REMARK  Name = ZINC66627091
REMARK  7 active torsions:
REMARK  status: ('A' for Active; 'I' for Inactive)
REMARK    1  A    between atoms: C_1  and  C_2
REMARK    2  A    between atoms: C_2  and  C_3
REMARK    3  A    between atoms: C_4  and  C_24
REMARK    4  A    between atoms: C_9  and  C_11
REMARK    5  A    between atoms: C_11  and  N_12
REMARK    6  A    between atoms: N_15  and  C_16
REMARK    7  A    between atoms: C_16  and  C_17
REMARK                            x       y       z     vdW  Elec       q    Type
REMARK                         _______ _______ _______ _____ _____    ______ ____
ROOT
ATOM      1  N   UNL     1      -7.564  -2.782  -2.626  0.00  0.00    -0.291 N 
ATOM      2  C   UNL     1      -8.530  -3.135  -3.498  0.00  0.00    +0.300 C 
ATOM      3  O   UNL     1      -8.328  -3.056  -4.694  0.00  0.00    -0.253 OA
ATOM      4  N   UNL     1      -9.720  -3.575  -3.043  0.00  0.00    -0.295 N 
ATOM      5  H   UNL     1      -7.725  -2.845  -1.672  0.00  0.00    +0.151 HD
ATOM      6  H   UNL     1      -9.881  -3.638  -2.089  0.00  0.00    +0.151 HD
ENDROOT
BRANCH   1   7
ATOM      7  C   UNL     1      -6.271  -2.304  -3.121  0.00  0.00    +0.202 C 
BRANCH   7  14
ATOM      8  C   UNL     1      -1.412  -0.526   0.013  0.00  0.00    +0.053 A 
ATOM      9  C   UNL     1      -2.067  -0.772   1.174  0.00  0.00    +0.011 A 
ATOM     10  S   UNL     1      -3.639  -1.349   0.553  0.00  0.00    -0.057 S 
ATOM     11  C   UNL     1      -3.302  -1.218  -1.091  0.00  0.00    +0.165 A 
ATOM     12  N   UNL     1      -2.070  -0.758  -1.108  0.00  0.00    -0.229 NA
ATOM     13  N   UNL     1      -4.127  -1.518  -2.168  0.00  0.00    -0.263 N 
ATOM     14  C   UNL     1      -5.375  -1.978  -1.953  0.00  0.00    +0.236 C 
ATOM     15  O   UNL     1      -5.778  -2.131  -0.819  0.00  0.00    -0.274 OA
ATOM     16  C   UNL     1      -1.597  -0.606   2.596  0.00  0.00    +0.053 C 
ATOM     17  H   UNL     1      -3.805  -1.395  -3.075  0.00  0.00    +0.157 HD
BRANCH   8  19
ATOM     18  C   UNL     1      -0.019   1.526   0.010  0.00  0.00    +0.010 C 
ATOM     19  C   UNL     1       0.002  -0.004   0.002  0.00  0.00    +0.053 C 
ENDBRANCH   8  19
ENDBRANCH   7  14
ENDBRANCH   1   7
BRANCH   4  20
ATOM     20  C   UNL     1     -10.769  -3.958  -3.990  0.00  0.00    +0.141 C 
BRANCH  20  21
ATOM     21  C   UNL     1     -11.990  -4.411  -3.231  0.00  0.00    -0.030 A 
ATOM     22  C   UNL     1     -12.133  -5.741  -2.882  0.00  0.00    +0.006 A 
ATOM     23  C   UNL     1     -13.252  -6.157  -2.186  0.00  0.00    +0.020 A 
ATOM     24  C   UNL     1     -14.230  -5.242  -1.838  0.00  0.00    +0.041 A 
ATOM     25  C   UNL     1     -14.086  -3.911  -2.187  0.00  0.00    +0.020 A 
ATOM     26  C   UNL     1     -12.964  -3.495  -2.879  0.00  0.00    +0.006 A 
ATOM     27 CL   UNL     1     -15.636  -5.764  -0.964  0.00  0.00    -0.084 Cl
ENDBRANCH  20  21
ENDBRANCH   4  20
TORSDOF 5
