REMARK  Name = ZINC57641236
REMARK  14 active torsions:
REMARK  status: ('A' for Active; 'I' for Inactive)
REMARK    1  A    between atoms: C_1  and  C_2
REMARK    2  A    between atoms: C_2  and  C_3
REMARK    3  A    between atoms: C_3  and  C_5
REMARK    4  A    between atoms: C_3  and  N_14
REMARK    5  A    between atoms: N_9  and  C_10
REMARK    6  A    between atoms: C_10  and  C_11
REMARK    7  A    between atoms: C_11  and  O_12
REMARK    8  A    between atoms: O_12  and  C_13
REMARK    9  A    between atoms: N_14  and  C_15
REMARK   10  A    between atoms: N_14  and  C_25
REMARK   11  A    between atoms: C_15  and  C_16
REMARK   12  A    between atoms: C_25  and  C_26
REMARK   13  A    between atoms: C_31  and  O_38
REMARK   14  A    between atoms: O_38  and  C_39
REMARK                            x       y       z     vdW  Elec       q    Type
REMARK                         _______ _______ _______ _____ _____    ______ ____
ROOT
ATOM      1  N   UNL     1      -0.292  -0.357  -2.759  0.00  0.00    -0.284 NA
ENDROOT
BRANCH   1   2
ATOM      2  C   UNL     1       0.445  -1.263  -1.868  0.00  0.00    +0.127 C 
BRANCH   2   3
ATOM      3  C   UNL     1       0.257  -2.685  -2.331  0.00  0.00    +0.168 A 
ATOM      4  N   UNL     1      -0.869  -3.245  -2.702  0.00  0.00    -0.112 NA
ATOM      5  N   UNL     1      -0.618  -4.466  -3.026  0.00  0.00    -0.023 NA
ATOM      6  N   UNL     1       0.639  -4.700  -2.872  0.00  0.00    -0.044 NA
ATOM      7  N   UNL     1       1.214  -3.625  -2.450  0.00  0.00    -0.226 N 
BRANCH   7   8
ATOM      8  C   UNL     1       2.638  -3.459  -2.152  0.00  0.00    +0.175 C 
BRANCH   8   9
ATOM      9  C   UNL     1       2.898  -3.813  -0.687  0.00  0.00    +0.183 C 
BRANCH   9  10
ATOM     10  O   UNL     1       4.288  -3.651  -0.397  0.00  0.00    -0.381 OA
ATOM     11  C   UNL     1       4.639  -3.959   0.954  0.00  0.00    +0.194 C 
ENDBRANCH   9  10
ENDBRANCH   8   9
ENDBRANCH   7   8
ENDBRANCH   2   3
BRANCH   2  13
ATOM     12  C   UNL     1       0.160   0.311   0.051  0.00  0.00    +0.006 C 
ATOM     13  C   UNL     1      -0.084  -1.117  -0.440  0.00  0.00    +0.023 C 
ENDBRANCH   2  13
ENDBRANCH   1   2
BRANCH   1  14
ATOM     14  C   UNL     1      -1.721  -0.334  -2.421  0.00  0.00    +0.120 C 
BRANCH  14  15
ATOM     15  C   UNL     1      -2.500   0.253  -3.570  0.00  0.00    -0.030 A 
ATOM     16  C   UNL     1      -2.836   1.593  -3.562  0.00  0.00    +0.009 A 
ATOM     17  C   UNL     1      -3.550   2.136  -4.614  0.00  0.00    +0.050 A 
ATOM     18  C   UNL     1      -3.930   1.336  -5.680  0.00  0.00    +0.166 A 
ATOM     19  C   UNL     1      -3.591  -0.014  -5.688  0.00  0.00    +0.167 A 
ATOM     20  C   UNL     1      -2.871  -0.550  -4.633  0.00  0.00    +0.054 A 
ATOM     21  O   UNL     1      -4.075  -0.579  -6.832  0.00  0.00    -0.453 OA
ATOM     22  C   UNL     1      -5.063   0.344  -7.329  0.00  0.00    +0.466 C 
ATOM     23  O   UNL     1      -4.627   1.618  -6.820  0.00  0.00    -0.453 OA
ENDBRANCH  14  15
ENDBRANCH   1  14
BRANCH   1  24
ATOM     24  C   UNL     1       0.280   0.996  -2.723  0.00  0.00    +0.126 C 
BRANCH  24  25
ATOM     25  C   UNL     1       1.542   1.030  -3.545  0.00  0.00    +0.031 A 
ATOM     26  C   UNL     1       1.488   1.389  -4.853  0.00  0.00    +0.020 A 
ATOM     27  C   UNL     1       2.731   1.413  -5.623  0.00  0.00    -0.001 A 
ATOM     28  C   UNL     1       2.737   1.776  -6.975  0.00  0.00    +0.013 A 
ATOM     29  C   UNL     1       3.912   1.790  -7.668  0.00  0.00    +0.046 A 
ATOM     30  C   UNL     1       5.108   1.444  -7.041  0.00  0.00    +0.122 A 
ATOM     31  C   UNL     1       5.123   1.082  -5.706  0.00  0.00    +0.072 A 
ATOM     32  C   UNL     1       3.937   1.063  -4.984  0.00  0.00    +0.053 A 
ATOM     33  N   UNL     1       3.923   0.708  -3.651  0.00  0.00    -0.322 N 
ATOM     34  H   UNL     1       4.754   0.467  -3.212  0.00  0.00    +0.169 HD
ATOM     35  C   UNL     1       2.776   0.694  -2.951  0.00  0.00    +0.254 A 
ATOM     36  O   UNL     1       2.802   0.379  -1.774  0.00  0.00    -0.268 OA
BRANCH  30  37
ATOM     37  O   UNL     1       6.268   1.462  -7.747  0.00  0.00    -0.495 OA
ATOM     38  C   UNL     1       6.185   1.843  -9.122  0.00  0.00    +0.277 C 
ENDBRANCH  30  37
ENDBRANCH  24  25
ENDBRANCH   1  24
TORSDOF 11
