REMARK  Name = ZINC24106039
REMARK  9 active torsions:
REMARK  status: ('A' for Active; 'I' for Inactive)
REMARK    1  A    between atoms: C_1  and  C_2
REMARK    2  A    between atoms: C_2  and  N_3
REMARK    3  A    between atoms: N_3  and  C_4
REMARK    4  A    between atoms: N_3  and  C_21
REMARK    5  A    between atoms: C_4  and  C_5
REMARK    6  A    between atoms: C_11  and  C_16
REMARK    7  A    between atoms: C_21  and  C_22
REMARK    8  A    between atoms: N_24  and  C_25
REMARK    9  A    between atoms: C_30  and  C_31
REMARK                            x       y       z     vdW  Elec       q    Type
REMARK                         _______ _______ _______ _____ _____    ______ ____
ROOT
ATOM      1  N   UNL     1      -5.982  -0.952  -0.267  0.00  0.00    +0.390 N 
ATOM      2  H   UNL     1      -5.745  -1.668  -1.068  0.00  0.00    -0.081 HD
ENDROOT
BRANCH   1   4
ATOM      3  C   UNL     1      -6.522  -0.752   2.114  0.00  0.00    -0.017 C 
ATOM      4  C   UNL     1      -6.119  -1.705   0.987  0.00  0.00    -0.081 C 
ENDBRANCH   1   4
BRANCH   1   5
ATOM      5  C   UNL     1      -7.241  -0.281  -0.618  0.00  0.00    -0.003 C 
BRANCH   5   6
ATOM      6  C   UNL     1      -8.249  -1.308  -1.064  0.00  0.00    +0.094 A 
ATOM      7  N   UNL     1      -9.459  -0.898  -1.525  0.00  0.00    -0.312 N 
ATOM      8  H   UNL     1      -9.698   0.175  -1.566  0.00  0.00    +0.170 HD
ATOM      9  C   UNL     1     -10.386  -1.783  -1.937  0.00  0.00    +0.260 A 
ATOM     10  O   UNL     1     -11.466  -1.399  -2.353  0.00  0.00    -0.267 OA
ATOM     11  C   UNL     1     -10.087  -3.181  -1.875  0.00  0.00    +0.083 A 
ATOM     12  C   UNL     1     -10.916  -4.320  -2.254  0.00  0.00    +0.039 A 
ATOM     13  C   UNL     1     -10.412  -5.571  -2.104  0.00  0.00    +0.059 A 
ATOM     14  S   UNL     1      -8.783  -5.282  -1.441  0.00  0.00    -0.076 S 
ATOM     15  C   UNL     1      -8.815  -3.510  -1.380  0.00  0.00    +0.116 A 
ATOM     16  N   UNL     1      -7.947  -2.577  -0.995  0.00  0.00    -0.229 NA
BRANCH  12  17
ATOM     17  C   UNL     1     -12.278  -4.116  -2.789  0.00  0.00    +0.136 A 
ATOM     18  C   UNL     1     -12.780  -4.669  -3.925  0.00  0.00    +0.050 A 
ATOM     19  C   UNL     1     -14.107  -4.208  -4.049  0.00  0.00    +0.042 A 
ATOM     20  C   UNL     1     -14.343  -3.398  -2.999  0.00  0.00    +0.196 A 
ATOM     21  O   UNL     1     -13.236  -3.345  -2.239  0.00  0.00    -0.463 OA
ENDBRANCH  12  17
ENDBRANCH   5   6
ENDBRANCH   1   5
BRANCH   1  22
ATOM     22  C   UNL     1      -4.877   0.013  -0.183  0.00  0.00    +0.019 C 
BRANCH  22  23
ATOM     23  C   UNL     1      -3.570  -0.729  -0.066  0.00  0.00    +0.201 C 
ATOM     24  O   UNL     1      -3.561  -1.942  -0.054  0.00  0.00    -0.278 OA
ATOM     25  N   UNL     1      -2.413  -0.045   0.025  0.00  0.00    -0.287 N 
ATOM     26  H   UNL     1      -2.427   1.052   0.108  0.00  0.00    +0.155 HD
BRANCH  25  27
ATOM     27  C   UNL     1      -1.193  -0.730   0.013  0.00  0.00    +0.045 A 
ATOM     28  C   UNL     1      -1.102  -1.980  -0.584  0.00  0.00    +0.024 A 
ATOM     29  C   UNL     1       0.104  -2.653  -0.594  0.00  0.00    +0.002 A 
ATOM     30  C   UNL     1       1.221  -2.083  -0.010  0.00  0.00    +0.001 A 
ATOM     31  C   UNL     1       1.135  -0.836   0.581  0.00  0.00    +0.014 A 
ATOM     32  C   UNL     1      -0.070  -0.160   0.599  0.00  0.00    +0.076 A 
BRANCH  32  33
ATOM     33  C   UNL     1      -0.164   1.196   1.249  0.00  0.00    +0.419 C 
ATOM     34  F   UNL     1       1.087   1.554   1.764  0.00  0.00    -0.166 F 
ATOM     35  F   UNL     1      -0.565   2.142   0.299  0.00  0.00    -0.166 F 
ATOM     36  F   UNL     1      -1.101   1.152   2.287  0.00  0.00    -0.166 F 
ENDBRANCH  32  33
ENDBRANCH  25  27
ENDBRANCH  22  23
ENDBRANCH   1  22
TORSDOF 8
