REMARK  Name = ZINC14158004
REMARK  13 active torsions:
REMARK  status: ('A' for Active; 'I' for Inactive)
REMARK    1  A    between atoms: C_1  and  C_2
REMARK    2  A    between atoms: C_4  and  C_34
REMARK    3  A    between atoms: N_10  and  C_11
REMARK    4  A    between atoms: C_11  and  N_13
REMARK    5  A    between atoms: N_13  and  C_14
REMARK    6  A    between atoms: C_17  and  C_20
REMARK    7  A    between atoms: C_20  and  O_22
REMARK    8  A    between atoms: O_22  and  C_23
REMARK    9  A    between atoms: N_24  and  C_25
REMARK   10  A    between atoms: C_27  and  C_32
REMARK   11  A    between atoms: C_27  and  C_33
REMARK   12  A    between atoms: C_28  and  C_30
REMARK   13  A    between atoms: C_28  and  C_31
REMARK                            x       y       z     vdW  Elec       q    Type
REMARK                         _______ _______ _______ _____ _____    ______ ____
ROOT
ATOM      1  C   UNL     1       3.143  -6.507  -0.215  0.00  0.00    +0.066 C 
ATOM      2  C   UNL     1       1.765  -5.899  -0.265  0.00  0.00    +0.044 A 
ATOM      3  C   UNL     1       0.641  -6.711  -0.293  0.00  0.00    +0.046 A 
ATOM      4  C   UNL     1      -0.607  -6.111  -0.338  0.00  0.00    +0.044 A 
ATOM      5  N   UNL     1      -0.689  -4.791  -0.354  0.00  0.00    -0.217 NA
ATOM      6  C   UNL     1       0.405  -4.045  -0.327  0.00  0.00    +0.231 A 
ATOM      7  N   UNL     1       1.613  -4.586  -0.288  0.00  0.00    -0.217 NA
ATOM      8  N   UNL     1       0.282  -2.662  -0.345  0.00  0.00    -0.297 N 
ATOM      9  C   UNL     1       1.398  -1.877  -0.460  0.00  0.00    +0.196 C 
ATOM     10  N   UNL     1       1.297  -0.564  -0.346  0.00  0.00    -0.159 NA
ATOM     11  N   UNL     1       2.615  -2.451  -0.693  0.00  0.00    -0.355 N 
ATOM     12  C   UNL     1      -1.857  -6.953  -0.369  0.00  0.00    +0.066 C 
ATOM     13  H   UNL     1      -0.594  -2.252  -0.276  0.00  0.00    +0.171 HD
ATOM     14  H   UNL     1       2.675  -3.400  -0.880  0.00  0.00    +0.163 HD
ENDROOT
BRANCH  11  15
ATOM     15  C   UNL     1       3.832  -1.630  -0.660  0.00  0.00    +0.079 C 
ATOM     16  C   UNL     1       4.056  -1.008  -2.038  0.00  0.00    +0.011 C 
ATOM     17  C   UNL     1       5.329  -0.164  -2.039  0.00  0.00    -0.071 C 
ATOM     18  C   UNL     1       6.315  -1.695  -0.309  0.00  0.00    -0.071 C 
ATOM     19  C   UNL     1       5.030  -2.518  -0.328  0.00  0.00    +0.011 C 
ATOM     20  C   UNL     1       6.368  -0.858   0.974  0.00  0.00    -0.010 C 
ATOM     21  C   UNL     1       7.501  -2.684  -0.260  0.00  0.00    -0.010 C 
ATOM     22  C   UNL     1       5.071   1.154  -1.298  0.00  0.00    -0.010 C 
ATOM     23  C   UNL     1       5.649   0.193  -3.507  0.00  0.00    -0.010 C 
ATOM     24  N   UNL     1       6.538  -0.855  -1.517  0.00  0.00    +0.386 N 
ATOM     25  H   UNL     1       7.236  -0.139  -1.281  0.00  0.00    -0.084 HD
ATOM     26  H   UNL     1       6.905  -1.459  -2.261  0.00  0.00    -0.084 HD
ENDBRANCH  11  15
BRANCH  10  27
ATOM     27  C   UNL     1       0.092   0.006  -0.209  0.00  0.00    +0.161 C 
ATOM     28  S   UNL     1      -0.847  -0.302   1.189  0.00  0.00    -0.016 S 
BRANCH  27  29
ATOM     29  N   UNL     1      -0.381   0.823  -1.171  0.00  0.00    -0.295 N 
ATOM     30  H   UNL     1       0.180   1.057  -1.927  0.00  0.00    +0.154 HD
BRANCH  29  31
ATOM     31  C   UNL     1      -1.677   1.326  -1.083  0.00  0.00    +0.033 A 
ATOM     32  C   UNL     1      -2.747   0.458  -0.888  0.00  0.00    +0.024 A 
ATOM     33  C   UNL     1      -4.028   0.952  -0.796  0.00  0.00    +0.017 A 
ATOM     34  C   UNL     1      -4.255   2.327  -0.908  0.00  0.00    +0.059 A 
ATOM     35  C   UNL     1      -3.178   3.196  -1.109  0.00  0.00    +0.017 A 
ATOM     36  C   UNL     1      -1.899   2.696  -1.196  0.00  0.00    +0.024 A 
BRANCH  34  37
ATOM     37  C   UNL     1      -5.626   2.860  -0.814  0.00  0.00    +0.339 C 
ATOM     38  O   UNL     1      -5.822   4.056  -0.912  0.00  0.00    -0.245 OA
BRANCH  37  39
ATOM     39  O   UNL     1      -6.663   2.022  -0.620  0.00  0.00    -0.464 OA
ATOM     40  C   UNL     1      -7.985   2.616  -0.538  0.00  0.00    +0.280 C 
ENDBRANCH  37  39
ENDBRANCH  34  37
ENDBRANCH  29  31
ENDBRANCH  27  29
ENDBRANCH  10  27
TORSDOF 6
