REMARK  Name = ZINC02303660
REMARK  7 active torsions:
REMARK  status: ('A' for Active; 'I' for Inactive)
REMARK    1  A    between atoms: C_4  and  S_7
REMARK    2  A    between atoms: S_7  and  C_10
REMARK    3  A    between atoms: N_21  and  C_24
REMARK    4  A    between atoms: C_22  and  N_23
REMARK    5  A    between atoms: C_24  and  C_25
REMARK    6  A    between atoms: C_25  and  N_26
REMARK    7  A    between atoms: C_27  and  C_29
REMARK                            x       y       z     vdW  Elec       q    Type
REMARK                         _______ _______ _______ _____ _____    ______ ____
ROOT
ATOM      1  C   UNL     1       1.243   1.864   0.000  0.00  0.00    +0.160 A 
ATOM      2  C   UNL     1       2.144   0.772  -0.014  0.00  0.00    +0.135 A 
ATOM      3  C   UNL     1       1.311  -0.437  -0.013  0.00  0.00    +0.163 A 
ATOM      4  N   UNL     1       1.881  -1.621  -0.024  0.00  0.00    -0.226 NA
ATOM      5  C   UNL     1       3.217  -1.717  -0.038  0.00  0.00    +0.092 A 
ATOM      6  C   UNL     1       3.837  -2.980  -0.050  0.00  0.00    +0.030 A 
ATOM      7  C   UNL     1       5.194  -3.069  -0.063  0.00  0.00    +0.002 A 
ATOM      8  C   UNL     1       5.988  -1.923  -0.065  0.00  0.00    +0.002 A 
ATOM      9  C   UNL     1       5.426  -0.684  -0.053  0.00  0.00    +0.030 A 
ATOM     10  C   UNL     1       4.024  -0.551  -0.039  0.00  0.00    +0.090 A 
ATOM     11  N   UNL     1       3.463   0.662  -0.027  0.00  0.00    -0.240 NA
ATOM     12  N   UNL     1       0.002  -0.004   0.002  0.00  0.00    -0.310 N 
ATOM     13  C   UNL     1      -0.017   1.368   0.010  0.00  0.00    +0.126 A 
ENDROOT
BRANCH   1  14
ATOM     14  S   UNL     1       1.685   3.569   0.005  0.00  0.00    +0.030 S 
ATOM     15  O   UNL     1       2.987   3.653  -0.558  0.00  0.00    -0.164 OA
ATOM     16  O   UNL     1       0.576   4.277  -0.532  0.00  0.00    -0.164 OA
BRANCH  14  20
ATOM     17  C   UNL     1       2.061   4.844   4.332  0.00  0.00    +0.000 A 
ATOM     18  C   UNL     1       3.162   4.349   3.659  0.00  0.00    +0.002 A 
ATOM     19  C   UNL     1       3.047   3.960   2.337  0.00  0.00    +0.027 A 
ATOM     20  C   UNL     1       1.831   4.065   1.689  0.00  0.00    +0.094 A 
ATOM     21  C   UNL     1       0.731   4.565   2.361  0.00  0.00    +0.027 A 
ATOM     22  C   UNL     1       0.845   4.949   3.683  0.00  0.00    +0.002 A 
ENDBRANCH  14  20
ENDBRANCH   1  14
BRANCH  13  23
ATOM     23  N   UNL     1      -1.165   2.139   0.019  0.00  0.00    -0.343 N 
ATOM     24  H   UNL     1      -2.036   1.712   0.021  0.00  0.00    +0.144 HD
ATOM     25  H   UNL     1      -1.099   3.107   0.024  0.00  0.00    +0.144 HD
ENDBRANCH  13  23
BRANCH  12  26
ATOM     26  C   UNL     1      -1.180  -0.870   0.009  0.00  0.00    +0.144 C 
BRANCH  26  27
ATOM     27  C   UNL     1      -1.606  -1.164  -1.430  0.00  0.00    +0.126 C 
BRANCH  27  28
ATOM     28  N   UNL     1      -2.788  -2.029  -1.423  0.00  0.00    -0.309 N 
ATOM     29  C   UNL     1      -3.343  -2.421  -2.587  0.00  0.00    +0.251 C 
ATOM     30  O   UNL     1      -2.863  -2.056  -3.644  0.00  0.00    -0.270 OA
ATOM     31  H   UNL     1      -3.170  -2.321  -0.581  0.00  0.00    +0.149 HD
BRANCH  29  32
ATOM     32  C   UNL     1      -4.525  -3.288  -2.579  0.00  0.00    +0.074 A 
ATOM     33  C   UNL     1      -5.244  -3.794  -3.651  0.00  0.00    +0.021 A 
ATOM     34  C   UNL     1      -6.322  -4.593  -3.359  0.00  0.00    +0.008 A 
ATOM     35  C   UNL     1      -6.634  -4.838  -2.059  0.00  0.00    +0.046 A 
ATOM     36  S   UNL     1      -5.419  -3.959  -1.189  0.00  0.00    -0.092 S 
ENDBRANCH  29  32
ENDBRANCH  27  28
ENDBRANCH  26  27
ENDBRANCH  12  26
TORSDOF 7
