REMARK  Name = ZINC44292309
REMARK  7 active torsions:
REMARK  status: ('A' for Active; 'I' for Inactive)
REMARK    1  A    between atoms: C_1  and  C_2
REMARK    2  A    between atoms: C_10  and  S_12
REMARK    3  A    between atoms: S_12  and  C_13
REMARK    4  A    between atoms: C_16  and  C_18
REMARK    5  A    between atoms: C_18  and  CA_19
REMARK    6  A    between atoms: CA_19  and  C_21
REMARK    7  A    between atoms: CA_19  and  N_24
REMARK                            x       y       z     vdW  Elec       q    Type
REMARK                         _______ _______ _______ _____ _____    ______ ____
ROOT
ATOM      1  C   UNL     1       0.101  -7.000   1.085  0.00  0.00    +0.169 A 
ATOM      2  C   UNL     1       0.114  -8.346   1.230  0.00  0.00    +0.057 A 
ATOM      3  C   UNL     1       0.117  -8.897  -0.072  0.00  0.00    +0.046 A 
ATOM      4  C   UNL     1       0.106  -7.865  -0.934  0.00  0.00    +0.105 A 
ATOM      5  O   UNL     1       0.090  -6.718  -0.230  0.00  0.00    -0.453 OA
ENDROOT
BRANCH   1   6
ATOM      6  S   UNL     1       0.091  -5.820   2.394  0.00  0.00    -0.014 S 
BRANCH   6  16
ATOM      7  C   UNL     1      -0.018   1.503   0.010  0.00  0.00    +0.044 C 
ATOM      8  C   UNL     1       0.002  -0.004   0.002  0.00  0.00    -0.048 A 
ATOM      9  C   UNL     1       0.006  -0.686  -1.206  0.00  0.00    +0.005 A 
ATOM     10  C   UNL     1       0.024  -2.063  -1.230  0.00  0.00    +0.030 A 
ATOM     11  C   UNL     1       0.039  -2.779  -0.030  0.00  0.00    +0.090 A 
ATOM     12  C   UNL     1       0.036  -2.082   1.190  0.00  0.00    +0.067 A 
ATOM     13  C   UNL     1       0.023  -0.696   1.196  0.00  0.00    +0.031 A 
ATOM     14  N   UNL     1       0.054  -3.046   2.184  0.00  0.00    -0.333 N 
ATOM     15  H   UNL     1       0.056  -2.886   3.141  0.00  0.00    +0.168 HD
ATOM     16  C   UNL     1       0.067  -4.265   1.566  0.00  0.00    +0.175 A 
ATOM     17  N   UNL     1       0.058  -4.104   0.265  0.00  0.00    -0.222 NA
ENDBRANCH   6  16
ENDBRANCH   1   6
BRANCH   4  18
ATOM     18  C   UNL     1       0.105  -7.974  -2.437  0.00  0.00    +0.069 C 
BRANCH  18  19
ATOM     19  CA  UNL     1      -1.337  -8.025  -2.944  0.00  0.00    +0.048 C 
BRANCH  19  20
ATOM     20  N   UNL     1      -1.982  -9.256  -2.465  0.00  0.00    +0.387 N 
ATOM     21  H1  UNL     1      -2.933  -9.290  -2.799  0.00  0.00    -0.089 HD
ATOM     22  H2  UNL     1      -1.475 -10.057  -2.810  0.00  0.00    -0.089 HD
ATOM     23  H3  UNL     1      -1.979  -9.265  -1.456  0.00  0.00    -0.089 HD
ENDBRANCH  19  20
BRANCH  19  24
ATOM     24  C   UNL     1      -1.341  -8.011  -4.451  0.00  0.00    +0.342 C 
ATOM     25  O   UNL     1      -1.302  -9.060  -5.071  0.00  0.00    -0.248 OA
ATOM     26  OXT UNL     1      -1.384  -6.950  -5.050  0.00  0.00    -0.248 OA
ENDBRANCH  19  24
ENDBRANCH  18  19
ENDBRANCH   4  18
TORSDOF 6
