REMARK  Name = ZINC12192896
REMARK  8 active torsions:
REMARK  status: ('A' for Active; 'I' for Inactive)
REMARK    1  A    between atoms: C_1  and  N_2
REMARK    2  A    between atoms: C_3  and  C_28
REMARK    3  A    between atoms: C_6  and  S_7
REMARK    4  A    between atoms: S_7  and  C_8
REMARK    5  A    between atoms: C_8  and  C_9
REMARK    6  A    between atoms: N_11  and  C_12
REMARK    7  A    between atoms: C_14  and  C_23
REMARK    8  A    between atoms: N_16  and  C_17
REMARK                            x       y       z     vdW  Elec       q    Type
REMARK                         _______ _______ _______ _____ _____    ______ ____
ROOT
ATOM      1  C   UNL     1      -5.120   3.163  -0.067  0.00  0.00    +0.229 C 
ATOM      2  O   UNL     1      -5.577   2.050  -0.217  0.00  0.00    -0.275 OA
ATOM      3  N   UNL     1      -5.946   4.223   0.038  0.00  0.00    -0.270 N 
ATOM      4  H   UNL     1      -5.580   5.113   0.158  0.00  0.00    +0.156 HD
ENDROOT
BRANCH   3   5
ATOM      5  C   UNL     1      -7.327   4.039  -0.026  0.00  0.00    +0.129 A 
ATOM      6  C   UNL     1      -7.975   2.853  -0.190  0.00  0.00    +0.069 A 
ATOM      7  C   UNL     1      -9.349   3.112  -0.199  0.00  0.00    +0.068 A 
ATOM      8  N   UNL     1      -9.529   4.400  -0.047  0.00  0.00    -0.169 NA
ATOM      9  N   UNL     1      -8.274   5.011   0.071  0.00  0.00    -0.218 N 
BRANCH   9  10
ATOM     10  C   UNL     1      -8.037   6.381   0.252  0.00  0.00    +0.067 A 
ATOM     11  C   UNL     1      -6.972   6.804   1.038  0.00  0.00    +0.028 A 
ATOM     12  C   UNL     1      -6.738   8.154   1.211  0.00  0.00    +0.002 A 
ATOM     13  C   UNL     1      -7.568   9.084   0.612  0.00  0.00    +0.000 A 
ATOM     14  C   UNL     1      -8.632   8.665  -0.166  0.00  0.00    +0.002 A 
ATOM     15  C   UNL     1      -8.868   7.317  -0.348  0.00  0.00    +0.028 A 
ENDBRANCH   9  10
BRANCH   7  16
ATOM     16  C   UNL     1     -10.438   2.083  -0.357  0.00  0.00    +0.040 C 
ATOM     17  C   UNL     1     -10.004   0.750   0.286  0.00  0.00    +0.010 C 
ATOM     18  C   UNL     1     -10.579  -0.333  -0.660  0.00  0.00    +0.001 C 
ATOM     19  C   UNL     1     -10.380   0.296  -2.062  0.00  0.00    +0.001 C 
ATOM     20  C   UNL     1     -10.678   1.795  -1.849  0.00  0.00    +0.010 C 
ENDBRANCH   7  16
ENDBRANCH   3   5
BRANCH   1  21
ATOM     21  C   UNL     1      -3.628   3.361   0.001  0.00  0.00    +0.173 C 
BRANCH  21  22
ATOM     22  S   UNL     1      -2.798   1.762  -0.170  0.00  0.00    -0.077 S 
BRANCH  22  28
ATOM     23  C   UNL     1       0.006   0.015  -0.300  0.00  0.00    +0.153 C 
ATOM     24  N   UNL     1      -0.016   1.469  -0.123  0.00  0.00    -0.305 N 
ATOM     25  C   UNL     1       1.067   2.308   0.005  0.00  0.00    +0.167 A 
ATOM     26  N   UNL     1       0.598   3.526   0.143  0.00  0.00    -0.128 NA
ATOM     27  N   UNL     1      -0.687   3.507   0.110  0.00  0.00    -0.122 NA
ATOM     28  C   UNL     1      -1.116   2.276  -0.057  0.00  0.00    +0.192 A 
BRANCH  25  29
ATOM     29  C   UNL     1       2.491   1.911  -0.009  0.00  0.00    +0.054 A 
ATOM     30  C   UNL     1       2.926   0.829   0.757  0.00  0.00    +0.014 A 
ATOM     31  C   UNL     1       4.256   0.464   0.739  0.00  0.00    +0.001 A 
ATOM     32  C   UNL     1       5.160   1.168  -0.036  0.00  0.00    +0.003 A 
ATOM     33  C   UNL     1       4.739   2.243  -0.798  0.00  0.00    +0.039 A 
ATOM     34  C   UNL     1       3.408   2.616  -0.794  0.00  0.00    +0.134 A 
ATOM     35  F   UNL     1       2.995   3.662  -1.543  0.00  0.00    -0.205 F 
ENDBRANCH  25  29
ENDBRANCH  22  28
ENDBRANCH  21  22
ENDBRANCH   1  21
TORSDOF 7
