REMARK  Name = ZINC02368612
REMARK  8 active torsions:
REMARK  status: ('A' for Active; 'I' for Inactive)
REMARK    1  A    between atoms: C_1  and  C_2
REMARK    2  A    between atoms: C_6  and  C_8
REMARK    3  A    between atoms: C_8  and  N_9
REMARK    4  A    between atoms: N_17  and  C_33
REMARK    5  A    between atoms: N_21  and  C_22
REMARK    6  A    between atoms: C_25  and  C_32
REMARK    7  A    between atoms: C_28  and  C_30
REMARK    8  A    between atoms: C_28  and  C_31
REMARK                            x       y       z     vdW  Elec       q    Type
REMARK                         _______ _______ _______ _____ _____    ______ ____
ROOT
ATOM      1  N   UNL     1      -2.927   0.722   1.401  0.00  0.00    -0.302 N 
ATOM      2  C   UNL     1      -3.731   1.534   2.190  0.00  0.00    +0.153 A 
ATOM      3  C   UNL     1      -4.379   2.766   1.994  0.00  0.00    +0.280 A 
ATOM      4  O   UNL     1      -4.286   3.348   0.927  0.00  0.00    -0.265 OA
ATOM      5  N   UNL     1      -5.105   3.297   2.999  0.00  0.00    -0.273 N 
ATOM      6  H   UNL     1      -5.568   4.173   2.863  0.00  0.00    +0.173 HD
ATOM      7  C   UNL     1      -5.216   2.667   4.182  0.00  0.00    +0.331 A 
ATOM      8  O   UNL     1      -5.879   3.176   5.065  0.00  0.00    -0.246 OA
ATOM      9  N   UNL     1      -4.612   1.486   4.411  0.00  0.00    -0.280 N 
ATOM     10  C   UNL     1      -3.852   0.890   3.417  0.00  0.00    +0.170 A 
ATOM     11  N   UNL     1      -3.153  -0.244   3.348  0.00  0.00    -0.196 NA
ATOM     12  C   UNL     1      -2.602  -0.360   2.156  0.00  0.00    +0.199 A 
ATOM     13  N   UNL     1      -1.818  -1.413   1.742  0.00  0.00    -0.312 N 
ATOM     14  C   UNL     1      -4.757   0.831   5.713  0.00  0.00    +0.155 C 
ATOM     15  H   UNL     1      -1.448  -1.418   0.846  0.00  0.00    +0.149 HD
ENDROOT
BRANCH  13  16
ATOM     16  C   UNL     1      -1.541  -2.524   2.656  0.00  0.00    +0.074 C 
ATOM     17  C   UNL     1      -0.344  -2.171   3.541  0.00  0.00    +0.025 C 
ATOM     18  C   UNL     1      -0.055  -3.331   4.495  0.00  0.00    -0.012 C 
ATOM     19  C   UNL     1       0.263  -4.590   3.685  0.00  0.00    +0.009 C 
ATOM     20  C   UNL     1      -0.935  -4.943   2.801  0.00  0.00    -0.033 C 
ATOM     21  C   UNL     1      -1.224  -3.783   1.847  0.00  0.00    +0.028 C 
ATOM     22  C   UNL     1      -2.161  -5.198   3.680  0.00  0.00    +0.011 C 
ATOM     23  C   UNL     1      -0.617  -6.202   1.991  0.00  0.00    +0.011 C 
ATOM     24  C   UNL     1       1.142  -2.978   5.380  0.00  0.00    +0.007 C 
ENDBRANCH  13  16
BRANCH   1  25
ATOM     25  C   UNL     1      -2.514   0.980   0.019  0.00  0.00    +0.160 C 
BRANCH  25  31
ATOM     26  C   UNL     1       2.490   1.047  -0.016  0.00  0.00    +0.044 C 
ATOM     27  C   UNL     1       1.175   1.783   0.000  0.00  0.00    -0.050 A 
ATOM     28  C   UNL     1       1.156   3.166   0.008  0.00  0.00    +0.003 A 
ATOM     29  C   UNL     1      -0.050   3.840   0.022  0.00  0.00    +0.001 A 
ATOM     30  C   UNL     1      -1.238   3.133   0.030  0.00  0.00    +0.005 A 
ATOM     31  C   UNL     1      -1.219   1.751   0.017  0.00  0.00    -0.027 A 
ATOM     32  C   UNL     1      -0.013   1.076   0.008  0.00  0.00    +0.008 A 
ENDBRANCH  25  31
ENDBRANCH   1  25
TORSDOF 3
