REMARK  Name = ZINC19750786
REMARK  8 active torsions:
REMARK  status: ('A' for Active; 'I' for Inactive)
REMARK    1  A    between atoms: C_1  and  C_2
REMARK    2  A    between atoms: C_7  and  C_8
REMARK    3  A    between atoms: N_9  and  C_15
REMARK    4  A    between atoms: C_10  and  C_12
REMARK    5  A    between atoms: C_12  and  C_13
REMARK    6  A    between atoms: C_13  and  N_14
REMARK    7  A    between atoms: C_15  and  C_16
REMARK    8  A    between atoms: C_20  and  C_22
REMARK                            x       y       z     vdW  Elec       q    Type
REMARK                         _______ _______ _______ _____ _____    ______ ____
ROOT
ATOM      1  C   UNL     1      -3.756   2.603   6.679  0.00  0.00    +0.044 C 
ATOM      2  C   UNL     1      -2.888   2.750   5.456  0.00  0.00    -0.045 A 
ATOM      3  C   UNL     1      -2.878   1.762   4.511  0.00  0.00    +0.033 A 
ATOM      4  C   UNL     1      -2.075   1.893   3.376  0.00  0.00    +0.090 A 
ATOM      5  C   UNL     1      -1.284   3.044   3.218  0.00  0.00    +0.069 A 
ATOM      6  C   UNL     1      -1.306   4.036   4.188  0.00  0.00    +0.031 A 
ATOM      7  C   UNL     1      -2.107   3.886   5.300  0.00  0.00    -0.045 A 
ATOM      8  C   UNL     1      -2.134   4.962   6.354  0.00  0.00    +0.044 C 
ATOM      9  N   UNL     1      -0.610   2.882   2.024  0.00  0.00    -0.323 N 
ATOM     10  C   UNL     1      -0.999   1.688   1.499  0.00  0.00    +0.109 A 
ATOM     11  N   UNL     1      -1.853   1.108   2.290  0.00  0.00    -0.232 NA
ENDROOT
BRANCH  10  12
ATOM     12  C   UNL     1      -0.507   1.119   0.193  0.00  0.00    +0.055 C 
BRANCH  12  13
ATOM     13  C   UNL     1      -1.496   1.468  -0.921  0.00  0.00    -0.079 C 
BRANCH  13  14
ATOM     14  N   UNL     1      -0.975   0.986  -2.207  0.00  0.00    +0.378 N 
ATOM     15  H   UNL     1      -1.686   1.237  -3.008  0.00  0.00    -0.090 HD
ATOM     16  H   UNL     1      -0.843  -0.106  -2.163  0.00  0.00    -0.090 HD
ATOM     17  H   UNL     1      -0.006   1.464  -2.413  0.00  0.00    -0.090 HD
ENDBRANCH  13  14
ENDBRANCH  12  13
ENDBRANCH  10  12
BRANCH   9  18
ATOM     18  C   UNL     1       0.343   3.822   1.430  0.00  0.00    +0.158 C 
BRANCH  18  19
ATOM     19  C   UNL     1       1.718   3.567   1.992  0.00  0.00    -0.027 A 
ATOM     20  C   UNL     1       2.103   4.172   3.175  0.00  0.00    +0.005 A 
ATOM     21  C   UNL     1       3.361   3.938   3.701  0.00  0.00    +0.001 A 
ATOM     22  C   UNL     1       4.245   3.107   3.043  0.00  0.00    +0.015 A 
ATOM     23  C   UNL     1       3.864   2.498   1.846  0.00  0.00    +0.063 A 
ATOM     24  C   UNL     1       2.591   2.734   1.324  0.00  0.00    +0.020 A 
BRANCH  23  25
ATOM     25  C   UNL     1       4.804   1.607   1.135  0.00  0.00    +0.387 C 
ATOM     26  O   UNL     1       4.471   1.079   0.094  0.00  0.00    -0.241 OA
ATOM     27  O   UNL     1       6.032   1.382   1.642  0.00  0.00    -0.241 OA
ENDBRANCH  23  25
ENDBRANCH  18  19
ENDBRANCH   9  18
TORSDOF 6
