REMARK  Name = ZINC03990180
REMARK  13 active torsions:
REMARK  status: ('A' for Active; 'I' for Inactive)
REMARK    1  A    between atoms: C_1  and  C_2
REMARK    2  A    between atoms: C_3  and  C_28
REMARK    3  A    between atoms: C_4  and  C_23
REMARK    4  A    between atoms: C_6  and  C_21
REMARK    5  A    between atoms: C_7  and  S_9
REMARK    6  A    between atoms: S_9  and  C_10
REMARK    7  A    between atoms: C_10  and  C_11
REMARK    8  A    between atoms: C_11  and  C_13
REMARK    9  A    between atoms: C_16  and  O_19
REMARK   10  A    between atoms: O_19  and  C_20
REMARK   11  A    between atoms: N_30  and  C_31
REMARK   12  A    between atoms: C_36  and  O_37
REMARK   13  A    between atoms: O_37  and  C_38
REMARK                            x       y       z     vdW  Elec       q    Type
REMARK                         _______ _______ _______ _____ _____    ______ ____
ROOT
ATOM      1  C   UNL     1      -4.062   2.836  -0.646  0.00  0.00    +0.061 C 
ATOM      2  C   UNL     1      -2.958   3.827  -0.386  0.00  0.00    +0.015 C 
ATOM      3  C   UNL     1      -1.821   3.412   0.196  0.00  0.00    +0.047 C 
ATOM      4  C   UNL     1      -0.689   4.356   0.482  0.00  0.00    +0.134 C 
ATOM      5  C   UNL     1      -0.850   5.633  -0.293  0.00  0.00    +0.072 C 
ATOM      6  C   UNL     1      -2.040   5.970  -0.860  0.00  0.00    +0.080 C 
ATOM      7  N   UNL     1      -3.130   5.136  -0.742  0.00  0.00    -0.312 N 
ATOM      8  H   UNL     1      -4.141   5.526  -0.935  0.00  0.00    +0.152 HD
ENDROOT
BRANCH   4   9
ATOM      9  C   UNL     1       0.612   3.703   0.093  0.00  0.00    +0.118 A 
ATOM     10  C   UNL     1       1.638   3.439   0.923  0.00  0.00    +0.045 A 
ATOM     11  C   UNL     1       2.646   2.824   0.145  0.00  0.00    +0.041 A 
ATOM     12  C   UNL     1       2.179   2.757  -1.115  0.00  0.00    +0.195 A 
ATOM     13  O   UNL     1       0.947   3.291  -1.140  0.00  0.00    -0.467 OA
ENDBRANCH   4   9
BRANCH   3  14
ATOM     14  C   UNL     1      -1.684   2.046   0.544  0.00  0.00    +0.247 C 
ATOM     15  O   UNL     1      -1.800   1.700   1.706  0.00  0.00    -0.270 OA
ATOM     16  N   UNL     1      -1.425   1.130  -0.410  0.00  0.00    -0.279 N 
ATOM     17  H   UNL     1      -1.231   1.453  -1.444  0.00  0.00    +0.155 HD
BRANCH  16  18
ATOM     18  C   UNL     1      -1.402  -0.232  -0.086  0.00  0.00    +0.076 A 
ATOM     19  C   UNL     1      -1.007  -0.639   1.181  0.00  0.00    +0.027 A 
ATOM     20  C   UNL     1      -0.986  -1.983   1.499  0.00  0.00    +0.002 A 
ATOM     21  C   UNL     1      -1.358  -2.926   0.558  0.00  0.00    +0.004 A 
ATOM     22  C   UNL     1      -1.752  -2.528  -0.706  0.00  0.00    +0.047 A 
ATOM     23  C   UNL     1      -1.781  -1.182  -1.032  0.00  0.00    +0.141 A 
BRANCH  23  24
ATOM     24  O   UNL     1      -2.174  -0.788  -2.273  0.00  0.00    -0.493 OA
ATOM     25  C   UNL     1      -2.549  -1.817  -3.191  0.00  0.00    +0.277 C 
ENDBRANCH  23  24
ENDBRANCH  16  18
ENDBRANCH   3  14
BRANCH   5  26
ATOM     26  C   UNL     1       0.270   6.513  -0.438  0.00  0.00    +0.098 C 
ATOM     27  N   UNL     1       1.159   7.211  -0.553  0.00  0.00    -0.191 NA
ENDBRANCH   5  26
BRANCH   6  28
ATOM     28  S   UNL     1      -2.188   7.482  -1.752  0.00  0.00    -0.101 S 
BRANCH  28  29
ATOM     29  C   UNL     1      -3.925   7.384  -2.251  0.00  0.00    +0.155 C 
BRANCH  29  30
ATOM     30  C   UNL     1      -4.287   8.609  -3.050  0.00  0.00    +0.173 C 
ATOM     31  O   UNL     1      -3.453   9.464  -3.262  0.00  0.00    -0.291 OA
BRANCH  30  32
ATOM     32  C   UNL     1      -5.650   8.768  -3.574  0.00  0.00    +0.018 A 
ATOM     33  C   UNL     1      -6.614   7.779  -3.336  0.00  0.00    +0.015 A 
ATOM     34  C   UNL     1      -7.886   7.935  -3.822  0.00  0.00    +0.046 A 
ATOM     35  C   UNL     1      -8.218   9.066  -4.560  0.00  0.00    +0.120 A 
ATOM     36  C   UNL     1      -7.264  10.048  -4.803  0.00  0.00    +0.046 A 
ATOM     37  C   UNL     1      -5.990   9.905  -4.317  0.00  0.00    +0.015 A 
BRANCH  35  38
ATOM     38  O   UNL     1      -9.477   9.213  -5.043  0.00  0.00    -0.495 OA
ATOM     39  C   UNL     1     -10.408   8.167  -4.757  0.00  0.00    +0.277 C 
ENDBRANCH  35  38
ENDBRANCH  30  32
ENDBRANCH  29  30
ENDBRANCH  28  29
ENDBRANCH   6  28
TORSDOF 10
