REMARK  Name = ZINC64868818
REMARK  9 active torsions:
REMARK  status: ('A' for Active; 'I' for Inactive)
REMARK    1  A    between atoms: C_1  and  C_2
REMARK    2  A    between atoms: C_2  and  O_3
REMARK    3  A    between atoms: O_3  and  C_4
REMARK    4  A    between atoms: C_7  and  N_10
REMARK    5  A    between atoms: C_11  and  C_13
REMARK    6  A    between atoms: C_13  and  N_14
REMARK    7  A    between atoms: C_17  and  C_32
REMARK    8  A    between atoms: C_18  and  C_31
REMARK    9  A    between atoms: C_22  and  C_26
REMARK                            x       y       z     vdW  Elec       q    Type
REMARK                         _______ _______ _______ _____ _____    ______ ____
ROOT
ATOM      1  N   UNL     1       2.879  -8.257   4.053  0.00  0.00    -0.257 N 
ATOM      2  C   UNL     1       2.162  -8.595   5.212  0.00  0.00    +0.058 A 
ATOM      3  C   UNL     1       0.794  -8.574   4.991  0.00  0.00    +0.029 A 
ATOM      4  C   UNL     1      -0.076  -8.882   6.023  0.00  0.00    -0.046 A 
ATOM      5  C   UNL     1       0.415  -9.209   7.272  0.00  0.00    -0.046 A 
ATOM      6  C   UNL     1       1.780  -9.232   7.500  0.00  0.00    +0.028 A 
ATOM      7  C   UNL     1       2.656  -8.926   6.473  0.00  0.00    +0.053 A 
ATOM      8  N   UNL     1       3.994  -9.002   6.891  0.00  0.00    -0.312 N 
ATOM      9  C   UNL     1       5.135  -8.765   6.147  0.00  0.00    +0.050 C 
ATOM     10  C   UNL     1       5.236  -8.399   4.821  0.00  0.00    +0.092 C 
ATOM     11  C   UNL     1       4.214  -8.178   3.885  0.00  0.00    +0.246 C 
ATOM     12  O   UNL     1       4.584  -7.865   2.767  0.00  0.00    -0.270 OA
ATOM     13  C   UNL     1      -0.539  -9.542   8.390  0.00  0.00    +0.044 C 
ATOM     14  C   UNL     1      -1.563  -8.859   5.782  0.00  0.00    +0.044 C 
ATOM     15  H   UNL     1       4.136  -9.251   7.818  0.00  0.00    +0.152 HD
ENDROOT
BRANCH   9  16
ATOM     16  C   UNL     1       6.404  -8.923   6.862  0.00  0.00    +0.033 A 
ATOM     17  C   UNL     1       7.699  -8.752   6.393  0.00  0.00    +0.017 A 
ATOM     18  C   UNL     1       8.699  -8.975   7.310  0.00  0.00    +0.008 A 
ATOM     19  C   UNL     1       8.367  -9.337   8.573  0.00  0.00    +0.046 A 
ATOM     20  S   UNL     1       6.688  -9.379   8.562  0.00  0.00    -0.095 S 
ENDBRANCH   9  16
BRANCH   1  21
ATOM     21  C   UNL     1       2.070  -7.957   2.869  0.00  0.00    +0.210 C 
BRANCH  21  23
ATOM     22  N   UNL     1       0.829  -6.027   1.945  0.00  0.00    -0.284 N 
ATOM     23  C   UNL     1       1.595  -6.529   2.934  0.00  0.00    +0.235 C 
ATOM     24  O   UNL     1       1.902  -5.830   3.877  0.00  0.00    -0.274 OA
ATOM     25  H   UNL     1       0.520  -6.606   1.230  0.00  0.00    +0.155 HD
BRANCH  22  29
ATOM     26  C   UNL     1      -0.213  -1.990   1.956  0.00  0.00    +0.121 A 
ATOM     27  C   UNL     1       0.952  -2.407   2.583  0.00  0.00    +0.047 A 
ATOM     28  C   UNL     1       1.298  -3.744   2.580  0.00  0.00    +0.027 A 
ATOM     29  C   UNL     1       0.479  -4.671   1.949  0.00  0.00    +0.034 A 
ATOM     30  C   UNL     1      -0.687  -4.253   1.322  0.00  0.00    +0.027 A 
ATOM     31  C   UNL     1      -1.034  -2.916   1.331  0.00  0.00    +0.047 A 
BRANCH  26  32
ATOM     32  O   UNL     1      -0.552  -0.673   1.960  0.00  0.00    -0.492 OA
BRANCH  32  34
ATOM     33  C   UNL     1      -0.205   1.651   2.523  0.00  0.00    +0.048 C 
ATOM     34  C   UNL     1       0.340   0.225   2.623  0.00  0.00    +0.225 C 
ENDBRANCH  32  34
ENDBRANCH  26  32
ENDBRANCH  22  29
ENDBRANCH  21  23
ENDBRANCH   1  21
TORSDOF 6
