REMARK  Name = ZINC18458004
REMARK  7 active torsions:
REMARK  status: ('A' for Active; 'I' for Inactive)
REMARK    1  A    between atoms: C_1  and  C_2
REMARK    2  A    between atoms: C_2  and  C_4
REMARK    3  A    between atoms: C_2  and  S_19
REMARK    4  A    between atoms: C_16  and  C_17
REMARK    5  A    between atoms: C_16  and  C_18
REMARK    6  A    between atoms: S_19  and  C_20
REMARK    7  A    between atoms: C_23  and  C_26
REMARK                            x       y       z     vdW  Elec       q    Type
REMARK                         _______ _______ _______ _____ _____    ______ ____
ROOT
ATOM      1  C   UNL     1       0.693   1.324   0.624  0.00  0.00    +0.029 C 
ATOM      2  C   UNL     1       0.094   2.714   0.398  0.00  0.00    +0.137 C 
ENDROOT
BRANCH   2   3
ATOM      3  C   UNL     1      -0.744   2.703  -0.854  0.00  0.00    +0.234 C 
ATOM      4  O   UNL     1      -0.212   2.794  -1.941  0.00  0.00    -0.274 OA
ATOM      5  N   UNL     1      -2.084   2.591  -0.767  0.00  0.00    -0.255 N 
ATOM      6  C   UNL     1      -2.723   2.484   0.479  0.00  0.00    +0.059 A 
ATOM      7  C   UNL     1      -2.086   1.913   1.563  0.00  0.00    +0.025 A 
ATOM      8  C   UNL     1      -2.744   1.824   2.777  0.00  0.00    +0.002 A 
ATOM      9  C   UNL     1      -4.033   2.308   2.907  0.00  0.00    +0.002 A 
ATOM     10  C   UNL     1      -4.674   2.887   1.827  0.00  0.00    +0.025 A 
ATOM     11  C   UNL     1      -4.022   2.982   0.608  0.00  0.00    +0.055 A 
ATOM     12  N   UNL     1      -4.651   3.568  -0.495  0.00  0.00    -0.282 N 
ATOM     13  C   UNL     1      -4.148   3.418  -1.735  0.00  0.00    +0.241 C 
ATOM     14  O   UNL     1      -4.685   3.972  -2.671  0.00  0.00    -0.273 OA
ATOM     15  C   UNL     1      -2.924   2.571  -1.974  0.00  0.00    +0.113 C 
ATOM     16  C   UNL     1      -2.134   3.135  -3.157  0.00  0.00    +0.042 C 
ATOM     17  C   UNL     1      -3.349   1.133  -2.278  0.00  0.00    +0.042 C 
ATOM     18  H   UNL     1      -5.459   4.089  -0.366  0.00  0.00    +0.155 HD
ENDBRANCH   2   3
BRANCH   2  19
ATOM     19  S   UNL     1       1.429   3.924   0.220  0.00  0.00    -0.075 S 
BRANCH  19  20
ATOM     20  C   UNL     1       2.134   3.841   1.832  0.00  0.00    +0.167 A 
ATOM     21  N   UNL     1       3.206   4.559   2.268  0.00  0.00    -0.333 N 
ATOM     22  H   UNL     1       3.733   5.223   1.738  0.00  0.00    +0.168 HD
ATOM     23  C   UNL     1       3.425   4.196   3.586  0.00  0.00    +0.067 A 
ATOM     24  C   UNL     1       2.484   3.265   3.893  0.00  0.00    +0.139 A 
ATOM     25  N   UNL     1       1.718   3.071   2.812  0.00  0.00    -0.230 NA
BRANCH  23  26
ATOM     26  C   UNL     1       4.480   4.714   4.481  0.00  0.00    +0.000 A 
ATOM     27  C   UNL     1       5.384   5.672   4.018  0.00  0.00    +0.013 A 
ATOM     28  C   UNL     1       6.364   6.156   4.859  0.00  0.00    +0.039 A 
ATOM     29  C   UNL     1       6.458   5.686   6.160  0.00  0.00    +0.123 A 
ATOM     30  C   UNL     1       5.567   4.731   6.623  0.00  0.00    +0.039 A 
ATOM     31  C   UNL     1       4.581   4.243   5.792  0.00  0.00    +0.013 A 
ATOM     32  F   UNL     1       7.423   6.160   6.978  0.00  0.00    -0.205 F 
ENDBRANCH  23  26
ENDBRANCH  19  20
ENDBRANCH   2  19
TORSDOF 4
