REMARK  Name = ZINC00929870
REMARK  5 active torsions:
REMARK  status: ('A' for Active; 'I' for Inactive)
REMARK    1  A    between atoms: C_1  and  C_2
REMARK    2  A    between atoms: C_11  and  S_12
REMARK    3  A    between atoms: S_12  and  C_13
REMARK    4  A    between atoms: C_13  and  C_14
REMARK    5  A    between atoms: C_14  and  C_16
REMARK                            x       y       z     vdW  Elec       q    Type
REMARK                         _______ _______ _______ _____ _____    ______ ____
ROOT
ATOM      1  C   UNL     1       6.748  -2.001   3.406  0.00  0.00    +0.046 C 
ATOM      2  C   UNL     1       5.382  -1.837   2.792  0.00  0.00    -0.018 A 
ATOM      3  C   UNL     1       5.011  -0.638   2.261  0.00  0.00    +0.016 A 
ATOM      4  C   UNL     1       3.725  -0.525   1.697  0.00  0.00    +0.004 A 
ATOM      5  C   UNL     1       3.281   0.682   1.134  0.00  0.00    +0.059 A 
ATOM      6  C   UNL     1       2.030   0.760   0.595  0.00  0.00    +0.167 A 
ATOM      7  C   UNL     1       1.179  -0.358   0.597  0.00  0.00    +0.168 A 
ATOM      8  C   UNL     1       1.587  -1.544   1.138  0.00  0.00    +0.078 A 
ATOM      9  C   UNL     1       2.869  -1.654   1.700  0.00  0.00    +0.076 A 
ATOM     10  N   UNL     1       3.288  -2.807   2.237  0.00  0.00    -0.240 NA
ATOM     11  C   UNL     1       4.489  -2.918   2.767  0.00  0.00    +0.101 A 
ATOM     12  O   UNL     1       0.002  -0.004   0.002  0.00  0.00    -0.453 OA
ATOM     13  C   UNL     1      -0.017   1.435   0.010  0.00  0.00    +0.466 C 
ATOM     14  O   UNL     1       1.375   1.800  -0.001  0.00  0.00    -0.453 OA
ENDROOT
BRANCH  11  15
ATOM     15  S   UNL     1       4.986  -4.460   3.459  0.00  0.00    -0.098 S 
BRANCH  15  16
ATOM     16  C   UNL     1       3.493  -5.437   3.152  0.00  0.00    +0.155 C 
BRANCH  16  17
ATOM     17  C   UNL     1       3.692  -6.836   3.676  0.00  0.00    +0.175 C 
ATOM     18  O   UNL     1       4.740  -7.143   4.205  0.00  0.00    -0.291 OA
BRANCH  17  19
ATOM     19  C   UNL     1       2.654  -7.793   3.552  0.00  0.00    +0.043 A 
ATOM     20  C   UNL     1       1.412  -7.599   2.986  0.00  0.00    +0.095 A 
ATOM     21  N   UNL     1       0.703  -8.742   3.049  0.00  0.00    -0.360 N 
ATOM     22  H   UNL     1      -0.200  -8.850   2.711  0.00  0.00    +0.165 HD
ATOM     23  C   UNL     1       1.435  -9.738   3.664  0.00  0.00    +0.047 A 
ATOM     24  C   UNL     1       2.684  -9.197   4.007  0.00  0.00    +0.010 A 
ATOM     25  C   UNL     1       3.635  -9.986   4.647  0.00  0.00    +0.011 A 
ATOM     26  C   UNL     1       3.345 -11.300   4.943  0.00  0.00    +0.001 A 
ATOM     27  C   UNL     1       2.111 -11.836   4.605  0.00  0.00    +0.002 A 
ATOM     28  C   UNL     1       1.160 -11.066   3.971  0.00  0.00    +0.026 A 
ENDBRANCH  17  19
ENDBRANCH  16  17
ENDBRANCH  15  16
ENDBRANCH  11  15
TORSDOF 4
