REMARK  Name = ZINC15180297
REMARK  7 active torsions:
REMARK  status: ('A' for Active; 'I' for Inactive)
REMARK    1  A    between atoms: C_3  and  C_6
REMARK    2  A    between atoms: C_9  and  C_26
REMARK    3  A    between atoms: C_12  and  C_14
REMARK    4  A    between atoms: C_14  and  O_15
REMARK    5  A    between atoms: O_15  and  C_16
REMARK    6  A    between atoms: C_16  and  C_18
REMARK    7  A    between atoms: C_22  and  N_24
REMARK                            x       y       z     vdW  Elec       q    Type
REMARK                         _______ _______ _______ _____ _____    ______ ____
ROOT
ATOM      1  C   UNL     1      -3.290  -6.586  -0.003  0.00  0.00    +0.173 C 
ATOM      2  C   UNL     1      -4.769  -7.023   0.008  0.00  0.00    +0.090 C 
ATOM      3  C   UNL     1      -5.534  -5.719   0.022  0.00  0.00    +0.075 C 
ATOM      4  N   UNL     1      -4.703  -4.731   0.026  0.00  0.00    -0.180 NA
ATOM      5  N   UNL     1      -3.364  -5.116   0.005  0.00  0.00    -0.179 N 
ATOM      6  C   UNL     1      -2.308  -4.279   0.000  0.00  0.00    +0.273 C 
ATOM      7  O   UNL     1      -1.179  -4.725  -0.013  0.00  0.00    -0.270 OA
ENDROOT
BRANCH   1  10
ATOM      8  C   UNL     1      -1.344  -8.215  -2.675  0.00  0.00    +0.041 A 
ATOM      9  C   UNL     1      -1.745  -8.109  -1.323  0.00  0.00    +0.046 A 
ATOM     10  C   UNL     1      -2.602  -7.075  -1.252  0.00  0.00    +0.128 A 
ATOM     11  O   UNL     1      -2.746  -6.556  -2.482  0.00  0.00    -0.466 OA
ATOM     12  C   UNL     1      -1.981  -7.240  -3.348  0.00  0.00    +0.195 A 
ENDBRANCH   1  10
BRANCH   3  13
ATOM     13  C   UNL     1      -6.995  -5.596   0.036  0.00  0.00    +0.035 A 
ATOM     14  C   UNL     1      -7.775  -4.452   0.049  0.00  0.00    +0.017 A 
ATOM     15  C   UNL     1      -9.143  -4.593   0.061  0.00  0.00    +0.008 A 
ATOM     16  C   UNL     1      -9.683  -5.840   0.059  0.00  0.00    +0.046 A 
ATOM     17  S   UNL     1      -8.234  -6.882   0.033  0.00  0.00    -0.095 S 
ENDBRANCH   3  13
BRANCH   6  18
ATOM     18  C   UNL     1      -2.528  -2.788   0.010  0.00  0.00    +0.330 C 
BRANCH  18  19
ATOM     19  O   UNL     1      -1.245  -2.109   0.002  0.00  0.00    -0.452 OA
BRANCH  19  20
ATOM     20  C   UNL     1      -1.265  -0.762   0.010  0.00  0.00    +0.340 C 
ATOM     21  O   UNL     1      -2.326  -0.171   0.022  0.00  0.00    -0.245 OA
BRANCH  20  22
ATOM     22  C   UNL     1       0.002  -0.004   0.002  0.00  0.00    +0.061 A 
ATOM     23  C   UNL     1       1.224  -0.681  -0.013  0.00  0.00    +0.016 A 
ATOM     24  C   UNL     1       2.406   0.029  -0.020  0.00  0.00    +0.022 A 
ATOM     25  C   UNL     1       2.388   1.412  -0.012  0.00  0.00    +0.062 A 
ATOM     26  C   UNL     1       1.176   2.096   0.002  0.00  0.00    +0.044 A 
ATOM     27  C   UNL     1      -0.017   1.391   0.010  0.00  0.00    +0.039 A 
ATOM     28 CL   UNL     1       3.881   2.297  -0.021  0.00  0.00    -0.082 Cl
BRANCH  26  29
ATOM     29  N   UNL     1       1.163   3.494   0.009  0.00  0.00    -0.357 N 
ATOM     30  H   UNL     1       0.318   3.971   0.020  0.00  0.00    +0.142 HD
ATOM     31  H   UNL     1       1.998   3.987   0.004  0.00  0.00    +0.142 HD
ENDBRANCH  26  29
ENDBRANCH  20  22
ENDBRANCH  19  20
ENDBRANCH  18  19
ENDBRANCH   6  18
TORSDOF 7
