REMARK  Name = ZINC38610141
REMARK  5 active torsions:
REMARK  status: ('A' for Active; 'I' for Inactive)
REMARK    1  A    between atoms: C_4  and  C_7
REMARK    2  A    between atoms: C_10  and  C_26
REMARK    3  A    between atoms: N_17  and  C_18
REMARK    4  A    between atoms: C_18  and  C_19
REMARK    5  A    between atoms: C_31  and  O_32
REMARK                            x       y       z     vdW  Elec       q    Type
REMARK                         _______ _______ _______ _____ _____    ______ ____
ROOT
ATOM      1  C   UNL     1       3.675  -0.710  -0.043  0.00  0.00    +0.142 C 
ATOM      2  C   UNL     1       3.944  -1.293  -1.403  0.00  0.00    +0.035 A 
ATOM      3  C   UNL     1       4.142  -1.059  -2.769  0.00  0.00    +0.102 A 
ATOM      4  N   UNL     1       4.337  -2.229  -3.345  0.00  0.00    -0.173 NA
ATOM      5  N   UNL     1       4.281  -3.178  -2.479  0.00  0.00    -0.272 N 
ATOM      6  H   UNL     1       4.396  -4.120  -2.678  0.00  0.00    +0.189 HD
ATOM      7  C   UNL     1       4.037  -2.662  -1.238  0.00  0.00    +0.126 A 
ATOM      8  C   UNL     1       3.837  -2.975   0.181  0.00  0.00    +0.266 C 
ATOM      9  O   UNL     1       3.860  -4.095   0.654  0.00  0.00    -0.268 OA
ATOM     10  N   UNL     1       3.627  -1.847   0.885  0.00  0.00    -0.281 N 
ENDROOT
BRANCH   1  14
ATOM     11  C   UNL     1      -0.066   1.352  -0.042  0.00  0.00    +0.000 A 
ATOM     12  C   UNL     1       1.109   2.051   0.164  0.00  0.00    +0.000 A 
ATOM     13  C   UNL     1       2.320   1.384   0.164  0.00  0.00    +0.006 A 
ATOM     14  C   UNL     1       2.356   0.017  -0.042  0.00  0.00    -0.022 A 
ATOM     15  C   UNL     1       1.181  -0.682  -0.247  0.00  0.00    +0.006 A 
ATOM     16  C   UNL     1      -0.030  -0.015  -0.248  0.00  0.00    +0.000 A 
ENDBRANCH   1  14
BRANCH   3  17
ATOM     17  C   UNL     1       4.134   0.263  -3.444  0.00  0.00    +0.044 A 
ATOM     18  C   UNL     1       4.041   1.431  -2.692  0.00  0.00    +0.014 A 
ATOM     19  C   UNL     1       4.034   2.658  -3.325  0.00  0.00    +0.001 A 
ATOM     20  C   UNL     1       4.119   2.731  -4.704  0.00  0.00    +0.004 A 
ATOM     21  C   UNL     1       4.212   1.578  -5.459  0.00  0.00    +0.046 A 
ATOM     22  C   UNL     1       4.226   0.340  -4.836  0.00  0.00    +0.126 A 
BRANCH  22  23
ATOM     23  O   UNL     1       4.324  -0.795  -5.577  0.00  0.00    -0.506 OA
ATOM     24  H   UNL     1       3.472  -1.160  -5.852  0.00  0.00    +0.292 HD
ENDBRANCH  22  23
ENDBRANCH   3  17
BRANCH  10  25
ATOM     25  C   UNL     1       3.390  -1.767   2.329  0.00  0.00    +0.144 C 
BRANCH  25  26
ATOM     26  C   UNL     1       1.911  -1.861   2.601  0.00  0.00    -0.030 A 
ATOM     27  C   UNL     1       1.140  -0.714   2.639  0.00  0.00    +0.006 A 
ATOM     28  C   UNL     1      -0.216  -0.800   2.889  0.00  0.00    +0.020 A 
ATOM     29  C   UNL     1      -0.803  -2.035   3.101  0.00  0.00    +0.041 A 
ATOM     30  C   UNL     1      -0.032  -3.183   3.063  0.00  0.00    +0.020 A 
ATOM     31  C   UNL     1       1.324  -3.096   2.807  0.00  0.00    +0.006 A 
ATOM     32 CL   UNL     1      -2.507  -2.144   3.415  0.00  0.00    -0.084 Cl
ENDBRANCH  25  26
ENDBRANCH  10  25
TORSDOF 5
