REMARK  Name = ZINC26650111
REMARK  8 active torsions:
REMARK  status: ('A' for Active; 'I' for Inactive)
REMARK    1  A    between atoms: C_1  and  C_2
REMARK    2  A    between atoms: C_2  and  C_3
REMARK    3  A    between atoms: C_2  and  N_4
REMARK    4  A    between atoms: N_4  and  C_5
REMARK    5  A    between atoms: C_10  and  N_11
REMARK    6  A    between atoms: C_17  and  C_19
REMARK    7  A    between atoms: C_22  and  C_25
REMARK    8  A    between atoms: N_27  and  C_28
REMARK                            x       y       z     vdW  Elec       q    Type
REMARK                         _______ _______ _______ _____ _____    ______ ____
ROOT
ATOM      1  N   UNL     1       2.409  10.179  -0.404  0.00  0.00    -0.312 N 
ATOM      2  C   UNL     1       1.328  11.172  -0.337  0.00  0.00    +0.125 C 
ATOM      3  C   UNL     1       0.403  10.836   0.838  0.00  0.00    +0.127 C 
ATOM      4  N   UNL     1      -0.041   9.441   0.700  0.00  0.00    -0.293 N 
ATOM      5  C   UNL     1       0.980   8.402   0.496  0.00  0.00    +0.127 C 
ATOM      6  C   UNL     1       1.881   8.834  -0.671  0.00  0.00    +0.125 C 
ATOM      7  C   UNL     1      -1.349   9.123   0.763  0.00  0.00    +0.265 C 
ATOM      8  O   UNL     1      -2.188  10.001   0.789  0.00  0.00    -0.268 OA
ENDROOT
BRANCH   1  14
ATOM      9  C   UNL     1       4.703  10.214  -1.152  0.00  0.00    +0.066 A 
ATOM     10  C   UNL     1       5.637  10.582  -2.111  0.00  0.00    +0.028 A 
ATOM     11  C   UNL     1       5.195  11.261  -3.239  0.00  0.00    +0.019 A 
ATOM     12  C   UNL     1       3.852  11.549  -3.373  0.00  0.00    +0.084 A 
ATOM     13  N   UNL     1       2.983  11.184  -2.448  0.00  0.00    -0.348 N 
ATOM     14  C   UNL     1       3.360  10.540  -1.356  0.00  0.00    +0.120 A 
ATOM     15  H   UNL     1       1.915  11.414  -2.576  0.00  0.00    +0.167 HD
BRANCH   9  16
ATOM     16  N   UNL     1       5.101   9.528   0.002  0.00  0.00    -0.339 N 
ATOM     17  H   UNL     1       4.344   9.146   0.703  0.00  0.00    +0.146 HD
BRANCH  16  19
ATOM     18  C   UNL     1       6.734   9.139   1.780  0.00  0.00    +0.027 C 
ATOM     19  C   UNL     1       6.524   9.318   0.275  0.00  0.00    +0.064 C 
ATOM     20  C   UNL     1       7.005   8.064  -0.460  0.00  0.00    +0.027 C 
ENDBRANCH  16  19
ENDBRANCH   9  16
ENDBRANCH   1  14
BRANCH   7  21
ATOM     21  C   UNL     1      -1.765   7.699   0.800  0.00  0.00    +0.126 A 
ATOM     22  C   UNL     1      -3.111   7.372   0.650  0.00  0.00    +0.034 A 
ATOM     23  C   UNL     1      -3.489   6.041   0.681  0.00  0.00    +0.017 A 
ATOM     24  C   UNL     1      -2.498   5.072   0.874  0.00  0.00    +0.055 A 
ATOM     25  C   UNL     1      -1.170   5.480   1.016  0.00  0.00    +0.124 A 
ATOM     26  N   UNL     1      -0.850   6.754   0.976  0.00  0.00    -0.250 NA
BRANCH  24  27
ATOM     27  C   UNL     1      -2.852   3.636   0.919  0.00  0.00    +0.248 C 
ATOM     28  O   UNL     1      -4.010   3.291   0.794  0.00  0.00    -0.270 OA
ATOM     29  N   UNL     1      -1.889   2.711   1.100  0.00  0.00    -0.276 N 
ATOM     30  H   UNL     1      -0.840   3.023   1.213  0.00  0.00    +0.152 HD
BRANCH  29  31
ATOM     31  C   UNL     1      -2.238   1.289   1.145  0.00  0.00    +0.263 C 
ATOM     32  C   UNL     1      -1.410   0.567   2.230  0.00  0.00    +0.073 C 
ATOM     33  C   UNL     1      -0.985  -0.743   1.532  0.00  0.00    +0.087 C 
ATOM     34  C   UNL     1      -1.601  -0.659   0.150  0.00  0.00    +0.144 C 
ATOM     35  S   UNL     1      -1.881  -1.890  -0.830  0.00  0.00    -0.017 S 
ATOM     36  O   UNL     1      -1.873   0.636  -0.108  0.00  0.00    -0.468 OA
ENDBRANCH  29  31
ENDBRANCH  24  27
ENDBRANCH   7  21
TORSDOF 6
