REMARK  Name = ZINC15841704
REMARK  5 active torsions:
REMARK  status: ('A' for Active; 'I' for Inactive)
REMARK    1  A    between atoms: C_1  and  C_2
REMARK    2  A    between atoms: C_2  and  C_3
REMARK    3  A    between atoms: C_3  and  C_27
REMARK    4  A    between atoms: N_15  and  C_20
REMARK    5  A    between atoms: C_27  and  C_28
REMARK                            x       y       z     vdW  Elec       q    Type
REMARK                         _______ _______ _______ _____ _____    ______ ____
ROOT
ATOM      1  C   UNL     1       0.697  -0.767   1.203  0.00  0.00    +0.006 C 
ATOM      2  C   UNL     1       2.079  -0.196   0.897  0.00  0.00    +0.047 C 
ATOM      3  C   UNL     1       2.730  -0.965  -0.221  0.00  0.00    -0.037 A 
ATOM      4  C   UNL     1       3.557  -0.325  -1.120  0.00  0.00    +0.004 A 
ATOM      5  C   UNL     1       4.187  -1.047  -2.119  0.00  0.00    +0.000 A 
ATOM      6  C   UNL     1       3.991  -2.413  -2.225  0.00  0.00    +0.001 A 
ATOM      7  C   UNL     1       3.159  -3.065  -1.338  0.00  0.00    +0.010 A 
ATOM      8  C   UNL     1       2.517  -2.341  -0.334  0.00  0.00    +0.002 A 
ATOM      9  C   UNL     1       1.608  -3.009   0.616  0.00  0.00    +0.060 A 
ATOM     10  C   UNL     1       0.763  -2.258   1.379  0.00  0.00    +0.048 A 
ATOM     11  C   UNL     1      -0.049  -2.902   2.334  0.00  0.00    +0.265 A 
ATOM     12  O   UNL     1      -0.796  -2.252   3.044  0.00  0.00    -0.267 OA
ATOM     13  N   UNL     1       0.008  -4.244   2.455  0.00  0.00    -0.226 N 
ATOM     14  C   UNL     1       0.827  -4.969   1.672  0.00  0.00    +0.334 A 
ATOM     15  O   UNL     1       0.851  -6.179   1.790  0.00  0.00    -0.246 OA
ATOM     16  N   UNL     1       1.622  -4.377   0.760  0.00  0.00    -0.306 N 
ATOM     17  H   UNL     1       2.205  -4.916   0.204  0.00  0.00    +0.170 HD
ENDROOT
BRANCH  13  18
ATOM     18  C   UNL     1      -0.794  -4.890   3.406  0.00  0.00    +0.089 A 
ATOM     19  C   UNL     1      -2.071  -5.316   3.064  0.00  0.00    +0.029 A 
ATOM     20  C   UNL     1      -2.858  -5.955   4.002  0.00  0.00    +0.002 A 
ATOM     21  C   UNL     1      -2.380  -6.163   5.283  0.00  0.00    +0.003 A 
ATOM     22  C   UNL     1      -1.112  -5.737   5.629  0.00  0.00    +0.040 A 
ATOM     23  C   UNL     1      -0.316  -5.100   4.694  0.00  0.00    +0.147 A 
ATOM     24  F   UNL     1       0.923  -4.682   5.032  0.00  0.00    -0.203 F 
ENDBRANCH  13  18
BRANCH   1  26
ATOM     25  C   UNL     1      -0.426   1.079  -0.052  0.00  0.00    +0.005 C 
ATOM     26  C   UNL     1      -0.251  -0.438   0.047  0.00  0.00    +0.009 C 
ENDBRANCH   1  26
BRANCH   1  27
ATOM     27  C   UNL     1       0.163  -0.131   2.488  0.00  0.00    +0.009 C 
ATOM     28  C   UNL     1       1.063  -0.522   3.662  0.00  0.00    +0.005 C 
ENDBRANCH   1  27
TORSDOF 3
