REMARK  Name = ZINC22580351
REMARK  9 active torsions:
REMARK  status: ('A' for Active; 'I' for Inactive)
REMARK    1  A    between atoms: C_1  and  C_2
REMARK    2  A    between atoms: C_6  and  C_31
REMARK    3  A    between atoms: C_7  and  N_8
REMARK    4  A    between atoms: C_18  and  S_19
REMARK    5  A    between atoms: S_19  and  C_20
REMARK    6  A    between atoms: C_20  and  C_22
REMARK    7  A    between atoms: C_20  and  C_25
REMARK    8  A    between atoms: C_22  and  C_23
REMARK    9  A    between atoms: C_22  and  C_24
REMARK                            x       y       z     vdW  Elec       q    Type
REMARK                         _______ _______ _______ _____ _____    ______ ____
ROOT
ATOM      1  N   UNL     1       3.532  -5.323   1.154  0.00  0.00    -0.255 N 
ATOM      2  C   UNL     1       3.311  -6.649   1.311  0.00  0.00    +0.267 A 
ATOM      3  O   UNL     1       4.176  -7.386   1.746  0.00  0.00    -0.267 OA
ATOM      4  C   UNL     1       1.990  -7.168   0.932  0.00  0.00    +0.065 A 
ATOM      5  C   UNL     1       1.667  -8.519   1.050  0.00  0.00    +0.015 A 
ATOM      6  C   UNL     1       0.422  -8.948   0.681  0.00  0.00    +0.001 A 
ATOM      7  C   UNL     1      -0.522  -8.054   0.192  0.00  0.00    +0.002 A 
ATOM      8  C   UNL     1      -0.232  -6.725   0.065  0.00  0.00    +0.028 A 
ATOM      9  C   UNL     1       1.032  -6.255   0.433  0.00  0.00    +0.079 A 
ATOM     10  N   UNL     1       1.362  -4.947   0.324  0.00  0.00    -0.223 NA
ATOM     11  C   UNL     1       2.547  -4.508   0.669  0.00  0.00    +0.177 A 
ENDROOT
BRANCH   1  18
ATOM     12  C   UNL     1       5.550  -5.215  -0.850  0.00  0.00    +0.046 C 
ATOM     13  C   UNL     1       5.790  -4.710   0.549  0.00  0.00    -0.026 A 
ATOM     14  C   UNL     1       7.015  -4.170   0.889  0.00  0.00    +0.005 A 
ATOM     15  C   UNL     1       7.237  -3.711   2.174  0.00  0.00    +0.001 A 
ATOM     16  C   UNL     1       6.233  -3.786   3.122  0.00  0.00    +0.005 A 
ATOM     17  C   UNL     1       5.004  -4.320   2.787  0.00  0.00    -0.026 A 
ATOM     18  C   UNL     1       4.777  -4.781   1.497  0.00  0.00    +0.058 A 
ATOM     19  C   UNL     1       3.910  -4.402   3.820  0.00  0.00    +0.046 C 
ENDBRANCH   1  18
BRANCH  11  20
ATOM     20  S   UNL     1       2.890  -2.788   0.494  0.00  0.00    -0.074 S 
BRANCH  20  21
ATOM     21  C   UNL     1       1.258  -2.192  -0.012  0.00  0.00    +0.143 C 
BRANCH  21  22
ATOM     22  C   UNL     1       0.300  -2.308   1.145  0.00  0.00    +0.234 C 
ATOM     23  O   UNL     1       0.720  -2.303   2.282  0.00  0.00    -0.274 OA
ATOM     24  N   UNL     1      -1.024  -2.416   0.915  0.00  0.00    -0.239 N 
ATOM     25  C   UNL     1      -1.881  -2.519   1.950  0.00  0.00    +0.303 C 
ATOM     26  O   UNL     1      -1.460  -2.515   3.091  0.00  0.00    -0.253 OA
ATOM     27  N   UNL     1      -3.205  -2.623   1.721  0.00  0.00    -0.313 N 
ATOM     28  H   UNL     1      -1.405  -2.421  -0.117  0.00  0.00    +0.159 HD
ATOM     29  H   UNL     1      -3.905  -2.707   2.566  0.00  0.00    +0.146 HD
ATOM     30  H   UNL     1      -3.586  -2.622   0.689  0.00  0.00    +0.146 HD
ENDBRANCH  21  22
BRANCH  21  31
ATOM     31  C   UNL     1       1.362  -0.728  -0.445  0.00  0.00    +0.005 C 
ATOM     32  C   UNL     1       1.927   0.105   0.708  0.00  0.00    +0.009 C 
ATOM     33  C   UNL     1       2.290  -0.618  -1.656  0.00  0.00    +0.009 C 
ENDBRANCH  21  31
ENDBRANCH  20  21
ENDBRANCH  11  20
TORSDOF 5
