REMARK  Name = ZINC09196967
REMARK  5 active torsions:
REMARK  status: ('A' for Active; 'I' for Inactive)
REMARK    1  A    between atoms: N_10  and  S_11
REMARK    2  A    between atoms: S_11  and  C_14
REMARK    3  A    between atoms: C_17  and  N_20
REMARK    4  A    between atoms: C_21  and  C_23
REMARK    5  A    between atoms: N_28  and  C_30
REMARK                            x       y       z     vdW  Elec       q    Type
REMARK                         _______ _______ _______ _____ _____    ______ ____
ROOT
ATOM      1  C   UNL     1      -0.009   1.758  -0.011  0.00  0.00    +0.109 A 
ATOM      2  C   UNL     1      -1.195   2.426   0.233  0.00  0.00    +0.030 A 
ATOM      3  C   UNL     1      -1.219   3.806   0.259  0.00  0.00    +0.025 A 
ATOM      4  C   UNL     1      -0.052   4.524   0.028  0.00  0.00    +0.034 A 
ATOM      5  C   UNL     1       1.136   3.850  -0.223  0.00  0.00    +0.025 A 
ATOM      6  C   UNL     1       1.154   2.469  -0.242  0.00  0.00    +0.030 A 
ENDROOT
BRANCH   4   7
ATOM      7  N   UNL     1      -0.074   5.923   0.047  0.00  0.00    -0.285 N 
ATOM      8  C   UNL     1       0.979   6.607   0.535  0.00  0.00    +0.222 C 
ATOM      9  O   UNL     1       1.979   6.014   0.882  0.00  0.00    -0.275 OA
ATOM     10  H   UNL     1      -0.848   6.401  -0.291  0.00  0.00    +0.155 HD
BRANCH   8  11
ATOM     11  C   UNL     1       0.915   8.108   0.651  0.00  0.00    +0.101 C 
ATOM     12  C   UNL     1      -0.170   8.539   1.665  0.00  0.00    +0.110 C 
ATOM     13  C   UNL     1       0.430   9.741   2.361  0.00  0.00    +0.217 C 
ATOM     14  O   UNL     1      -0.194  10.543   3.023  0.00  0.00    -0.276 OA
ATOM     15  N   UNL     1       1.755   9.791   2.138  0.00  0.00    -0.298 N 
ATOM     16  C   UNL     1       2.199   8.667   1.304  0.00  0.00    +0.121 C 
BRANCH  15  17
ATOM     17  C   UNL     1       2.642  10.834   2.660  0.00  0.00    +0.076 C 
ATOM     18  C   UNL     1       2.587  10.832   4.189  0.00  0.00    +0.022 C 
ATOM     19  C   UNL     1       3.514  11.921   4.734  0.00  0.00    +0.002 C 
ATOM     20  C   UNL     1       3.061  13.285   4.209  0.00  0.00    +0.000 C 
ATOM     21  C   UNL     1       3.116  13.287   2.680  0.00  0.00    +0.002 C 
ATOM     22  C   UNL     1       2.189  12.198   2.135  0.00  0.00    +0.022 C 
ENDBRANCH  15  17
ENDBRANCH   8  11
ENDBRANCH   4   7
BRANCH   1  23
ATOM     23  S   UNL     1       0.018  -0.004  -0.037  0.00  0.00    +0.075 S 
ATOM     24  O   UNL     1      -1.306  -0.426  -0.333  0.00  0.00    -0.150 OA
ATOM     25  O   UNL     1       1.134  -0.381  -0.832  0.00  0.00    -0.150 OA
BRANCH  23  35
ATOM     26  C   UNL     1      -2.760  -0.910   4.255  0.00  0.00    +0.000 A 
ATOM     27  C   UNL     1      -2.966  -0.229   3.069  0.00  0.00    +0.002 A 
ATOM     28  C   UNL     1      -1.934  -0.099   2.162  0.00  0.00    +0.025 A 
ATOM     29  C   UNL     1      -0.688  -0.651   2.441  0.00  0.00    +0.054 A 
ATOM     30  C   UNL     1      -0.481  -1.330   3.631  0.00  0.00    -0.025 A 
ATOM     31  C   UNL     1      -1.523  -1.458   4.535  0.00  0.00    +0.005 A 
ATOM     32  C   UNL     1       0.857  -1.931   3.972  0.00  0.00    +0.038 C 
ATOM     33  C   UNL     1       1.689  -2.135   2.706  0.00  0.00    +0.025 C 
ATOM     34  C   UNL     1       1.719  -0.827   1.914  0.00  0.00    +0.132 C 
ATOM     35  N   UNL     1       0.343  -0.511   1.506  0.00  0.00    -0.203 N 
ENDBRANCH  23  35
ENDBRANCH   1  23
TORSDOF 5
