REMARK  Name = ZINC38578179
REMARK  4 active torsions:
REMARK  status: ('A' for Active; 'I' for Inactive)
REMARK    1  A    between atoms: C_1  and  C_2
REMARK    2  A    between atoms: C_4  and  C_8
REMARK    3  A    between atoms: N_10  and  N_11
REMARK    4  A    between atoms: C_12  and  C_13
REMARK                            x       y       z     vdW  Elec       q    Type
REMARK                         _______ _______ _______ _____ _____    ______ ____
ROOT
ATOM      1  C   UNL     1      -4.194  -5.421   3.718  0.00  0.00    +0.010 A 
ATOM      2  C   UNL     1      -3.278  -5.650   4.765  0.00  0.00    -0.009 A 
ATOM      3  C   UNL     1      -1.952  -5.189   4.683  0.00  0.00    +0.009 A 
ATOM      4  C   UNL     1      -1.093  -5.427   5.711  0.00  0.00    +0.001 A 
ATOM      5  C   UNL     1      -1.492  -6.120   6.852  0.00  0.00    +0.001 A 
ATOM      6  C   UNL     1      -2.758  -6.592   6.994  0.00  0.00    +0.008 A 
ATOM      7  C   UNL     1      -3.700  -6.378   5.963  0.00  0.00    -0.017 A 
ATOM      8  C   UNL     1      -5.008  -6.849   6.078  0.00  0.00    +0.017 A 
ATOM      9  C   UNL     1      -5.921  -6.627   5.047  0.00  0.00    -0.017 A 
ATOM     10  C   UNL     1      -5.516  -5.896   3.844  0.00  0.00    -0.009 A 
ATOM     11  C   UNL     1      -6.463  -5.684   2.828  0.00  0.00    +0.009 A 
ATOM     12  C   UNL     1      -7.730  -6.155   2.981  0.00  0.00    +0.001 A 
ATOM     13  C   UNL     1      -8.120  -6.847   4.126  0.00  0.00    +0.001 A 
ATOM     14  C   UNL     1      -7.250  -7.094   5.140  0.00  0.00    +0.008 A 
ENDROOT
BRANCH   1  16
ATOM     15  N   UNL     1      -4.598  -4.577   1.510  0.00  0.00    -0.188 NA
ATOM     16  C   UNL     1      -3.780  -4.692   2.516  0.00  0.00    +0.139 C 
BRANCH  15  19
ATOM     17  C   UNL     1      -5.049  -3.761  -0.680  0.00  0.00    +0.262 C 
ATOM     18  O   UNL     1      -6.154  -4.256  -0.622  0.00  0.00    -0.271 OA
ATOM     19  N   UNL     1      -4.201  -3.881   0.361  0.00  0.00    -0.205 N 
ATOM     20  H   UNL     1      -3.317  -3.484   0.315  0.00  0.00    +0.177 HD
BRANCH  17  24
ATOM     21  C   UNL     1      -3.983  -4.755  -5.149  0.00  0.00    +0.067 C 
ATOM     22  C   UNL     1      -4.436  -3.981  -3.939  0.00  0.00    +0.059 C 
ATOM     23  C   UNL     1      -3.748  -3.885  -2.799  0.00  0.00    +0.035 C 
ATOM     24  C   UNL     1      -4.622  -3.012  -1.916  0.00  0.00    +0.240 C 
ATOM     25  N   UNL     1      -5.780  -2.723  -2.780  0.00  0.00    -0.170 NA
ATOM     26  N   UNL     1      -5.592  -3.284  -3.862  0.00  0.00    -0.159 NA
ENDBRANCH  17  24
ENDBRANCH  15  19
ENDBRANCH   1  16
TORSDOF 3
