REMARK  Name = ZINC35034909
REMARK  8 active torsions:
REMARK  status: ('A' for Active; 'I' for Inactive)
REMARK    1  A    between atoms: C_1  and  C_2
REMARK    2  A    between atoms: C_2  and  C_3
REMARK    3  A    between atoms: C_3  and  C_5
REMARK    4  A    between atoms: C_3  and  N_23
REMARK    5  A    between atoms: N_15  and  C_16
REMARK    6  A    between atoms: C_16  and  C_17
REMARK    7  A    between atoms: N_31  and  C_32
REMARK    8  A    between atoms: C_32  and  C_33
REMARK                            x       y       z     vdW  Elec       q    Type
REMARK                         _______ _______ _______ _____ _____    ______ ____
ROOT
ATOM      1  C   UNL     1       0.524  -2.115  -1.135  0.00  0.00    +0.100 A 
ATOM      2  N   UNL     1      -0.446  -2.823  -1.629  0.00  0.00    -0.235 NA
ATOM      3  C   UNL     1      -0.314  -4.156  -1.847  0.00  0.00    +0.078 A 
ATOM      4  C   UNL     1      -1.357  -4.917  -2.379  0.00  0.00    +0.028 A 
ATOM      5  C   UNL     1      -1.179  -6.267  -2.584  0.00  0.00    +0.002 A 
ATOM      6  C   UNL     1       0.025  -6.882  -2.268  0.00  0.00    +0.001 A 
ATOM      7  C   UNL     1       1.069  -6.152  -1.743  0.00  0.00    +0.015 A 
ATOM      8  C   UNL     1       0.909  -4.785  -1.528  0.00  0.00    +0.065 A 
ATOM      9  C   UNL     1       1.987  -3.954  -0.970  0.00  0.00    +0.262 A 
ATOM     10  O   UNL     1       3.066  -4.434  -0.673  0.00  0.00    -0.267 OA
ATOM     11  N   UNL     1       1.735  -2.635  -0.804  0.00  0.00    -0.293 N 
ENDROOT
BRANCH   1  12
ATOM     12  C   UNL     1       0.297  -0.641  -0.924  0.00  0.00    -0.001 C 
BRANCH  12  13
ATOM     13  N   UNL     1      -0.571  -0.121  -1.989  0.00  0.00    +0.388 N 
ATOM     14  C   UNL     1       0.089  -0.304  -3.288  0.00  0.00    -0.058 C 
ATOM     15  C   UNL     1      -0.862   0.132  -4.408  0.00  0.00    +0.091 C 
ATOM     16  N   UNL     1      -1.300   1.510  -4.138  0.00  0.00    -0.289 N 
ATOM     17  C   UNL     1      -1.825   1.821  -2.799  0.00  0.00    +0.091 C 
ATOM     18  C   UNL     1      -0.829   1.305  -1.755  0.00  0.00    -0.058 C 
ATOM     19  C   UNL     1      -1.222   2.461  -5.090  0.00  0.00    +0.302 C 
ATOM     20  O   UNL     1      -0.869   2.167  -6.215  0.00  0.00    -0.253 OA
ATOM     21  N   UNL     1      -1.536   3.738  -4.794  0.00  0.00    -0.300 N 
ATOM     22  H   UNL     1      -1.750   3.986  -3.880  0.00  0.00    +0.150 HD
ATOM     23  H   UNL     1      -1.445  -0.625  -1.984  0.00  0.00    -0.081 HD
BRANCH  21  24
ATOM     24  C   UNL     1      -1.556   4.752  -5.851  0.00  0.00    +0.102 C 
ATOM     25  C   UNL     1      -1.939   6.106  -5.252  0.00  0.00    +0.024 C 
ENDBRANCH  21  24
ENDBRANCH  12  13
BRANCH  12  27
ATOM     26  C   UNL     1      -1.703  -1.170   0.477  0.00  0.00    +0.002 C 
ATOM     27  C   UNL     1      -0.371  -0.417   0.434  0.00  0.00    -0.011 C 
ENDBRANCH  12  27
ENDBRANCH   1  12
BRANCH  11  28
ATOM     28  C   UNL     1       2.776  -1.760  -0.259  0.00  0.00    +0.161 C 
BRANCH  28  29
ATOM     29  C   UNL     1       3.702  -1.329  -1.366  0.00  0.00    -0.028 A 
ATOM     30  C   UNL     1       4.786  -2.117  -1.707  0.00  0.00    +0.005 A 
ATOM     31  C   UNL     1       5.636  -1.722  -2.723  0.00  0.00    +0.000 A 
ATOM     32  C   UNL     1       5.402  -0.539  -3.399  0.00  0.00    +0.000 A 
ATOM     33  C   UNL     1       4.317   0.248  -3.059  0.00  0.00    +0.000 A 
ATOM     34  C   UNL     1       3.465  -0.149  -2.046  0.00  0.00    +0.005 A 
ENDBRANCH  28  29
ENDBRANCH  11  28
TORSDOF 6
