REMARK  Name = ZINC20876707
REMARK  11 active torsions:
REMARK  status: ('A' for Active; 'I' for Inactive)
REMARK    1  A    between atoms: C_1  and  C_2
REMARK    2  A    between atoms: C_2  and  C_4
REMARK    3  A    between atoms: C_2  and  O_27
REMARK    4  A    between atoms: C_4  and  N_5
REMARK    5  A    between atoms: N_5  and  C_6
REMARK    6  A    between atoms: C_6  and  C_7
REMARK    7  A    between atoms: C_9  and  O_25
REMARK    8  A    between atoms: C_10  and  O_14
REMARK    9  A    between atoms: O_14  and  C_15
REMARK   10  A    between atoms: C_15  and  C_16
REMARK   11  A    between atoms: O_25  and  C_26
REMARK                            x       y       z     vdW  Elec       q    Type
REMARK                         _______ _______ _______ _____ _____    ______ ____
ROOT
ATOM      1  C   UNL     1      -3.904  -0.028   0.567  0.00  0.00    -0.060 A 
ATOM      2  C   UNL     1      -2.590   0.365   0.396  0.00  0.00    +0.051 A 
ATOM      3  C   UNL     1      -1.976   1.163   1.348  0.00  0.00    +0.163 A 
ATOM      4  C   UNL     1      -2.688   1.575   2.470  0.00  0.00    +0.176 A 
ATOM      5  C   UNL     1      -4.007   1.181   2.634  0.00  0.00    +0.063 A 
ATOM      6  C   UNL     1      -4.612   0.381   1.681  0.00  0.00    +0.021 A 
ATOM      7 BR   UNL     1      -4.979   1.739   4.157  0.00  0.00    -0.046 Br
ENDROOT
BRANCH   3   8
ATOM      8  O   UNL     1      -0.682   1.547   1.184  0.00  0.00    -0.491 OA
ATOM      9  C   UNL     1      -0.013   1.086   0.008  0.00  0.00    +0.277 C 
ENDBRANCH   3   8
BRANCH   1  10
ATOM     10  C   UNL     1      -4.568  -0.900  -0.467  0.00  0.00    -0.047 C 
BRANCH  10  11
ATOM     11  N   UNL     1      -5.205  -0.054  -1.485  0.00  0.00    +0.383 N 
ATOM     12  H   UNL     1      -4.434   0.574  -1.955  0.00  0.00    -0.085 HD
ATOM     13  H   UNL     1      -5.951   0.588  -0.994  0.00  0.00    -0.085 HD
BRANCH  11  14
ATOM     14  C   UNL     1      -5.865  -0.872  -2.512  0.00  0.00    -0.051 C 
BRANCH  14  16
ATOM     15  C   UNL     1      -7.201  -0.809  -4.622  0.00  0.00    +0.035 C 
ATOM     16  C   UNL     1      -6.515   0.043  -3.552  0.00  0.00    +0.095 C 
BRANCH  16  17
ATOM     17  O   UNL     1      -7.484   0.877  -2.914  0.00  0.00    -0.394 OA
ATOM     18  H   UNL     1      -7.175   1.564  -2.112  0.00  0.00    +0.210 HD
ENDBRANCH  16  17
ENDBRANCH  14  16
ENDBRANCH  11  14
ENDBRANCH  10  11
ENDBRANCH   1  10
BRANCH   4  19
ATOM     19  O   UNL     1      -2.091   2.362   3.405  0.00  0.00    -0.483 OA
BRANCH  19  20
ATOM     20  C   UNL     1      -2.193   3.776   3.224  0.00  0.00    +0.265 C 
BRANCH  20  21
ATOM     21  C   UNL     1      -1.477   4.479   4.349  0.00  0.00    -0.007 A 
ATOM     22  C   UNL     1      -2.164   4.815   5.500  0.00  0.00    +0.011 A 
ATOM     23  C   UNL     1      -1.511   5.455   6.537  0.00  0.00    +0.050 A 
ATOM     24  C   UNL     1      -0.168   5.773   6.418  0.00  0.00    +0.166 A 
ATOM     25  C   UNL     1       0.523   5.440   5.256  0.00  0.00    +0.167 A 
ATOM     26  C   UNL     1      -0.137   4.793   4.224  0.00  0.00    +0.056 A 
ATOM     27  O   UNL     1       1.817   5.854   5.383  0.00  0.00    -0.453 OA
ATOM     28  C   UNL     1       1.812   6.806   6.464  0.00  0.00    +0.466 C 
ATOM     29  O   UNL     1       0.694   6.397   7.274  0.00  0.00    -0.453 OA
ENDBRANCH  20  21
ENDBRANCH  19  20
ENDBRANCH   4  19
TORSDOF 9
