REMARK  Name = ZINC36128849
REMARK  6 active torsions:
REMARK  status: ('A' for Active; 'I' for Inactive)
REMARK    1  A    between atoms: C_1  and  C_2
REMARK    2  A    between atoms: C_2  and  C_3
REMARK    3  A    between atoms: C_7  and  C_23
REMARK    4  A    between atoms: N_10  and  S_11
REMARK    5  A    between atoms: S_11  and  C_14
REMARK    6  A    between atoms: C_16  and  N_22
REMARK                            x       y       z     vdW  Elec       q    Type
REMARK                         _______ _______ _______ _____ _____    ______ ____
ROOT
ATOM      1  S   UNL     1      -1.356   0.695  -2.404  0.00  0.00    +0.064 S 
ATOM      2  O   UNL     1       0.020   0.634  -2.054  0.00  0.00    -0.153 OA
ATOM      3  O   UNL     1      -1.817   0.457  -3.727  0.00  0.00    -0.153 OA
ENDROOT
BRANCH   1   4
ATOM      4  C   UNL     1      -1.919   2.304  -1.956  0.00  0.00    +0.142 A 
ATOM      5  C   UNL     1      -1.034   3.220  -1.419  0.00  0.00    +0.057 A 
ATOM      6  C   UNL     1      -1.477   4.487  -1.066  0.00  0.00    +0.062 A 
ATOM      7  C   UNL     1      -2.811   4.832  -1.255  0.00  0.00    +0.147 A 
ATOM      8  C   UNL     1      -3.692   3.912  -1.793  0.00  0.00    +0.080 A 
ATOM      9  C   UNL     1      -3.245   2.651  -2.149  0.00  0.00    +0.152 A 
ATOM     10  F   UNL     1      -4.106   1.755  -2.680  0.00  0.00    -0.203 F 
ATOM     11  F   UNL     1      -3.246   6.065  -0.913  0.00  0.00    -0.203 F 
BRANCH   6  12
ATOM     12  N   UNL     1      -0.583   5.416  -0.521  0.00  0.00    -0.356 N 
ATOM     13  H   UNL     1       0.347   5.174  -0.390  0.00  0.00    +0.142 HD
ATOM     14  H   UNL     1      -0.893   6.301  -0.275  0.00  0.00    +0.142 HD
ENDBRANCH   6  12
ENDBRANCH   1   4
BRANCH   1  20
ATOM     15  C   UNL     1      -1.698  -0.618  -0.043  0.00  0.00    +0.105 C 
ATOM     16  C   UNL     1      -1.547  -2.128   0.172  0.00  0.00    +0.180 C 
ATOM     17  O   UNL     1      -2.754  -2.784  -0.227  0.00  0.00    -0.374 OA
ATOM     18  C   UNL     1      -3.072  -2.632  -1.612  0.00  0.00    +0.131 C 
ATOM     19  C   UNL     1      -3.301  -1.148  -1.918  0.00  0.00    +0.141 C 
ATOM     20  N   UNL     1      -2.141  -0.387  -1.427  0.00  0.00    -0.169 NA
ATOM     21  C   UNL     1      -4.341  -3.424  -1.935  0.00  0.00    +0.039 C 
BRANCH  15  23
ATOM     22  C   UNL     1       0.028  -0.039   1.668  0.00  0.00    +0.005 C 
ATOM     23  C   UNL     1      -0.353   0.073   0.190  0.00  0.00    +0.019 C 
ENDBRANCH  15  23
ENDBRANCH   1  20
TORSDOF 4
