REMARK  Name = ZINC05366809
REMARK  10 active torsions:
REMARK  status: ('A' for Active; 'I' for Inactive)
REMARK    1  A    between atoms: C_1  and  O_2
REMARK    2  A    between atoms: O_2  and  C_3
REMARK    3  A    between atoms: C_6  and  O_25
REMARK    4  A    between atoms: C_7  and  C_9
REMARK    5  A    between atoms: C_10  and  C_11
REMARK    6  A    between atoms: C_11  and  O_13
REMARK    7  A    between atoms: O_13  and  C_14
REMARK    8  A    between atoms: C_14  and  C_15
REMARK    9  A    between atoms: C_18  and  C_20
REMARK   10  A    between atoms: O_25  and  C_26
REMARK                            x       y       z     vdW  Elec       q    Type
REMARK                         _______ _______ _______ _____ _____    ______ ____
ROOT
ATOM      1  C   UNL     1      -2.547   2.837   7.218  0.00  0.00    +0.332 C 
ATOM      2  O   UNL     1      -2.067   2.508   8.286  0.00  0.00    -0.246 OA
ENDROOT
BRANCH   1   4
ATOM      3  C   UNL     1      -0.827   1.652   6.040  0.00  0.00    +0.018 C 
ATOM      4  C   UNL     1      -1.940   2.418   6.008  0.00  0.00    +0.092 C 
BRANCH   3   9
ATOM      5  C   UNL     1      -0.148   1.182   2.380  0.00  0.00    +0.121 A 
ATOM      6  C   UNL     1       0.994   0.390   2.418  0.00  0.00    +0.049 A 
ATOM      7  C   UNL     1       1.546   0.018   3.627  0.00  0.00    +0.050 A 
ATOM      8  C   UNL     1       0.959   0.423   4.815  0.00  0.00    +0.127 A 
ATOM      9  C   UNL     1      -0.197   1.218   4.786  0.00  0.00    +0.020 A 
ATOM     10  C   UNL     1      -0.747   1.595   3.555  0.00  0.00    +0.057 A 
BRANCH   5  12
ATOM     11  C   UNL     1      -0.013   1.086   0.008  0.00  0.00    +0.277 C 
ATOM     12  O   UNL     1      -0.682   1.547   1.184  0.00  0.00    -0.495 OA
ENDBRANCH   5  12
BRANCH   8  13
ATOM     13  O   UNL     1       1.501   0.052   6.004  0.00  0.00    -0.495 OA
ATOM     14  C   UNL     1       2.678  -0.757   5.956  0.00  0.00    +0.277 C 
ENDBRANCH   8  13
ENDBRANCH   3   9
ENDBRANCH   1   4
BRANCH   1  15
ATOM     15  O   UNL     1      -3.659   3.602   7.186  0.00  0.00    -0.455 OA
BRANCH  15  16
ATOM     16  C   UNL     1      -4.218   3.987   8.443  0.00  0.00    +0.291 C 
BRANCH  16  17
ATOM     17  C   UNL     1      -5.444   4.831   8.210  0.00  0.00    +0.117 A 
ATOM     18  C   UNL     1      -5.951   5.178   7.013  0.00  0.00    +0.224 A 
ATOM     19  O   UNL     1      -7.046   5.931   7.243  0.00  0.00    -0.443 OA
ATOM     20  C   UNL     1      -7.197   6.036   8.575  0.00  0.00    +0.234 A 
ATOM     21  N   UNL     1      -6.229   5.365   9.159  0.00  0.00    -0.210 NA
BRANCH  20  22
ATOM     22  C   UNL     1      -8.268   6.773   9.263  0.00  0.00    +0.074 A 
ATOM     23  C   UNL     1      -9.313   7.498   8.723  0.00  0.00    +0.021 A 
ATOM     24  C   UNL     1     -10.202   8.104   9.580  0.00  0.00    +0.008 A 
ATOM     25  C   UNL     1     -10.021   7.980  10.921  0.00  0.00    +0.046 A 
ATOM     26  S   UNL     1      -8.552   6.970  11.015  0.00  0.00    -0.092 S 
ENDBRANCH  20  22
ENDBRANCH  16  17
ENDBRANCH  15  16
ENDBRANCH   1  15
TORSDOF 8
