REMARK  Name = ZINC09783881
REMARK  15 active torsions:
REMARK  status: ('A' for Active; 'I' for Inactive)
REMARK    1  A    between atoms: C_1  and  C_2
REMARK    2  A    between atoms: C_2  and  C_3
REMARK    3  A    between atoms: C_3  and  C_5
REMARK    4  A    between atoms: C_3  and  O_6
REMARK    5  A    between atoms: O_6  and  C_7
REMARK    6  A    between atoms: C_7  and  C_9
REMARK    7  A    between atoms: C_9  and  C_10
REMARK    8  A    between atoms: N_17  and  C_18
REMARK    9  A    between atoms: C_18  and  N_20
REMARK   10  A    between atoms: C_21  and  C_23
REMARK   11  A    between atoms: C_26  and  O_30
REMARK   12  A    between atoms: O_30  and  C_31
REMARK   13  A    between atoms: C_31  and  C_32
REMARK   14  A    between atoms: C_32  and  C_33
REMARK   15  A    between atoms: C_32  and  C_34
REMARK                            x       y       z     vdW  Elec       q    Type
REMARK                         _______ _______ _______ _____ _____    ______ ____
ROOT
ATOM      1  C   UNL     1      -0.148   4.893  -0.911  0.00  0.00    +0.140 C 
ATOM      2  S   UNL     1       1.309   5.767  -1.120  0.00  0.00    -0.018 S 
ENDROOT
BRANCH   1   9
ATOM      3  C   UNL     1      -1.446   3.135   0.214  0.00  0.00    +0.171 C 
ATOM      4  C   UNL     1      -1.199   1.651   0.186  0.00  0.00    +0.234 C 
ATOM      5  O   UNL     1      -2.154   0.905   0.168  0.00  0.00    -0.274 OA
ATOM      6  N   UNL     1       0.024   1.119   0.184  0.00  0.00    -0.312 N 
ATOM      7  C   UNL     1       1.260   1.886   0.106  0.00  0.00    +0.123 C 
ATOM      8  C   UNL     1       1.034   3.326   0.571  0.00  0.00    +0.126 C 
ATOM      9  N   UNL     1      -0.186   3.833  -0.080  0.00  0.00    -0.299 N 
ATOM     10  H   UNL     1       0.096   0.153   0.233  0.00  0.00    +0.149 HD
BRANCH   3  11
ATOM     11  C   UNL     1      -1.950   3.549   1.598  0.00  0.00    +0.152 C 
BRANCH  11  12
ATOM     12  C   UNL     1      -2.331   5.007   1.579  0.00  0.00    +0.310 C 
ATOM     13  O   UNL     1      -2.307   5.624   0.540  0.00  0.00    -0.251 OA
BRANCH  12  14
ATOM     14  O   UNL     1      -2.697   5.620   2.715  0.00  0.00    -0.462 OA
BRANCH  14  15
ATOM     15  C   UNL     1      -3.051   7.026   2.622  0.00  0.00    +0.173 C 
ATOM     16  C   UNL     1      -1.801   7.881   2.836  0.00  0.00    +0.052 C 
BRANCH  15  18
ATOM     17  C   UNL     1      -5.385   6.599   3.406  0.00  0.00    +0.007 C 
ATOM     18  C   UNL     1      -4.090   7.362   3.693  0.00  0.00    +0.041 C 
ENDBRANCH  15  18
ENDBRANCH  14  15
ENDBRANCH  12  14
ENDBRANCH  11  12
ENDBRANCH   3  11
ENDBRANCH   1   9
BRANCH   1  19
ATOM     19  N   UNL     1      -1.259   5.266  -1.579  0.00  0.00    -0.264 N 
ATOM     20  C   UNL     1      -1.252   6.387  -2.326  0.00  0.00    +0.250 C 
ATOM     21  O   UNL     1      -0.244   7.063  -2.398  0.00  0.00    -0.270 OA
ATOM     22  H   UNL     1      -2.063   4.726  -1.522  0.00  0.00    +0.157 HD
BRANCH  20  23
ATOM     23  C   UNL     1      -2.467   6.795  -3.057  0.00  0.00    +0.038 A 
ATOM     24  C   UNL     1      -3.625   6.016  -2.980  0.00  0.00    +0.017 A 
ATOM     25  C   UNL     1      -4.759   6.402  -3.658  0.00  0.00    +0.047 A 
ATOM     26  C   UNL     1      -4.750   7.559  -4.428  0.00  0.00    +0.134 A 
ATOM     27  C   UNL     1      -3.599   8.334  -4.513  0.00  0.00    +0.060 A 
ATOM     28  C   UNL     1      -2.461   7.957  -3.832  0.00  0.00    +0.032 A 
ATOM     29 BR   UNL     1      -3.593   9.907  -5.562  0.00  0.00    -0.046 Br
BRANCH  26  30
ATOM     30  O   UNL     1      -5.869   7.934  -5.100  0.00  0.00    -0.491 OA
BRANCH  30  31
ATOM     31  C   UNL     1      -7.016   7.092  -4.970  0.00  0.00    +0.232 C 
BRANCH  31  32
ATOM     32  C   UNL     1      -8.169   7.671  -5.791  0.00  0.00    +0.020 C 
ATOM     33  C   UNL     1      -7.806   7.634  -7.277  0.00  0.00    +0.010 C 
ATOM     34  C   UNL     1      -9.432   6.841  -5.553  0.00  0.00    +0.010 C 
ENDBRANCH  31  32
ENDBRANCH  30  31
ENDBRANCH  26  30
ENDBRANCH  20  23
ENDBRANCH   1  19
TORSDOF 11
