REMARK  Name = ZINC12756116
REMARK  6 active torsions:
REMARK  status: ('A' for Active; 'I' for Inactive)
REMARK    1  A    between atoms: C_1  and  C_2
REMARK    2  A    between atoms: C_9  and  C_11
REMARK    3  A    between atoms: C_16  and  C_19
REMARK    4  A    between atoms: C_19  and  N_20
REMARK    5  A    between atoms: C_22  and  C_29
REMARK    6  A    between atoms: C_25  and  C_28
REMARK                            x       y       z     vdW  Elec       q    Type
REMARK                         _______ _______ _______ _____ _____    ______ ____
ROOT
ATOM      1  C   UNL     1       0.498  -0.691   5.012  0.00  0.00    +0.258 C 
ATOM      2  O   UNL     1       0.515   0.474   5.363  0.00  0.00    -0.269 OA
ATOM      3  N   UNL     1       0.601  -1.673   5.929  0.00  0.00    -0.260 N 
ATOM      4  C   UNL     1       0.727  -1.355   7.275  0.00  0.00    +0.165 A 
ATOM      5  N   UNL     1       0.843  -2.171   8.301  0.00  0.00    -0.228 NA
ATOM      6  C   UNL     1       0.956  -1.708   9.532  0.00  0.00    +0.064 A 
ATOM      7  C   UNL     1       0.946  -0.361   9.687  0.00  0.00    +0.073 A 
ATOM      8  S   UNL     1       0.775   0.168   7.990  0.00  0.00    -0.060 S 
ATOM      9  H   UNL     1       0.587  -2.602   5.649  0.00  0.00    +0.157 HD
ENDROOT
BRANCH   1  18
ATOM     10  C   UNL     1      -0.018   1.503   0.010  0.00  0.00    +0.044 C 
ATOM     11  C   UNL     1       0.002  -0.004   0.002  0.00  0.00    -0.041 A 
ATOM     12  C   UNL     1      -0.097  -0.670  -1.177  0.00  0.00    +0.004 A 
ATOM     13  C   UNL     1      -0.084  -2.058  -1.233  0.00  0.00    +0.001 A 
ATOM     14  C   UNL     1       0.035  -2.785  -0.066  0.00  0.00    +0.016 A 
ATOM     15  C   UNL     1       0.137  -2.123   1.139  0.00  0.00    +0.022 A 
ATOM     16  C   UNL     1       0.131  -0.710   1.225  0.00  0.00    +0.011 A 
ATOM     17  C   UNL     1       0.249  -0.185   2.526  0.00  0.00    +0.068 A 
ATOM     18  C   UNL     1       0.365  -1.027   3.589  0.00  0.00    +0.094 A 
ATOM     19  S   UNL     1       0.300  -2.640   2.829  0.00  0.00    -0.082 S 
ATOM     20 CL   UNL     1       0.250   1.534   2.773  0.00  0.00    -0.082 Cl
ENDBRANCH   1  18
BRANCH   6  21
ATOM     21  C   UNL     1       1.089  -2.635  10.712  0.00  0.00    +0.140 C 
BRANCH  21  22
ATOM     22  N   UNL     1      -0.246  -3.057  11.157  0.00  0.00    -0.292 NA
ATOM     23  C   UNL     1      -1.005  -1.920  11.697  0.00  0.00    +0.116 C 
ATOM     24  C   UNL     1      -2.407  -2.391  12.092  0.00  0.00    +0.130 C 
ATOM     25  O   UNL     1      -2.297  -3.464  13.031  0.00  0.00    -0.371 OA
ATOM     26  C   UNL     1      -1.564  -4.589  12.537  0.00  0.00    +0.130 C 
ATOM     27  C   UNL     1      -0.154  -4.140  12.147  0.00  0.00    +0.116 C 
ATOM     28  C   UNL     1      -1.478  -5.660  13.626  0.00  0.00    +0.039 C 
ATOM     29  C   UNL     1      -3.153  -2.875  10.847  0.00  0.00    +0.039 C 
ENDBRANCH  21  22
ENDBRANCH   6  21
TORSDOF 3
