REMARK  Name = ZINC40348872
REMARK  7 active torsions:
REMARK  status: ('A' for Active; 'I' for Inactive)
REMARK    1  A    between atoms: C_1  and  C_2
REMARK    2  A    between atoms: C_6  and  N_21
REMARK    3  A    between atoms: C_7  and  S_8
REMARK    4  A    between atoms: S_8  and  N_11
REMARK    5  A    between atoms: N_11  and  C_12
REMARK    6  A    between atoms: C_12  and  C_13
REMARK    7  A    between atoms: C_16  and  C_19
REMARK                            x       y       z     vdW  Elec       q    Type
REMARK                         _______ _______ _______ _____ _____    ______ ____
ROOT
ATOM      1  S   UNL     1       1.473  -0.201   2.519  0.00  0.00    +0.061 S 
ATOM      2  O   UNL     1       1.921  -1.310   3.287  0.00  0.00    -0.153 OA
ATOM      3  O   UNL     1       2.358   0.805   2.045  0.00  0.00    -0.153 OA
ENDROOT
BRANCH   1  10
ATOM      4  C   UNL     1       0.939   1.353  -0.018  0.00  0.00    +0.046 C 
ATOM      5  C   UNL     1       0.461  -0.076  -0.012  0.00  0.00    -0.022 A 
ATOM      6  C   UNL     1      -0.172  -0.598  -1.125  0.00  0.00    +0.005 A 
ATOM      7  C   UNL     1      -0.612  -1.908  -1.124  0.00  0.00    +0.002 A 
ATOM      8  C   UNL     1      -0.421  -2.701  -0.009  0.00  0.00    +0.025 A 
ATOM      9  C   UNL     1       0.215  -2.180   1.111  0.00  0.00    +0.051 A 
ATOM     10  C   UNL     1       0.660  -0.865   1.104  0.00  0.00    +0.129 A 
BRANCH   9  11
ATOM     11  N   UNL     1       0.410  -2.979   2.240  0.00  0.00    -0.356 N 
ATOM     12  H   UNL     1       0.471  -3.943   2.147  0.00  0.00    +0.142 HD
ATOM     13  H   UNL     1       0.483  -2.571   3.116  0.00  0.00    +0.142 HD
ENDBRANCH   9  11
ENDBRANCH   1  10
BRANCH   1  14
ATOM     14  N   UNL     1       0.323   0.570   3.428  0.00  0.00    -0.186 NA
ATOM     15  H   UNL     1       0.368   1.531   3.552  0.00  0.00    +0.148 HD
BRANCH  14  16
ATOM     16  C   UNL     1      -0.761  -0.199   4.043  0.00  0.00    +0.141 C 
BRANCH  16  17
ATOM     17  C   UNL     1      -1.442   0.642   5.091  0.00  0.00    -0.032 A 
ATOM     18  C   UNL     1      -0.986   0.617   6.398  0.00  0.00    +0.006 A 
ATOM     19  C   UNL     1      -1.604   1.385   7.362  0.00  0.00    +0.019 A 
ATOM     20  C   UNL     1      -2.692   2.189   7.019  0.00  0.00    +0.052 A 
ATOM     21  C   UNL     1      -3.147   2.211   5.699  0.00  0.00    +0.019 A 
ATOM     22  C   UNL     1      -2.516   1.441   4.743  0.00  0.00    +0.006 A 
BRANCH  20  23
ATOM     23  C   UNL     1      -3.339   2.989   8.015  0.00  0.00    +0.099 C 
ATOM     24  N   UNL     1      -3.852   3.623   8.806  0.00  0.00    -0.191 NA
ENDBRANCH  20  23
ENDBRANCH  16  17
ENDBRANCH  14  16
ENDBRANCH   1  14
TORSDOF 6
