REMARK  Name = ZINC36547761
REMARK  8 active torsions:
REMARK  status: ('A' for Active; 'I' for Inactive)
REMARK    1  A    between atoms: C_5  and  N_7
REMARK    2  A    between atoms: N_7  and  C_8
REMARK    3  A    between atoms: C_8  and  C_10
REMARK    4  A    between atoms: C_8  and  C_20
REMARK    5  A    between atoms: C_12  and  N_17
REMARK    6  A    between atoms: N_22  and  C_23
REMARK    7  A    between atoms: C_29  and  C_31
REMARK    8  A    between atoms: C_31  and  O_32
REMARK                            x       y       z     vdW  Elec       q    Type
REMARK                         _______ _______ _______ _____ _____    ______ ____
ROOT
ATOM      1  C   UNL     1       1.284  -2.721  -1.345  0.00  0.00    +0.199 C 
ENDROOT
BRANCH   1   2
ATOM      2  C   UNL     1       2.621  -3.386  -1.552  0.00  0.00    +0.003 A 
ATOM      3  C   UNL     1       3.320  -3.885  -0.469  0.00  0.00    +0.040 A 
ATOM      4  C   UNL     1       4.546  -4.494  -0.659  0.00  0.00    +0.127 A 
ATOM      5  C   UNL     1       5.073  -4.605  -1.932  0.00  0.00    +0.034 A 
ATOM      6  C   UNL     1       4.375  -4.107  -3.015  0.00  0.00    +0.022 A 
ATOM      7  C   UNL     1       3.145  -3.502  -2.827  0.00  0.00    +0.047 A 
ATOM      8 CL   UNL     1       2.264  -2.883  -4.188  0.00  0.00    -0.083 Cl
BRANCH   4   9
ATOM      9  N   UNL     1       5.294  -5.028   0.501  0.00  0.00    +0.056 N 
ATOM     10  O   UNL     1       4.833  -4.931   1.615  0.00  0.00    -0.126 OA
ATOM     11  O   UNL     1       6.367  -5.561   0.335  0.00  0.00    -0.126 OA
ENDBRANCH   4   9
ENDBRANCH   1   2
BRANCH   1  12
ATOM     12  C   UNL     1       0.183  -3.720  -1.587  0.00  0.00    +0.239 C 
ATOM     13  O   UNL     1      -0.599  -3.989  -0.700  0.00  0.00    -0.273 OA
ATOM     14  N   UNL     1       0.067  -4.316  -2.791  0.00  0.00    -0.311 N 
ATOM     15  H   UNL     1       0.692  -4.102  -3.501  0.00  0.00    +0.149 HD
BRANCH  14  16
ATOM     16  C   UNL     1      -1.004  -5.288  -3.027  0.00  0.00    +0.073 C 
ATOM     17  C   UNL     1      -0.553  -6.670  -2.550  0.00  0.00    +0.022 C 
ATOM     18  C   UNL     1      -1.671  -7.684  -2.797  0.00  0.00    +0.002 C 
ATOM     19  C   UNL     1      -1.989  -7.740  -4.292  0.00  0.00    +0.000 C 
ATOM     20  C   UNL     1      -2.440  -6.358  -4.769  0.00  0.00    +0.002 C 
ATOM     21  C   UNL     1      -1.322  -5.343  -4.523  0.00  0.00    +0.022 C 
ENDBRANCH  14  16
ENDBRANCH   1  12
BRANCH   1  22
ATOM     22  N   UNL     1       1.196  -2.221   0.030  0.00  0.00    -0.252 N 
ATOM     23  C   UNL     1       1.111  -3.088   1.058  0.00  0.00    +0.246 C 
ATOM     24  O   UNL     1       1.172  -4.282   0.852  0.00  0.00    -0.273 OA
BRANCH  22  29
ATOM     25  C   UNL     1       0.008   1.220   0.552  0.00  0.00    +0.002 A 
ATOM     26  C   UNL     1       1.204   1.883   0.757  0.00  0.00    +0.002 A 
ATOM     27  C   UNL     1       2.399   1.187   0.721  0.00  0.00    +0.022 A 
ATOM     28  C   UNL     1       2.400  -0.175   0.480  0.00  0.00    +0.062 A 
ATOM     29  C   UNL     1       1.199  -0.843   0.275  0.00  0.00    +0.056 A 
ATOM     30  C   UNL     1       0.002  -0.140   0.312  0.00  0.00    +0.025 A 
ATOM     31 CL   UNL     1       3.899  -1.048   0.434  0.00  0.00    -0.082 Cl
ENDBRANCH  22  29
BRANCH  23  32
ATOM     32  C   UNL     1       0.941  -2.574   2.465  0.00  0.00    +0.252 C 
BRANCH  32  33
ATOM     33  O   UNL     1       0.877  -3.678   3.370  0.00  0.00    -0.386 OA
ATOM     34  H   UNL     1       0.768  -3.421   4.296  0.00  0.00    +0.210 HD
ENDBRANCH  32  33
ENDBRANCH  23  32
ENDBRANCH   1  22
TORSDOF 8
