REMARK  Name = ZINC10186993
REMARK  5 active torsions:
REMARK  status: ('A' for Active; 'I' for Inactive)
REMARK    1  A    between atoms: C_3  and  S_6
REMARK    2  A    between atoms: S_6  and  N_9
REMARK    3  A    between atoms: C_13  and  C_15
REMARK    4  A    between atoms: N_17  and  C_18
REMARK    5  A    between atoms: C_19  and  C_28
REMARK                            x       y       z     vdW  Elec       q    Type
REMARK                         _______ _______ _______ _____ _____    ______ ____
ROOT
ATOM      1  C   UNL     1      -0.320   1.743   0.817  0.00  0.00    +0.236 C 
ATOM      2  O   UNL     1      -1.276   2.490   0.832  0.00  0.00    -0.274 OA
ATOM      3  N   UNL     1       0.283   1.397   1.971  0.00  0.00    -0.278 N 
ATOM      4  H   UNL     1       1.048   0.800   1.959  0.00  0.00    +0.155 HD
ENDROOT
BRANCH   3   5
ATOM      5  C   UNL     1      -0.189   1.896   3.178  0.00  0.00    +0.090 A 
ATOM      6  C   UNL     1       0.292   1.658   4.455  0.00  0.00    +0.084 A 
ATOM      7  C   UNL     1      -0.385   2.310   5.567  0.00  0.00    -0.018 A 
ATOM      8  C   UNL     1      -1.434   3.086   5.219  0.00  0.00    -0.004 A 
ATOM      9  S   UNL     1      -1.518   2.971   3.452  0.00  0.00    -0.077 S 
ATOM     10  C   UNL     1      -2.337   3.867   6.122  0.00  0.00    +0.043 C 
ATOM     11  C   UNL     1      -1.484   4.687   7.099  0.00  0.00    +0.005 C 
ATOM     12  C   UNL     1      -1.218   3.839   8.339  0.00  0.00    +0.001 C 
ATOM     13  C   UNL     1      -1.111   2.365   7.954  0.00  0.00    +0.005 C 
ATOM     14  C   UNL     1       0.067   2.142   7.012  0.00  0.00    +0.037 C 
BRANCH   6  15
ATOM     15  C   UNL     1       1.418   0.801   4.674  0.00  0.00    +0.102 C 
ATOM     16  N   UNL     1       2.312   0.121   4.848  0.00  0.00    -0.191 NA
ENDBRANCH   6  15
ENDBRANCH   3   5
BRANCH   1  21
ATOM     17  N   UNL     1      -0.903   1.104  -1.474  0.00  0.00    -0.164 NA
ATOM     18  C   UNL     1      -0.380   1.454  -2.802  0.00  0.00    +0.110 C 
ATOM     19  C   UNL     1       1.111   1.812  -2.627  0.00  0.00    +0.019 C 
ATOM     20  C   UNL     1       1.204   2.191  -1.125  0.00  0.00    +0.031 C 
ATOM     21  C   UNL     1       0.192   1.202  -0.493  0.00  0.00    +0.166 C 
BRANCH  17  22
ATOM     22  S   UNL     1      -2.466   0.670  -1.136  0.00  0.00    +0.068 S 
ATOM     23  O   UNL     1      -2.958  -0.004  -2.286  0.00  0.00    -0.152 OA
ATOM     24  O   UNL     1      -2.451   0.069   0.151  0.00  0.00    -0.152 OA
BRANCH  22  27
ATOM     25  C   UNL     1      -4.653   4.057  -1.607  0.00  0.00    +0.010 A 
ATOM     26  C   UNL     1      -3.953   2.919  -1.962  0.00  0.00    +0.036 A 
ATOM     27  C   UNL     1      -3.399   2.158  -0.987  0.00  0.00    +0.143 A 
ATOM     28  S   UNL     1      -3.853   3.057   0.487  0.00  0.00    -0.077 S 
ATOM     29  C   UNL     1      -4.756   4.383  -0.295  0.00  0.00    +0.047 A 
ENDBRANCH  22  27
ENDBRANCH  17  22
ENDBRANCH   1  21
TORSDOF 5
