REMARK  Name = ZINC47085724
REMARK  9 active torsions:
REMARK  status: ('A' for Active; 'I' for Inactive)
REMARK    1  A    between atoms: C_1  and  C_2
REMARK    2  A    between atoms: C_5  and  C_12
REMARK    3  A    between atoms: C_7  and  N_8
REMARK    4  A    between atoms: C_9  and  C_11
REMARK    5  A    between atoms: N_14  and  C_15
REMARK    6  A    between atoms: C_21  and  C_23
REMARK    7  A    between atoms: C_23  and  C_24
REMARK    8  A    between atoms: C_23  and  C_25
REMARK    9  A    between atoms: C_23  and  C_26
REMARK                            x       y       z     vdW  Elec       q    Type
REMARK                         _______ _______ _______ _____ _____    ______ ____
ROOT
ATOM      1  C   UNL     1       0.014  -4.410   0.368  0.00  0.00    +0.244 C 
ATOM      2  O   UNL     1      -0.098  -4.915   1.468  0.00  0.00    -0.270 OA
ATOM      3  N   UNL     1       0.074  -5.191  -0.729  0.00  0.00    -0.308 N 
ATOM      4  H   UNL     1       0.163  -4.788  -1.607  0.00  0.00    +0.149 HD
ENDROOT
BRANCH   1   9
ATOM      5  C   UNL     1       0.286   1.317  -0.172  0.00  0.00    +0.045 C 
ATOM      6  C   UNL     1       0.215  -0.181  -0.029  0.00  0.00    -0.029 A 
ATOM      7  C   UNL     1       0.277  -0.984  -1.153  0.00  0.00    +0.006 A 
ATOM      8  C   UNL     1       0.212  -2.357  -1.030  0.00  0.00    +0.013 A 
ATOM      9  C   UNL     1       0.084  -2.939   0.233  0.00  0.00    +0.038 A 
ATOM     10  C   UNL     1       0.022  -2.129   1.366  0.00  0.00    +0.036 A 
ATOM     11  C   UNL     1       0.093  -0.751   1.232  0.00  0.00    +0.037 A 
BRANCH  11  12
ATOM     12  N   UNL     1       0.036   0.066   2.367  0.00  0.00    -0.285 N 
ATOM     13  C   UNL     1      -0.663  -0.331   3.449  0.00  0.00    +0.214 C 
ATOM     14  O   UNL     1      -1.171  -1.432   3.473  0.00  0.00    -0.276 OA
ATOM     15  C   UNL     1      -0.812   0.593   4.630  0.00  0.00    +0.109 C 
ATOM     16  H   UNL     1       0.500   0.918   2.375  0.00  0.00    +0.155 HD
ENDBRANCH  11  12
ENDBRANCH   1   9
BRANCH   3  17
ATOM     17  C   UNL     1       0.004  -6.648  -0.596  0.00  0.00    +0.077 C 
ATOM     18  C   UNL     1       1.419  -7.215  -0.455  0.00  0.00    +0.022 C 
ATOM     19  C   UNL     1       2.238  -6.856  -1.696  0.00  0.00    +0.002 C 
ATOM     20  C   UNL     1       1.571  -7.450  -2.938  0.00  0.00    +0.000 C 
ATOM     21  C   UNL     1       0.157  -6.883  -3.078  0.00  0.00    +0.006 C 
ATOM     22  C   UNL     1      -0.663  -7.243  -1.838  0.00  0.00    +0.015 C 
BRANCH  22  23
ATOM     23  C   UNL     1      -2.077  -6.676  -1.978  0.00  0.00    -0.033 C 
ATOM     24  C   UNL     1      -1.998  -5.174  -2.261  0.00  0.00    +0.011 C 
ATOM     25  C   UNL     1      -2.794  -7.375  -3.134  0.00  0.00    +0.011 C 
ATOM     26  C   UNL     1      -2.852  -6.911  -0.680  0.00  0.00    +0.011 C 
ENDBRANCH  22  23
ENDBRANCH   3  17
TORSDOF 4
