REMARK  Name = ZINC29227663
REMARK  7 active torsions:
REMARK  status: ('A' for Active; 'I' for Inactive)
REMARK    1  A    between atoms: C_1  and  C_2
REMARK    2  A    between atoms: C_5  and  N_11
REMARK    3  A    between atoms: C_7  and  N_8
REMARK    4  A    between atoms: C_12  and  C_14
REMARK    5  A    between atoms: C_14  and  C_16
REMARK    6  A    between atoms: C_14  and  N_17
REMARK    7  A    between atoms: N_17  and  C_18
REMARK                            x       y       z     vdW  Elec       q    Type
REMARK                         _______ _______ _______ _____ _____    ______ ____
ROOT
ATOM      1  N   UNL     1       5.225  -4.308   0.254  0.00  0.00    -0.284 N 
ATOM      2  C   UNL     1       4.696  -3.070   0.320  0.00  0.00    +0.237 C 
ATOM      3  O   UNL     1       5.229  -2.218   0.999  0.00  0.00    -0.273 OA
ATOM      4  H   UNL     1       4.697  -5.104  -0.292  0.00  0.00    +0.155 HD
ENDROOT
BRANCH   1   9
ATOM      5  C   UNL     1      10.174  -5.416   2.795  0.00  0.00    +0.046 C 
ATOM      6  C   UNL     1       8.859  -5.122   2.120  0.00  0.00    -0.020 A 
ATOM      7  C   UNL     1       8.632  -3.875   1.567  0.00  0.00    +0.007 A 
ATOM      8  C   UNL     1       7.430  -3.604   0.943  0.00  0.00    +0.024 A 
ATOM      9  C   UNL     1       6.445  -4.581   0.881  0.00  0.00    +0.036 A 
ATOM     10  C   UNL     1       6.677  -5.832   1.438  0.00  0.00    +0.056 A 
ATOM     11  C   UNL     1       7.883  -6.099   2.056  0.00  0.00    +0.131 A 
BRANCH  11  12
ATOM     12  N   UNL     1       8.131  -7.432   2.650  0.00  0.00    +0.057 N 
ATOM     13  O   UNL     1       7.231  -8.250   2.706  0.00  0.00    -0.126 OA
ATOM     14  O   UNL     1       9.235  -7.710   3.082  0.00  0.00    -0.126 OA
ENDBRANCH  11  12
ENDBRANCH   1   9
BRANCH   2  15
ATOM     15  C   UNL     1       3.442  -2.744  -0.451  0.00  0.00    +0.154 C 
ATOM     16  C   UNL     1       3.692  -2.962  -1.945  0.00  0.00    +0.038 C 
BRANCH  15  17
ATOM     17  N   UNL     1       3.074  -1.346  -0.216  0.00  0.00    -0.333 N 
ATOM     18  H   UNL     1       3.843  -0.616   0.074  0.00  0.00    +0.147 HD
BRANCH  17  19
ATOM     19  C   UNL     1       1.742  -0.940  -0.360  0.00  0.00    +0.031 A 
ATOM     20  C   UNL     1       0.771  -1.862  -0.726  0.00  0.00    +0.027 A 
ATOM     21  C   UNL     1      -0.544  -1.461  -0.869  0.00  0.00    +0.051 A 
ATOM     22  C   UNL     1      -0.897  -0.138  -0.648  0.00  0.00    +0.162 A 
ATOM     23  C   UNL     1       0.073   0.787  -0.280  0.00  0.00    +0.164 A 
ATOM     24  C   UNL     1       1.393   0.384  -0.137  0.00  0.00    +0.072 A 
ATOM     25  O   UNL     1      -0.256   2.087  -0.050  0.00  0.00    -0.485 OA
ATOM     26  C   UNL     1      -1.515   2.533  -0.564  0.00  0.00    +0.270 C 
ATOM     27  C   UNL     1      -2.578   1.486  -0.207  0.00  0.00    +0.270 C 
ATOM     28  O   UNL     1      -2.196   0.240  -0.803  0.00  0.00    -0.485 OA
ENDBRANCH  17  19
ENDBRANCH  15  17
ENDBRANCH   2  15
TORSDOF 5
