REMARK  Name = ZINC39599046
REMARK  7 active torsions:
REMARK  status: ('A' for Active; 'I' for Inactive)
REMARK    1  A    between atoms: C_1  and  O_2
REMARK    2  A    between atoms: O_2  and  C_3
REMARK    3  A    between atoms: C_9  and  C_12
REMARK    4  A    between atoms: C_12  and  C_13
REMARK    5  A    between atoms: C_13  and  N_14
REMARK    6  A    between atoms: C_15  and  C_17
REMARK    7  A    between atoms: C_28  and  C_30
REMARK                            x       y       z     vdW  Elec       q    Type
REMARK                         _______ _______ _______ _____ _____    ______ ____
ROOT
ATOM      1  C   UNL     1      -2.263  -8.543  -1.501  0.00  0.00    +0.100 C 
ATOM      2  C   UNL     1      -1.486  -9.871  -1.639  0.00  0.00    +0.121 C 
ATOM      3  N   UNL     1      -2.523 -10.925  -1.524  0.00  0.00    -0.296 N 
ATOM      4  C   UNL     1      -3.683 -10.383  -2.271  0.00  0.00    +0.115 C 
ATOM      5  C   UNL     1      -3.704  -8.882  -1.917  0.00  0.00    -0.004 C 
ATOM      6  C   UNL     1      -4.110  -8.059  -3.136  0.00  0.00    -0.010 C 
ATOM      7  C   UNL     1      -5.566  -8.371  -3.495  0.00  0.00    -0.082 C 
ATOM      8  N   UNL     1      -6.432  -8.053  -2.353  0.00  0.00    +0.379 N 
ATOM      9  C   UNL     1      -6.096  -8.915  -1.214  0.00  0.00    -0.082 C 
ATOM     10  C   UNL     1      -4.663  -8.626  -0.758  0.00  0.00    -0.010 C 
ATOM     11  C   UNL     1      -2.431 -12.107  -0.885  0.00  0.00    +0.247 C 
ATOM     12  O   UNL     1      -1.454 -12.357  -0.206  0.00  0.00    -0.270 OA
ATOM     13  H   UNL     1      -6.302  -7.087  -2.093  0.00  0.00    -0.086 HD
ATOM     14  H   UNL     1      -7.396  -8.202  -2.613  0.00  0.00    -0.086 HD
ENDROOT
BRANCH  11  15
ATOM     15  C   UNL     1      -3.518 -13.101  -1.009  0.00  0.00    +0.037 A 
ATOM     16  C   UNL     1      -4.408 -13.035  -2.083  0.00  0.00    +0.014 A 
ATOM     17  C   UNL     1      -5.420 -13.965  -2.194  0.00  0.00    +0.021 A 
ATOM     18  C   UNL     1      -5.554 -14.963  -1.243  0.00  0.00    +0.041 A 
ATOM     19  C   UNL     1      -4.674 -15.034  -0.175  0.00  0.00    +0.021 A 
ATOM     20  C   UNL     1      -3.655 -14.112  -0.057  0.00  0.00    +0.014 A 
ATOM     21 CL   UNL     1      -6.832 -16.130  -1.389  0.00  0.00    -0.084 Cl
ENDBRANCH  11  15
BRANCH   1  23
ATOM     22  N   UNL     1      -1.746  -6.195  -2.083  0.00  0.00    -0.315 N 
ATOM     23  C   UNL     1      -1.684  -7.498  -2.420  0.00  0.00    +0.218 C 
ATOM     24  O   UNL     1      -1.162  -7.831  -3.463  0.00  0.00    -0.275 OA
ATOM     25  H   UNL     1      -2.163  -5.929  -1.248  0.00  0.00    +0.149 HD
BRANCH  22  26
ATOM     26  C   UNL     1      -1.183  -5.180  -2.976  0.00  0.00    +0.109 C 
BRANCH  26  27
ATOM     27  C   UNL     1      -1.383  -3.792  -2.362  0.00  0.00    +0.056 C 
BRANCH  27  34
ATOM     28  C   UNL     1      -3.074  -1.508  -6.106  0.00  0.00    +0.121 A 
ATOM     29  C   UNL     1      -2.155  -0.613  -6.647  0.00  0.00    +0.047 A 
ATOM     30  C   UNL     1      -0.904  -0.468  -6.088  0.00  0.00    +0.030 A 
ATOM     31  C   UNL     1      -0.549  -1.220  -4.974  0.00  0.00    +0.047 A 
ATOM     32  N   UNL     1       0.596  -1.297  -4.210  0.00  0.00    -0.360 N 
ATOM     33  C   UNL     1       0.425  -2.212  -3.207  0.00  0.00    +0.087 A 
ATOM     34  C   UNL     1      -0.804  -2.748  -3.281  0.00  0.00    -0.021 A 
ATOM     35  C   UNL     1      -1.475  -2.125  -4.425  0.00  0.00    +0.006 A 
ATOM     36  C   UNL     1      -2.742  -2.260  -4.996  0.00  0.00    +0.056 A 
ATOM     37  H   UNL     1       1.403  -0.780  -4.360  0.00  0.00    +0.165 HD
BRANCH  28  39
ATOM     38  C   UNL     1      -4.584  -0.827  -7.812  0.00  0.00    +0.277 C 
ATOM     39  O   UNL     1      -4.304  -1.639  -6.670  0.00  0.00    -0.495 OA
ENDBRANCH  28  39
ENDBRANCH  27  34
ENDBRANCH  26  27
ENDBRANCH  22  26
ENDBRANCH   1  23
TORSDOF 6
