REMARK  Name = ZINC04966124
REMARK  3 active torsions:
REMARK  status: ('A' for Active; 'I' for Inactive)
REMARK    1  A    between atoms: C_7  and  N_11
REMARK    2  A    between atoms: N_11  and  N_12
REMARK    3  A    between atoms: C_13  and  C_15
REMARK                            x       y       z     vdW  Elec       q    Type
REMARK                         _______ _______ _______ _____ _____    ______ ____
ROOT
ATOM      1  N   UNL     1       2.387   1.438  -0.013  0.00  0.00    -0.264 N 
ATOM      2  H   UNL     1       3.212   2.166  -0.017  0.00  0.00    +0.170 HD
ENDROOT
BRANCH   1   9
ATOM      3  C   UNL     1       0.648   5.696   0.027  0.00  0.00    +0.001 A 
ATOM      4  C   UNL     1      -0.730   5.700   0.040  0.00  0.00    +0.001 A 
ATOM      5  C   UNL     1      -1.435   4.499   0.040  0.00  0.00    +0.012 A 
ATOM      6  C   UNL     1      -0.749   3.301   0.027  0.00  0.00    +0.031 A 
ATOM      7  C   UNL     1       0.657   3.296   0.013  0.00  0.00    +0.008 A 
ATOM      8  C   UNL     1       1.347   4.494   0.013  0.00  0.00    +0.010 A 
ATOM      9  C   UNL     1       1.088   1.875   0.002  0.00  0.00    +0.056 C 
ATOM     10  C   UNL     1      -0.013   1.076   0.008  0.00  0.00    +0.076 C 
ATOM     11  C   UNL     1      -1.179   1.875   0.017  0.00  0.00    +0.188 C 
ATOM     12  O   UNL     1      -2.325   1.470   0.019  0.00  0.00    -0.287 OA
ENDBRANCH   1   9
BRANCH   1  13
ATOM     13  N   UNL     1       2.665   0.065  -0.024  0.00  0.00    -0.232 N 
ATOM     14  C   UNL     1       3.943  -0.364  -0.038  0.00  0.00    +0.261 C 
ATOM     15  O   UNL     1       4.854   0.441  -0.042  0.00  0.00    -0.269 OA
ATOM     16  H   UNL     1       1.840  -0.663  -0.020  0.00  0.00    +0.173 HD
BRANCH  14  17
ATOM     17  C   UNL     1       4.236  -1.812  -0.049  0.00  0.00    +0.052 A 
ATOM     18  C   UNL     1       3.191  -2.739  -0.039  0.00  0.00    +0.014 A 
ATOM     19  C   UNL     1       3.472  -4.089  -0.054  0.00  0.00    +0.001 A 
ATOM     20  C   UNL     1       4.785  -4.527  -0.070  0.00  0.00    +0.001 A 
ATOM     21  C   UNL     1       5.824  -3.616  -0.075  0.00  0.00    +0.016 A 
ATOM     22  C   UNL     1       5.558  -2.260  -0.064  0.00  0.00    +0.030 A 
ATOM     23 BR   UNL     1       6.981  -1.015  -0.070  0.00  0.00    -0.050 Br
ENDBRANCH  14  17
ENDBRANCH   1  13
TORSDOF 3
