REMARK  Name = ZINC45860694
REMARK  8 active torsions:
REMARK  status: ('A' for Active; 'I' for Inactive)
REMARK    1  A    between atoms: C_1  and  C_2
REMARK    2  A    between atoms: C_2  and  C_28
REMARK    3  A    between atoms: C_4  and  N_10
REMARK    4  A    between atoms: C_6  and  C_8
REMARK    5  A    between atoms: C_6  and  C_9
REMARK    6  A    between atoms: N_13  and  N_14
REMARK    7  A    between atoms: C_15  and  C_17
REMARK    8  A    between atoms: C_20  and  N_23
REMARK                            x       y       z     vdW  Elec       q    Type
REMARK                         _______ _______ _______ _____ _____    ______ ____
ROOT
ATOM      1  N   UNL     1       2.615  -0.819  -2.626  0.00  0.00    -0.295 N 
ATOM      2  C   UNL     1       3.770  -0.334  -3.123  0.00  0.00    +0.316 C 
ATOM      3  O   UNL     1       4.376   0.532  -2.522  0.00  0.00    -0.251 OA
ATOM      4  N   UNL     1       4.255  -0.809  -4.288  0.00  0.00    -0.218 N 
ATOM      5  H   UNL     1       2.133  -1.510  -3.106  0.00  0.00    +0.151 HD
ATOM      6  H   UNL     1       5.086  -0.461  -4.646  0.00  0.00    +0.174 HD
ENDROOT
BRANCH   1  10
ATOM      7  C   UNL     1      -0.019   1.528   0.010  0.00  0.00    -0.010 C 
ATOM      8  C   UNL     1       0.002  -0.004   0.002  0.00  0.00    -0.072 C 
ATOM      9  C   UNL     1       0.573  -0.505  -1.321  0.00  0.00    +0.009 C 
ATOM     10  C   UNL     1       2.088  -0.301  -1.357  0.00  0.00    +0.072 C 
ATOM     11  C   UNL     1       2.703  -1.086  -0.198  0.00  0.00    +0.009 C 
ATOM     12  C   UNL     1       2.147  -0.590   1.133  0.00  0.00    -0.072 C 
ATOM     13  N   UNL     1       0.697  -0.529   1.164  0.00  0.00    +0.386 N 
ATOM     14  C   UNL     1       2.769   0.766   1.481  0.00  0.00    -0.010 C 
ATOM     15  C   UNL     1       2.600  -1.589   2.223  0.00  0.00    -0.010 C 
ATOM     16  C   UNL     1      -1.468  -0.478   0.079  0.00  0.00    -0.010 C 
ATOM     17  H   UNL     1       0.416   0.021   1.982  0.00  0.00    -0.084 HD
ATOM     18  H   UNL     1       0.341  -1.472   1.351  0.00  0.00    -0.084 HD
ENDBRANCH   1  10
BRANCH   4  19
ATOM     19  N   UNL     1       3.557  -1.807  -4.981  0.00  0.00    -0.229 N 
ATOM     20  C   UNL     1       4.041  -2.283  -6.146  0.00  0.00    +0.260 C 
ATOM     21  O   UNL     1       5.083  -1.845  -6.595  0.00  0.00    -0.269 OA
ATOM     22  H   UNL     1       2.726  -2.156  -4.623  0.00  0.00    +0.173 HD
BRANCH  20  23
ATOM     23  C   UNL     1       3.306  -3.335  -6.877  0.00  0.00    +0.038 A 
ATOM     24  C   UNL     1       2.106  -3.834  -6.365  0.00  0.00    +0.015 A 
ATOM     25  C   UNL     1       1.423  -4.816  -7.050  0.00  0.00    +0.028 A 
ATOM     26  C   UNL     1       1.927  -5.309  -8.248  0.00  0.00    +0.069 A 
ATOM     27  C   UNL     1       3.121  -4.815  -8.759  0.00  0.00    +0.028 A 
ATOM     28  C   UNL     1       3.806  -3.829  -8.084  0.00  0.00    +0.015 A 
BRANCH  26  29
ATOM     29  N   UNL     1       1.231  -6.306  -8.940  0.00  0.00    -0.200 N 
ATOM     30  C   UNL     1       1.582  -6.894 -10.105  0.00  0.00    +0.250 A 
ATOM     31  N   UNL     1       0.653  -7.768 -10.394  0.00  0.00    -0.116 NA
ATOM     32  N   UNL     1      -0.261  -7.772  -9.492  0.00  0.00    -0.023 NA
ATOM     33  N   UNL     1       0.019  -6.916  -8.569  0.00  0.00    -0.039 NA
ENDBRANCH  26  29
ENDBRANCH  20  23
ENDBRANCH   4  19
TORSDOF 4
