REMARK  Name = ZINC40838827
REMARK  7 active torsions:
REMARK  status: ('A' for Active; 'I' for Inactive)
REMARK    1  A    between atoms: C_1  and  C_2
REMARK    2  A    between atoms: C_2  and  C_4
REMARK    3  A    between atoms: C_2  and  C_16
REMARK    4  A    between atoms: N_18  and  C_19
REMARK    5  A    between atoms: C_24  and  C_25
REMARK    6  A    between atoms: C_25  and  C_26
REMARK    7  A    between atoms: C_25  and  C_27
REMARK                            x       y       z     vdW  Elec       q    Type
REMARK                         _______ _______ _______ _____ _____    ______ ____
ROOT
ATOM      1  C   UNL     1      -0.003   1.513  -0.006  0.00  0.00    +0.019 C 
ATOM      2  C   UNL     1       0.008  -0.017  -0.009  0.00  0.00    +0.094 C 
ENDROOT
BRANCH   2   3
ATOM      3  C   UNL     1       0.749  -0.524   1.230  0.00  0.00    +0.149 C 
ATOM      4  C   UNL     1       2.127   0.077   1.275  0.00  0.00    +0.231 C 
ATOM      5  O   UNL     1       2.290   1.087   1.927  0.00  0.00    -0.274 OA
ATOM      6  N   UNL     1       3.176  -0.436   0.639  0.00  0.00    -0.284 N 
ATOM      7  C   UNL     1       3.178  -1.577  -0.160  0.00  0.00    +0.047 A 
ATOM      8  C   UNL     1       4.185  -1.749  -1.104  0.00  0.00    +0.024 A 
ATOM      9  C   UNL     1       4.205  -2.877  -1.901  0.00  0.00    +0.002 A 
ATOM     10  C   UNL     1       3.226  -3.845  -1.771  0.00  0.00    +0.001 A 
ATOM     11  C   UNL     1       2.218  -3.686  -0.838  0.00  0.00    +0.016 A 
ATOM     12  C   UNL     1       2.191  -2.556  -0.038  0.00  0.00    +0.030 A 
ATOM     13  S   UNL     1       0.900  -2.335   1.151  0.00  0.00    -0.110 S 
ATOM     14  H   UNL     1       4.021   0.028   0.741  0.00  0.00    +0.155 HD
ENDBRANCH   2   3
BRANCH   2  15
ATOM     15  C   UNL     1      -1.410  -0.529   0.009  0.00  0.00    +0.222 C 
ATOM     16  O   UNL     1      -1.790  -1.230   0.922  0.00  0.00    -0.275 OA
ATOM     17  N   UNL     1      -2.255  -0.207  -0.990  0.00  0.00    -0.285 N 
ATOM     18  H   UNL     1      -1.977   0.417  -1.679  0.00  0.00    +0.155 HD
BRANCH  17  19
ATOM     19  C   UNL     1      -3.534  -0.774  -1.035  0.00  0.00    +0.037 A 
ATOM     20  C   UNL     1      -3.775  -1.996  -0.420  0.00  0.00    +0.023 A 
ATOM     21  C   UNL     1      -5.038  -2.552  -0.466  0.00  0.00    +0.002 A 
ATOM     22  C   UNL     1      -6.062  -1.895  -1.124  0.00  0.00    +0.000 A 
ATOM     23  C   UNL     1      -5.824  -0.679  -1.738  0.00  0.00    +0.006 A 
ATOM     24  C   UNL     1      -4.565  -0.114  -1.690  0.00  0.00    -0.024 A 
BRANCH  24  25
ATOM     25  C   UNL     1      -4.309   1.215  -2.353  0.00  0.00    +0.015 C 
ATOM     26  C   UNL     1      -4.730   1.142  -3.821  0.00  0.00    +0.012 C 
ATOM     27  C   UNL     1      -5.118   2.303  -1.643  0.00  0.00    +0.012 C 
ENDBRANCH  24  25
ENDBRANCH  17  19
ENDBRANCH   2  15
TORSDOF 4
