REMARK  Name = ZINC65835676
REMARK  5 active torsions:
REMARK  status: ('A' for Active; 'I' for Inactive)
REMARK    1  A    between atoms: C_1  and  C_2
REMARK    2  A    between atoms: C_7  and  C_8
REMARK    3  A    between atoms: N_10  and  N_11
REMARK    4  A    between atoms: C_12  and  C_14
REMARK    5  A    between atoms: C_15  and  C_19
REMARK                            x       y       z     vdW  Elec       q    Type
REMARK                         _______ _______ _______ _____ _____    ______ ____
ROOT
ATOM      1  N   UNL     1       0.573   0.035   4.838  0.00  0.00    -0.230 N 
ATOM      2  C   UNL     1       0.796  -0.642   5.982  0.00  0.00    +0.267 C 
ATOM      3  O   UNL     1       0.903  -1.855   5.960  0.00  0.00    -0.268 OA
ATOM      4  H   UNL     1       0.487   1.001   4.856  0.00  0.00    +0.173 HD
ENDROOT
BRANCH   2   5
ATOM      5  C   UNL     1       0.909   0.079   7.249  0.00  0.00    +0.083 A 
ATOM      6  C   UNL     1       1.141  -0.425   8.533  0.00  0.00    +0.001 A 
ATOM      7  C   UNL     1       1.194   0.526   9.540  0.00  0.00    +0.017 A 
ATOM      8  C   UNL     1       1.024   1.829   9.223  0.00  0.00    +0.046 A 
ATOM      9  S   UNL     1       0.793   1.831   7.559  0.00  0.00    -0.091 S 
BRANCH   6  10
ATOM     10  C   UNL     1       1.317  -1.871   8.798  0.00  0.00    -0.016 A 
ATOM     11  C   UNL     1       0.398  -2.792   8.293  0.00  0.00    +0.011 A 
ATOM     12  C   UNL     1       0.567  -4.138   8.542  0.00  0.00    +0.039 A 
ATOM     13  C   UNL     1       1.646  -4.577   9.292  0.00  0.00    +0.123 A 
ATOM     14  C   UNL     1       2.562  -3.666   9.795  0.00  0.00    +0.039 A 
ATOM     15  C   UNL     1       2.405  -2.318   9.547  0.00  0.00    +0.011 A 
ATOM     16  F   UNL     1       1.807  -5.896   9.533  0.00  0.00    -0.205 F 
ENDBRANCH   6  10
ENDBRANCH   2   5
BRANCH   1  19
ATOM     17  C   UNL     1       0.242   0.021   2.481  0.00  0.00    +0.260 C 
ATOM     18  O   UNL     1       0.135   1.232   2.503  0.00  0.00    -0.269 OA
ATOM     19  N   UNL     1       0.465  -0.656   3.625  0.00  0.00    -0.230 N 
ATOM     20  H   UNL     1       0.550  -1.622   3.607  0.00  0.00    +0.173 HD
BRANCH  17  27
ATOM     21  C   UNL     1      -0.511   1.452   0.082  0.00  0.00    +0.044 C 
ATOM     22  C   UNL     1      -0.235  -0.028   0.036  0.00  0.00    -0.038 A 
ATOM     23  C   UNL     1      -0.334  -0.714  -1.157  0.00  0.00    +0.004 A 
ATOM     24  C   UNL     1      -0.080  -2.073  -1.200  0.00  0.00    +0.000 A 
ATOM     25  C   UNL     1       0.275  -2.754  -0.049  0.00  0.00    +0.001 A 
ATOM     26  C   UNL     1       0.378  -2.080   1.150  0.00  0.00    +0.013 A 
ATOM     27  C   UNL     1       0.128  -0.708   1.200  0.00  0.00    +0.041 A 
ENDBRANCH  17  27
ENDBRANCH   1  19
TORSDOF 4
