REMARK  Name = ZINC39448256
REMARK  9 active torsions:
REMARK  status: ('A' for Active; 'I' for Inactive)
REMARK    1  A    between atoms: C_1  and  C_2
REMARK    2  A    between atoms: C_4  and  C_16
REMARK    3  A    between atoms: C_5  and  C_15
REMARK    4  A    between atoms: N_7  and  C_8
REMARK    5  A    between atoms: C_8  and  C_9
REMARK    6  A    between atoms: C_16  and  N_17
REMARK    7  A    between atoms: C_18  and  C_20
REMARK    8  A    between atoms: C_20  and  C_21
REMARK    9  A    between atoms: C_21  and  N_22
REMARK                            x       y       z     vdW  Elec       q    Type
REMARK                         _______ _______ _______ _____ _____    ______ ____
ROOT
ATOM      1  N   UNL     1      -0.464  -1.832  -2.805  0.00  0.00    -0.311 N 
ATOM      2  C   UNL     1      -1.006  -2.110  -4.007  0.00  0.00    +0.215 C 
ATOM      3  O   UNL     1      -0.871  -1.332  -4.928  0.00  0.00    -0.276 OA
ATOM      4  H   UNL     1      -0.572  -2.454  -2.068  0.00  0.00    +0.149 HD
ENDROOT
BRANCH   1   5
ATOM      5  C   UNL     1       0.288  -0.591  -2.610  0.00  0.00    +0.138 C 
BRANCH   5   8
ATOM      6  C   UNL     1      -0.019   1.526   0.010  0.00  0.00    +0.030 C 
ATOM      7  C   UNL     1       0.002  -0.004   0.002  0.00  0.00    +0.100 C 
ATOM      8  C   UNL     1       0.784  -0.522  -1.188  0.00  0.00    -0.018 C 
ATOM      9  C   UNL     1       1.965  -0.899  -0.768  0.00  0.00    -0.000 C 
ATOM     10  N   UNL     1       2.110  -0.697   0.607  0.00  0.00    -0.354 NA
ATOM     11  N   UNL     1       0.762  -0.524   1.167  0.00  0.00    -0.235 NA
ATOM     12  C   UNL     1       3.035  -1.480  -1.657  0.00  0.00    +0.060 C 
ATOM     13  H   UNL     1       2.556  -1.498   1.027  0.00  0.00    +0.141 HD
ATOM     14  H   UNL     1       2.661   0.132   0.775  0.00  0.00    +0.141 HD
BRANCH  11  15
ATOM     15  C   UNL     1       0.767   0.447   2.269  0.00  0.00    +0.139 C 
BRANCH  15  16
ATOM     16  C   UNL     1       1.439  -0.162   3.472  0.00  0.00    -0.032 A 
ATOM     17  C   UNL     1       0.694  -0.868   4.397  0.00  0.00    +0.005 A 
ATOM     18  C   UNL     1       1.310  -1.426   5.501  0.00  0.00    +0.000 A 
ATOM     19  C   UNL     1       2.673  -1.279   5.680  0.00  0.00    +0.000 A 
ATOM     20  C   UNL     1       3.419  -0.573   4.754  0.00  0.00    +0.000 A 
ATOM     21  C   UNL     1       2.803  -0.019   3.648  0.00  0.00    +0.005 A 
ENDBRANCH  15  16
ENDBRANCH  11  15
ENDBRANCH   5   8
ENDBRANCH   1   5
BRANCH   2  22
ATOM     22  C   UNL     1      -1.780  -3.388  -4.207  0.00  0.00    +0.117 C 
BRANCH  22  23
ATOM     23  C   UNL     1      -2.284  -3.458  -5.651  0.00  0.00    +0.136 C 
BRANCH  23  24
ATOM     24  N   UNL     1      -3.036  -4.699  -5.846  0.00  0.00    -0.288 N 
ATOM     25  C   UNL     1      -2.385  -5.812  -6.248  0.00  0.00    +0.262 A 
ATOM     26  O   UNL     1      -1.186  -5.795  -6.448  0.00  0.00    -0.267 OA
ATOM     27  C   UNL     1      -3.166  -7.048  -6.436  0.00  0.00    +0.063 A 
ATOM     28  C   UNL     1      -2.567  -8.237  -6.848  0.00  0.00    +0.015 A 
ATOM     29  C   UNL     1      -3.342  -9.367  -7.010  0.00  0.00    +0.001 A 
ATOM     30  C   UNL     1      -4.706  -9.323  -6.765  0.00  0.00    +0.002 A 
ATOM     31  C   UNL     1      -5.311  -8.152  -6.356  0.00  0.00    +0.026 A 
ATOM     32  C   UNL     1      -4.548  -7.006  -6.188  0.00  0.00    +0.053 A 
ATOM     33  N   UNL     1      -5.117  -5.809  -5.778  0.00  0.00    -0.335 N 
ATOM     34  H   UNL     1      -6.070  -5.764  -5.603  0.00  0.00    +0.168 HD
ATOM     35  C   UNL     1      -4.359  -4.711  -5.616  0.00  0.00    +0.161 A 
ATOM     36  S   UNL     1      -5.113  -3.263  -5.101  0.00  0.00    -0.013 S 
ENDBRANCH  23  24
ENDBRANCH  22  23
ENDBRANCH   2  22
TORSDOF 7
