REMARK  Name = ZINC39601405
REMARK  8 active torsions:
REMARK  status: ('A' for Active; 'I' for Inactive)
REMARK    1  A    between atoms: C_1  and  C_2
REMARK    2  A    between atoms: C_2  and  C_3
REMARK    3  A    between atoms: C_2  and  C_4
REMARK    4  A    between atoms: C_4  and  C_5
REMARK    5  A    between atoms: C_5  and  N_6
REMARK    6  A    between atoms: C_7  and  C_9
REMARK    7  A    between atoms: C_20  and  C_22
REMARK    8  A    between atoms: C_25  and  C_27
REMARK                            x       y       z     vdW  Elec       q    Type
REMARK                         _______ _______ _______ _____ _____    ______ ____
ROOT
ATOM      1  C   UNL     1       0.888  -0.881   6.133  0.00  0.00    +0.100 C 
ATOM      2  C   UNL     1       2.318  -0.298   6.181  0.00  0.00    +0.121 C 
ATOM      3  N   UNL     1       2.205   0.900   7.045  0.00  0.00    -0.294 N 
ATOM      4  C   UNL     1       1.274   0.490   8.124  0.00  0.00    +0.115 C 
ATOM      5  C   UNL     1       0.207  -0.365   7.411  0.00  0.00    -0.004 C 
ATOM      6  C   UNL     1      -0.211  -1.534   8.297  0.00  0.00    -0.010 C 
ATOM      7  C   UNL     1      -0.937  -0.998   9.534  0.00  0.00    -0.082 C 
ATOM      8  N   UNL     1      -2.115  -0.229   9.116  0.00  0.00    +0.379 N 
ATOM      9  C   UNL     1      -1.698   0.947   8.343  0.00  0.00    -0.082 C 
ATOM     10  C   UNL     1      -1.003   0.493   7.056  0.00  0.00    -0.010 C 
ATOM     11  C   UNL     1       2.812   2.093   6.887  0.00  0.00    +0.282 C 
ATOM     12  O   UNL     1       2.616   2.987   7.690  0.00  0.00    -0.267 OA
ATOM     13  H   UNL     1      -2.711  -0.811   8.546  0.00  0.00    -0.086 HD
ATOM     14  H   UNL     1      -2.626   0.072   9.933  0.00  0.00    -0.086 HD
ENDROOT
BRANCH  11  15
ATOM     15  C   UNL     1       3.706   2.314   5.748  0.00  0.00    +0.190 A 
ATOM     16  C   UNL     1       4.391   3.478   5.472  0.00  0.00    +0.055 A 
ATOM     17  C   UNL     1       5.120   3.248   4.300  0.00  0.00    +0.051 A 
ATOM     18  C   UNL     1       4.856   1.966   3.908  0.00  0.00    +0.139 A 
ATOM     19  O   UNL     1       4.008   1.412   4.791  0.00  0.00    -0.450 OA
BRANCH  18  20
ATOM     20  C   UNL     1       5.415   1.299   2.716  0.00  0.00    +0.052 A 
ATOM     21  C   UNL     1       5.367   1.930   1.471  0.00  0.00    +0.014 A 
ATOM     22  C   UNL     1       5.891   1.301   0.361  0.00  0.00    +0.001 A 
ATOM     23  C   UNL     1       6.465   0.047   0.478  0.00  0.00    +0.003 A 
ATOM     24  C   UNL     1       6.518  -0.586   1.706  0.00  0.00    +0.039 A 
ATOM     25  C   UNL     1       6.002   0.035   2.829  0.00  0.00    +0.134 A 
ATOM     26  F   UNL     1       6.059  -0.581   4.030  0.00  0.00    -0.205 F 
ENDBRANCH  18  20
ENDBRANCH  11  15
BRANCH   1  28
ATOM     27  N   UNL     1      -0.811  -1.132   4.353  0.00  0.00    -0.315 N 
ATOM     28  C   UNL     1       0.159  -0.382   4.912  0.00  0.00    +0.218 C 
ATOM     29  O   UNL     1       0.446   0.694   4.432  0.00  0.00    -0.275 OA
ATOM     30  H   UNL     1      -1.040  -1.993   4.736  0.00  0.00    +0.149 HD
BRANCH  27  31
ATOM     31  C   UNL     1      -1.520  -0.647   3.166  0.00  0.00    +0.104 C 
BRANCH  31  32
ATOM     32  C   UNL     1      -2.563  -1.680   2.736  0.00  0.00    +0.022 C 
BRANCH  32  34
ATOM     33  C   UNL     1      -2.325  -1.074   0.324  0.00  0.00    +0.007 C 
ATOM     34  C   UNL     1      -3.303  -1.173   1.497  0.00  0.00    -0.016 C 
ATOM     35  C   UNL     1      -4.428  -2.147   1.141  0.00  0.00    +0.007 C 
ENDBRANCH  32  34
ENDBRANCH  31  32
ENDBRANCH  27  31
ENDBRANCH   1  28
TORSDOF 6
