REMARK  Name = ZINC64538896
REMARK  10 active torsions:
REMARK  status: ('A' for Active; 'I' for Inactive)
REMARK    1  A    between atoms: C_1  and  C_2
REMARK    2  A    between atoms: C_7  and  N_8
REMARK    3  A    between atoms: C_9  and  C_11
REMARK    4  A    between atoms: C_15  and  C_18
REMARK    5  A    between atoms: C_18  and  C_19
REMARK    6  A    between atoms: C_19  and  C_20
REMARK    7  A    between atoms: C_20  and  C_21
REMARK    8  A    between atoms: N_23  and  C_24
REMARK    9  A    between atoms: C_24  and  C_25
REMARK   10  A    between atoms: C_25  and  C_26
REMARK                            x       y       z     vdW  Elec       q    Type
REMARK                         _______ _______ _______ _____ _____    ______ ____
ROOT
ATOM      1  C   UNL     1       0.831  -2.113   9.118  0.00  0.00    +0.012 C 
ENDROOT
BRANCH   1   2
ATOM      2  C   UNL     1       1.675  -1.317   8.120  0.00  0.00    +0.040 C 
BRANCH   2   6
ATOM      3  C   UNL     1      -0.168   0.052   4.882  0.00  0.00    +0.272 C 
ATOM      4  N   UNL     1       1.133   0.636   5.282  0.00  0.00    -0.167 NA
ATOM      5  N   UNL     1       1.560   0.485   6.410  0.00  0.00    -0.177 NA
ATOM      6  C   UNL     1       0.792  -0.287   7.412  0.00  0.00    +0.187 C 
ATOM      7  S   UNL     1      -0.440  -1.104   6.299  0.00  0.00    -0.095 S 
BRANCH   3   9
ATOM      8  N   UNL     1       0.025  -0.015   2.417  0.00  0.00    -0.283 N 
ATOM      9  C   UNL     1      -0.056  -0.694   3.578  0.00  0.00    +0.254 C 
ATOM     10  O   UNL     1      -0.040  -1.907   3.573  0.00  0.00    -0.272 OA
ATOM     11  H   UNL     1       0.078   0.954   2.425  0.00  0.00    +0.155 HD
BRANCH   8  18
ATOM     12  C   UNL     1      -1.264   1.184   0.181  0.00  0.00    +0.045 C 
ATOM     13  C   UNL     1      -0.584  -0.158   0.084  0.00  0.00    -0.029 A 
ATOM     14  C   UNL     1      -0.568  -0.840  -1.117  0.00  0.00    +0.005 A 
ATOM     15  C   UNL     1       0.056  -2.071  -1.206  0.00  0.00    +0.000 A 
ATOM     16  C   UNL     1       0.666  -2.622  -0.095  0.00  0.00    +0.002 A 
ATOM     17  C   UNL     1       0.655  -1.945   1.108  0.00  0.00    +0.023 A 
ATOM     18  C   UNL     1       0.034  -0.706   1.201  0.00  0.00    +0.036 A 
ENDBRANCH   8  18
ENDBRANCH   3   9
ENDBRANCH   2   6
ENDBRANCH   1   2
BRANCH   1  19
ATOM     19  C   UNL     1       1.715  -3.143   9.825  0.00  0.00    +0.096 C 
BRANCH  19  20
ATOM     20  C   UNL     1       0.884  -3.926  10.808  0.00  0.00    +0.213 C 
ATOM     21  O   UNL     1      -0.299  -3.685  10.931  0.00  0.00    -0.276 OA
ATOM     22  N   UNL     1       1.454  -4.896  11.550  0.00  0.00    -0.315 N 
ATOM     23  H   UNL     1       2.400  -5.088  11.452  0.00  0.00    +0.149 HD
BRANCH  22  24
ATOM     24  C   UNL     1       0.647  -5.658  12.506  0.00  0.00    +0.108 C 
BRANCH  24  25
ATOM     25  C   UNL     1       1.530  -6.688  13.213  0.00  0.00    +0.052 C 
BRANCH  25  26
ATOM     26  C   UNL     1       0.699  -7.471  14.196  0.00  0.00    -0.040 C 
ATOM     27  C   UNL     1       0.104  -8.668  13.986  0.00  0.00    -0.001 A 
ATOM     28  C   UNL     1       0.054  -9.563  12.824  0.00  0.00    +0.010 A 
ATOM     29  C   UNL     1      -0.638 -10.721  12.917  0.00  0.00    +0.001 A 
ATOM     30  C   UNL     1      -1.308 -11.086  14.092  0.00  0.00    +0.002 A 
ATOM     31  C   UNL     1      -1.308 -10.317  15.201  0.00  0.00    +0.026 A 
ATOM     32  C   UNL     1      -0.611  -9.077  15.216  0.00  0.00    +0.043 A 
ATOM     33  N   UNL     1      -0.465  -8.169  16.150  0.00  0.00    -0.380 N 
ATOM     34  C   UNL     1       0.366  -7.083  15.619  0.00  0.00    +0.144 C 
ATOM     35  H   UNL     1      -0.840  -8.211  17.043  0.00  0.00    +0.160 HD
ENDBRANCH  25  26
ENDBRANCH  24  25
ENDBRANCH  22  24
ENDBRANCH  19  20
ENDBRANCH   1  19
TORSDOF 9
