REMARK  Name = ZINC44785859
REMARK  6 active torsions:
REMARK  status: ('A' for Active; 'I' for Inactive)
REMARK    1  A    between atoms: C_1  and  C_2
REMARK    2  A    between atoms: C_5  and  N_8
REMARK    3  A    between atoms: N_8  and  C_9
REMARK    4  A    between atoms: C_10  and  C_12
REMARK    5  A    between atoms: C_12  and  C_18
REMARK    6  A    between atoms: N_19  and  O_20
REMARK                            x       y       z     vdW  Elec       q    Type
REMARK                         _______ _______ _______ _____ _____    ______ ____
ROOT
ATOM      1  C   UNL     1      -1.088  -6.193   2.256  0.00  0.00    +0.105 C 
ATOM      2  C   UNL     1      -1.741  -6.949   3.416  0.00  0.00    +0.024 C 
ATOM      3  C   UNL     1      -1.265  -6.356   4.743  0.00  0.00    +0.001 C 
ATOM      4  C   UNL     1       0.256  -6.484   4.843  0.00  0.00    +0.000 C 
ATOM      5  C   UNL     1       0.909  -5.728   3.684  0.00  0.00    +0.001 C 
ATOM      6  C   UNL     1       0.433  -6.321   2.356  0.00  0.00    +0.024 C 
ENDROOT
BRANCH   1   7
ATOM      7  C   UNL     1      -1.556  -6.777   0.949  0.00  0.00    +0.147 C 
ATOM      8  N   UNL     1      -0.718  -7.382   0.174  0.00  0.00    -0.076 NA
ATOM      9  N   UNL     1      -2.878  -6.666   0.579  0.00  0.00    -0.343 N 
ATOM     10  H   UNL     1      -3.492  -6.148   1.123  0.00  0.00    +0.144 HD
ATOM     11  H   UNL     1      -3.196  -7.106  -0.225  0.00  0.00    +0.144 HD
BRANCH   8  12
ATOM     12  O   UNL     1      -1.158  -7.931  -1.055  0.00  0.00    -0.408 OA
ATOM     13  H   UNL     1      -0.460  -8.364  -1.565  0.00  0.00    +0.328 HD
ENDBRANCH   8  12
ENDBRANCH   1   7
BRANCH   1  16
ATOM     14  N   UNL     1      -0.946  -3.859   1.451  0.00  0.00    -0.301 N 
ATOM     15  C   UNL     1      -0.089  -4.333   0.362  0.00  0.00    +0.132 C 
ATOM     16  C   UNL     1      -1.476  -4.738   2.324  0.00  0.00    +0.229 C 
ATOM     17  O   UNL     1      -2.264  -4.359   3.164  0.00  0.00    -0.275 OA
BRANCH  14  22
ATOM     18  C   UNL     1      -1.201   1.830   0.821  0.00  0.00    +0.007 C 
ATOM     19  C   UNL     1      -0.906   0.336   0.675  0.00  0.00    -0.014 C 
ATOM     20  C   UNL     1      -2.217  -0.425   0.471  0.00  0.00    +0.005 C 
ATOM     21  C   UNL     1      -1.922  -1.919   0.325  0.00  0.00    +0.023 C 
ATOM     22  C   UNL     1      -1.229  -2.428   1.590  0.00  0.00    +0.076 C 
ATOM     23  C   UNL     1       0.083  -1.667   1.794  0.00  0.00    +0.023 C 
ATOM     24  C   UNL     1      -0.212  -0.173   1.940  0.00  0.00    +0.005 C 
ENDBRANCH  14  22
ENDBRANCH   1  16
TORSDOF 4
