REMARK  Name = ZINC43262815
REMARK  10 active torsions:
REMARK  status: ('A' for Active; 'I' for Inactive)
REMARK    1  A    between atoms: C_1  and  C_2
REMARK    2  A    between atoms: C_2  and  C_3
REMARK    3  A    between atoms: C_3  and  C_5
REMARK    4  A    between atoms: C_3  and  N_23
REMARK    5  A    between atoms: C_5  and  C_7
REMARK    6  A    between atoms: C_5  and  N_13
REMARK    7  A    between atoms: N_13  and  C_14
REMARK    8  A    between atoms: N_13  and  C_17
REMARK    9  A    between atoms: C_14  and  C_15
REMARK   10  A    between atoms: C_15  and  O_16
REMARK                            x       y       z     vdW  Elec       q    Type
REMARK                         _______ _______ _______ _____ _____    ______ ____
ROOT
ATOM      1  C   UNL     1       0.656  -1.874  -1.359  0.00  0.00    -0.013 C 
ENDROOT
BRANCH   1   2
ATOM      2  C   UNL     1       1.569  -2.472  -0.320  0.00  0.00    -0.021 A 
ATOM      3  C   UNL     1       2.410  -1.846   0.539  0.00  0.00    +0.011 A 
ATOM      4  C   UNL     1       3.160  -2.606   1.417  0.00  0.00    +0.023 A 
ATOM      5  C   UNL     1       3.033  -3.956   1.392  0.00  0.00    +0.055 A 
ATOM      6  S   UNL     1       1.817  -4.188   0.105  0.00  0.00    -0.088 S 
ATOM      7 BR   UNL     1       3.909  -5.255   2.450  0.00  0.00    -0.043 Br
ENDBRANCH   1   2
BRANCH   1   8
ATOM      8  N   UNL     1      -0.716  -2.348  -1.137  0.00  0.00    +0.389 N 
ATOM      9  H   UNL     1      -1.260  -2.212  -1.976  0.00  0.00    -0.080 HD
BRANCH   8  10
ATOM     10  C   UNL     1      -1.322  -1.592  -0.033  0.00  0.00    -0.068 C 
ATOM     11  C   UNL     1      -1.489  -0.129  -0.448  0.00  0.00    -0.015 C 
ATOM     12  C   UNL     1      -2.120   0.659   0.702  0.00  0.00    -0.002 C 
ATOM     13  C   UNL     1      -1.216   0.578   1.933  0.00  0.00    -0.000 C 
ATOM     14  C   UNL     1      -1.049  -0.885   2.348  0.00  0.00    -0.002 C 
ATOM     15  C   UNL     1      -0.417  -1.673   1.198  0.00  0.00    -0.015 C 
ENDBRANCH   8  10
BRANCH   8  16
ATOM     16  C   UNL     1      -0.692  -3.777  -0.796  0.00  0.00    -0.049 C 
BRANCH  16  17
ATOM     17  C   UNL     1      -2.123  -4.316  -0.757  0.00  0.00    +0.137 C 
BRANCH  17  18
ATOM     18  O   UNL     1      -2.695  -4.245  -2.065  0.00  0.00    -0.397 OA
ATOM     19  H   UNL     1      -3.603  -4.572  -2.115  0.00  0.00    +0.209 HD
ENDBRANCH  17  18
ENDBRANCH  16  17
ENDBRANCH   8  16
ENDBRANCH   1   8
BRANCH   1  20
ATOM     20  C   UNL     1       1.123  -2.300  -2.753  0.00  0.00    +0.042 C 
BRANCH  20  21
ATOM     21  N   UNL     1       2.537  -1.941  -2.926  0.00  0.00    -0.328 NA
ATOM     22  H   UNL     1       2.887  -2.268  -3.814  0.00  0.00    +0.118 HD
ATOM     23  H   UNL     1       2.672  -0.946  -2.830  0.00  0.00    +0.118 HD
ENDBRANCH  20  21
BRANCH  20  25
ATOM     24  C   UNL     1       0.695  -2.069  -5.204  0.00  0.00    +0.005 C 
ATOM     25  C   UNL     1       0.282  -1.585  -3.812  0.00  0.00    +0.014 C 
ENDBRANCH  20  25
ENDBRANCH   1  20
TORSDOF 9
