REMARK  Name = ZINC40893040
REMARK  11 active torsions:
REMARK  status: ('A' for Active; 'I' for Inactive)
REMARK    1  A    between atoms: C_1  and  C_2
REMARK    2  A    between atoms: C_2  and  C_3
REMARK    3  A    between atoms: C_2  and  C_4
REMARK    4  A    between atoms: C_6  and  C_9
REMARK    5  A    between atoms: C_12  and  N_16
REMARK    6  A    between atoms: C_20  and  C_23
REMARK    7  A    between atoms: N_25  and  C_26
REMARK    8  A    between atoms: C_26  and  C_27
REMARK    9  A    between atoms: C_27  and  C_28
REMARK   10  A    between atoms: C_31  and  S_34
REMARK   11  A    between atoms: S_34  and  N_37
REMARK                            x       y       z     vdW  Elec       q    Type
REMARK                         _______ _______ _______ _____ _____    ______ ____
ROOT
ATOM      1  N   UNL     1      -6.781  -4.741  -3.604  0.00  0.00    -0.327 N 
ATOM      2  C   UNL     1      -7.627  -4.136  -4.641  0.00  0.00    +0.105 C 
ATOM      3  C   UNL     1      -9.085  -4.522  -4.376  0.00  0.00    +0.020 C 
ATOM      4  C   UNL     1      -9.197  -6.045  -4.284  0.00  0.00    +0.016 C 
ATOM      5  C   UNL     1      -8.344  -6.551  -3.119  0.00  0.00    +0.092 C 
ATOM      6  C   UNL     1      -6.873  -6.189  -3.374  0.00  0.00    +0.118 C 
ENDROOT
BRANCH   1  10
ATOM      7  C   UNL     1      -4.159  -2.396  -1.368  0.00  0.00    +0.025 A 
ATOM      8  C   UNL     1      -3.734  -2.974  -2.563  0.00  0.00    +0.013 A 
ATOM      9  C   UNL     1      -4.603  -3.750  -3.301  0.00  0.00    +0.027 A 
ATOM     10  C   UNL     1      -5.903  -3.956  -2.854  0.00  0.00    +0.065 A 
ATOM     11  C   UNL     1      -6.331  -3.380  -1.661  0.00  0.00    +0.145 A 
ATOM     12  C   UNL     1      -5.462  -2.607  -0.918  0.00  0.00    +0.052 A 
ATOM     13  F   UNL     1      -7.595  -3.580  -1.230  0.00  0.00    -0.204 F 
BRANCH   7  16
ATOM     14  C   UNL     1      -1.412  -0.526   0.013  0.00  0.00    +0.230 A 
ATOM     15  N   UNL     1      -1.950  -1.284  -0.899  0.00  0.00    -0.191 NA
ATOM     16  C   UNL     1      -3.225  -1.562  -0.574  0.00  0.00    +0.202 A 
ATOM     17  N   UNL     1      -3.505  -0.971   0.563  0.00  0.00    -0.056 NA
ATOM     18  O   UNL     1      -2.325  -0.292   0.964  0.00  0.00    -0.337 OA
BRANCH  14  20
ATOM     19  C   UNL     1      -0.019   1.526   0.010  0.00  0.00    +0.017 C 
ATOM     20  C   UNL     1       0.002  -0.004   0.002  0.00  0.00    +0.072 C 
ATOM     21  C   UNL     1       0.742  -0.511   1.242  0.00  0.00    +0.017 C 
ENDBRANCH  14  20
ENDBRANCH   7  16
ENDBRANCH   1  10
BRANCH   5  22
ATOM     22  C   UNL     1      -8.480  -8.048  -3.008  0.00  0.00    +0.218 C 
ATOM     23  O   UNL     1      -7.501  -8.756  -3.116  0.00  0.00    -0.275 OA
ATOM     24  N   UNL     1      -9.690  -8.600  -2.789  0.00  0.00    -0.315 N 
ATOM     25  H   UNL     1     -10.473  -8.034  -2.702  0.00  0.00    +0.149 HD
BRANCH  24  26
ATOM     26  C   UNL     1      -9.823 -10.055  -2.681  0.00  0.00    +0.109 C 
BRANCH  26  27
ATOM     27  C   UNL     1     -11.289 -10.416  -2.434  0.00  0.00    +0.054 C 
BRANCH  27  28
ATOM     28  C   UNL     1     -11.425 -11.913  -2.323  0.00  0.00    -0.046 A 
ATOM     29  C   UNL     1     -11.664 -12.671  -3.455  0.00  0.00    +0.005 A 
ATOM     30  C   UNL     1     -11.790 -14.044  -3.353  0.00  0.00    +0.029 A 
ATOM     31  C   UNL     1     -11.675 -14.659  -2.121  0.00  0.00    +0.105 A 
ATOM     32  C   UNL     1     -11.436 -13.901  -0.990  0.00  0.00    +0.029 A 
ATOM     33  C   UNL     1     -11.306 -12.529  -1.091  0.00  0.00    +0.005 A 
BRANCH  31  34
ATOM     34  S   UNL     1     -11.836 -16.409  -1.991  0.00  0.00    +0.056 S 
ATOM     35  O   UNL     1     -12.232 -16.683  -0.654  0.00  0.00    -0.153 OA
ATOM     36  O   UNL     1     -12.600 -16.831  -3.113  0.00  0.00    -0.153 OA
BRANCH  34  37
ATOM     37  N   UNL     1     -10.323 -17.055  -2.179  0.00  0.00    -0.204 NA
ATOM     38  H   UNL     1     -10.093 -17.888  -1.738  0.00  0.00    +0.144 HD
ATOM     39  H   UNL     1      -9.667 -16.601  -2.730  0.00  0.00    +0.144 HD
ENDBRANCH  34  37
ENDBRANCH  31  34
ENDBRANCH  27  28
ENDBRANCH  26  27
ENDBRANCH  24  26
ENDBRANCH   5  22
TORSDOF 9
