REMARK  Name = ZINC39678156
REMARK  10 active torsions:
REMARK  status: ('A' for Active; 'I' for Inactive)
REMARK    1  A    between atoms: C_1  and  C_2
REMARK    2  A    between atoms: C_2  and  C_3
REMARK    3  A    between atoms: C_3  and  C_4
REMARK    4  A    between atoms: C_4  and  C_5
REMARK    5  A    between atoms: C_5  and  C_7
REMARK    6  A    between atoms: C_5  and  C_8
REMARK    7  A    between atoms: C_12  and  C_21
REMARK    8  A    between atoms: N_23  and  C_24
REMARK    9  A    between atoms: C_24  and  C_25
REMARK   10  A    between atoms: C_28  and  N_31
REMARK                            x       y       z     vdW  Elec       q    Type
REMARK                         _______ _______ _______ _____ _____    ______ ____
ROOT
ATOM      1  C   UNL     1       1.296  -3.903  -2.513  0.00  0.00    +0.218 C 
ATOM      2  O   UNL     1       0.625  -4.513  -1.708  0.00  0.00    -0.275 OA
ATOM      3  N   UNL     1       1.977  -4.570  -3.466  0.00  0.00    -0.300 N 
ATOM      4  C   UNL     1       2.925  -4.016  -4.461  0.00  0.00    +0.121 C 
ATOM      5  C   UNL     1       4.056  -5.065  -4.549  0.00  0.00    +0.100 C 
ATOM      6  C   UNL     1       3.408  -6.381  -4.086  0.00  0.00    -0.004 C 
ATOM      7  C   UNL     1       1.952  -6.025  -3.751  0.00  0.00    +0.115 C 
ATOM      8  C   UNL     1       3.455  -7.415  -5.206  0.00  0.00    -0.010 C 
ATOM      9  C   UNL     1       2.858  -8.733  -4.704  0.00  0.00    -0.082 C 
ATOM     10  N   UNL     1       3.619  -9.206  -3.541  0.00  0.00    +0.379 N 
ATOM     11  C   UNL     1       3.491  -8.248  -2.436  0.00  0.00    -0.082 C 
ATOM     12  C   UNL     1       4.116  -6.910  -2.843  0.00  0.00    -0.010 C 
ATOM     13  H   UNL     1       3.261 -10.103  -3.249  0.00  0.00    -0.086 HD
ATOM     14  H   UNL     1       4.591  -9.299  -3.793  0.00  0.00    -0.086 HD
ENDROOT
BRANCH   5  15
ATOM     15  C   UNL     1       4.547  -5.190  -5.968  0.00  0.00    +0.218 C 
ATOM     16  O   UNL     1       3.771  -5.065  -6.891  0.00  0.00    -0.275 OA
ATOM     17  N   UNL     1       5.849  -5.439  -6.211  0.00  0.00    -0.311 N 
ATOM     18  H   UNL     1       6.470  -5.539  -5.473  0.00  0.00    +0.149 HD
BRANCH  17  19
ATOM     19  C   UNL     1       6.326  -5.561  -7.591  0.00  0.00    +0.139 C 
BRANCH  19  20
ATOM     20  C   UNL     1       7.808  -5.838  -7.588  0.00  0.00    -0.030 A 
ATOM     21  C   UNL     1       8.706  -4.787  -7.608  0.00  0.00    +0.007 A 
ATOM     22  C   UNL     1      10.065  -5.038  -7.605  0.00  0.00    +0.023 A 
ATOM     23  C   UNL     1      10.527  -6.348  -7.582  0.00  0.00    +0.030 A 
ATOM     24  C   UNL     1       9.622  -7.401  -7.562  0.00  0.00    +0.023 A 
ATOM     25  C   UNL     1       8.265  -7.143  -7.559  0.00  0.00    +0.007 A 
BRANCH  23  26
ATOM     26  N   UNL     1      11.900  -6.605  -7.579  0.00  0.00    -0.326 N 
ATOM     27  C   UNL     1      12.413  -7.980  -7.691  0.00  0.00    +0.133 C 
ATOM     28  C   UNL     1      13.468  -8.013  -8.802  0.00  0.00    +0.178 C 
ATOM     29  O   UNL     1      14.438  -6.991  -8.562  0.00  0.00    -0.377 OA
ATOM     30  C   UNL     1      13.908  -5.663  -8.588  0.00  0.00    +0.178 C 
ATOM     31  C   UNL     1      12.876  -5.509  -7.472  0.00  0.00    +0.133 C 
ENDBRANCH  23  26
ENDBRANCH  19  20
ENDBRANCH  17  19
ENDBRANCH   5  15
BRANCH   1  32
ATOM     32  C   UNL     1       1.367  -2.399  -2.449  0.00  0.00    +0.072 C 
ATOM     33  C   UNL     1       2.597  -1.981  -1.641  0.00  0.00    +0.017 C 
BRANCH  32  34
ATOM     34  C   UNL     1       0.106  -1.857  -1.775  0.00  0.00    +0.012 C 
BRANCH  34  35
ATOM     35  C   UNL     1       0.120  -0.328  -1.821  0.00  0.00    +0.000 C 
BRANCH  35  37
ATOM     36  C   UNL     1      -1.128   1.744  -1.193  0.00  0.00    +0.004 C 
ATOM     37  C   UNL     1      -1.142   0.214  -1.147  0.00  0.00    -0.003 C 
ENDBRANCH  35  37
ENDBRANCH  34  35
ENDBRANCH  32  34
ENDBRANCH   1  32
TORSDOF 8
