REMARK  Name = ZINC36499363
REMARK  10 active torsions:
REMARK  status: ('A' for Active; 'I' for Inactive)
REMARK    1  A    between atoms: C_1  and  C_2
REMARK    2  A    between atoms: C_5  and  S_8
REMARK    3  A    between atoms: S_8  and  C_11
REMARK    4  A    between atoms: C_11  and  N_12
REMARK    5  A    between atoms: C_13  and  C_15
REMARK    6  A    between atoms: C_15  and  C_17
REMARK    7  A    between atoms: C_15  and  N_27
REMARK    8  A    between atoms: C_19  and  N_24
REMARK    9  A    between atoms: N_27  and  C_28
REMARK   10  A    between atoms: C_28  and  C_29
REMARK                            x       y       z     vdW  Elec       q    Type
REMARK                         _______ _______ _______ _____ _____    ______ ____
ROOT
ATOM      1  C   UNL     1       3.207  -4.940   3.533  0.00  0.00    +0.194 C 
ENDROOT
BRANCH   1   2
ATOM      2  C   UNL     1       4.634  -4.533   3.275  0.00  0.00    +0.002 A 
ATOM      3  C   UNL     1       5.281  -4.967   2.133  0.00  0.00    +0.040 A 
ATOM      4  C   UNL     1       6.591  -4.594   1.896  0.00  0.00    +0.127 A 
ATOM      5  C   UNL     1       7.255  -3.787   2.801  0.00  0.00    +0.034 A 
ATOM      6  C   UNL     1       6.609  -3.352   3.942  0.00  0.00    +0.022 A 
ATOM      7  C   UNL     1       5.296  -3.720   4.177  0.00  0.00    +0.047 A 
ATOM      8 CL   UNL     1       4.482  -3.168   5.608  0.00  0.00    -0.083 Cl
BRANCH   4   9
ATOM      9  N   UNL     1       7.283  -5.060   0.673  0.00  0.00    +0.056 N 
ATOM     10  O   UNL     1       6.703  -5.767  -0.118  0.00  0.00    -0.126 OA
ATOM     11  O   UNL     1       8.428  -4.734   0.466  0.00  0.00    -0.126 OA
ENDBRANCH   4   9
ENDBRANCH   1   2
BRANCH   1  13
ATOM     12  N   UNL     1       2.507  -4.633   1.181  0.00  0.00    -0.294 N 
ATOM     13  C   UNL     1       2.588  -5.443   2.254  0.00  0.00    +0.239 C 
ATOM     14  O   UNL     1       2.164  -6.578   2.191  0.00  0.00    -0.273 OA
ATOM     15  H   UNL     1       2.846  -3.725   1.231  0.00  0.00    +0.150 HD
BRANCH  12  16
ATOM     16  C   UNL     1       1.906  -5.122  -0.062  0.00  0.00    +0.278 C 
BRANCH  16  17
ATOM     17  S   UNL     1       0.155  -4.650  -0.114  0.00  0.00    +0.013 S 
ATOM     18  O   UNL     1      -0.472  -4.957   1.123  0.00  0.00    -0.168 OA
ATOM     19  O   UNL     1      -0.427  -5.063  -1.343  0.00  0.00    -0.168 OA
BRANCH  17  24
ATOM     20  C   UNL     1       0.178   1.378  -0.371  0.00  0.00    +0.044 C 
ATOM     21  C   UNL     1       0.172  -0.128  -0.307  0.00  0.00    -0.050 A 
ATOM     22  C   UNL     1       0.192  -0.869  -1.474  0.00  0.00    +0.005 A 
ATOM     23  C   UNL     1       0.187  -2.250  -1.415  0.00  0.00    +0.027 A 
ATOM     24  C   UNL     1       0.163  -2.890  -0.190  0.00  0.00    +0.090 A 
ATOM     25  C   UNL     1       0.143  -2.148   0.977  0.00  0.00    +0.027 A 
ATOM     26  C   UNL     1       0.153  -0.767   0.918  0.00  0.00    +0.005 A 
ENDBRANCH  17  24
ENDBRANCH  16  17
ENDBRANCH  12  16
ENDBRANCH   1  13
BRANCH   1  27
ATOM     27  N   UNL     1       3.176  -6.002   4.542  0.00  0.00    -0.281 N 
ATOM     28  C   UNL     1       3.901  -7.124   4.360  0.00  0.00    +0.329 C 
ATOM     29  O   UNL     1       3.806  -8.041   5.148  0.00  0.00    -0.279 OA
BRANCH  27  30
ATOM     30  C   UNL     1       2.359  -5.845   5.747  0.00  0.00    +0.182 C 
BRANCH  30  31
ATOM     31  C   UNL     1       0.979  -6.393   5.493  0.00  0.00    +0.122 A 
ATOM     32  C   UNL     1       0.582  -7.660   5.714  0.00  0.00    +0.046 A 
ATOM     33  C   UNL     1      -0.779  -7.734   5.340  0.00  0.00    +0.041 A 
ATOM     34  C   UNL     1      -1.133  -6.508   4.912  0.00  0.00    +0.195 A 
ATOM     35  O   UNL     1      -0.066  -5.699   5.013  0.00  0.00    -0.466 OA
ENDBRANCH  30  31
ENDBRANCH  27  30
ENDBRANCH   1  27
TORSDOF 9
