REMARK  Name = ZINC06149159
REMARK  13 active torsions:
REMARK  status: ('A' for Active; 'I' for Inactive)
REMARK    1  A    between atoms: C_1  and  C_2
REMARK    2  A    between atoms: C_2  and  C_3
REMARK    3  A    between atoms: C_3  and  C_4
REMARK    4  A    between atoms: C_3  and  C_5
REMARK    5  A    between atoms: C_3  and  N_6
REMARK    6  A    between atoms: C_7  and  C_11
REMARK    7  A    between atoms: C_11  and  C_13
REMARK    8  A    between atoms: C_11  and  N_70
REMARK    9  A    between atoms: C_17  and  C_25
REMARK   10  A    between atoms: C_26  and  C_27
REMARK   11  A    between atoms: C_26  and  N_70
REMARK   12  A    between atoms: C_32  and  C_33
REMARK   13  A    between atoms: C_32  and  N_70
REMARK                            x       y       z     vdW  Elec       q    Type
REMARK                         _______ _______ _______ _____ _____    ______ ____
ROOT
ATOM      1  C   UNL     1       4.734  -2.633  -0.200  0.00  0.00    +0.039 C 
ENDROOT
BRANCH   1   2
ATOM      2  C   UNL     1       3.379  -2.014  -0.430  0.00  0.00    +0.011 A 
ATOM      3  C   UNL     1       2.566  -1.759   0.624  0.00  0.00    +0.017 A 
ATOM      4  C   UNL     1       1.256  -1.157   0.367  0.00  0.00    -0.001 A 
ATOM      5  C   UNL     1       0.374  -0.870   1.413  0.00  0.00    +0.013 A 
ATOM      6  C   UNL     1      -0.840  -0.306   1.140  0.00  0.00    -0.050 A 
ATOM      7  C   UNL     1      -1.207  -0.017  -0.167  0.00  0.00    +0.005 A 
ATOM      8  C   UNL     1      -0.354  -0.292  -1.214  0.00  0.00    +0.026 A 
ATOM      9  C   UNL     1       0.888  -0.865  -0.960  0.00  0.00    +0.049 A 
ATOM     10  N   UNL     1       1.761  -1.150  -1.988  0.00  0.00    -0.322 N 
ATOM     11  H   UNL     1       1.498  -0.943  -2.930  0.00  0.00    +0.169 HD
ATOM     12  C   UNL     1       2.962  -1.703  -1.742  0.00  0.00    +0.251 A 
ATOM     13  O   UNL     1       3.709  -1.942  -2.675  0.00  0.00    -0.268 OA
ATOM     14  C   UNL     1      -1.790   0.004   2.268  0.00  0.00    +0.044 C 
ENDBRANCH   1   2
BRANCH   1  16
ATOM     15  N   UNL     1       6.009  -3.812  -2.068  0.00  0.00    -0.225 N 
ATOM     16  C   UNL     1       4.970  -3.719  -1.218  0.00  0.00    +0.143 A 
ATOM     17  N   UNL     1       4.206  -4.760  -1.443  0.00  0.00    -0.115 NA
ATOM     18  N   UNL     1       4.743  -5.452  -2.388  0.00  0.00    -0.023 NA
ATOM     19  N   UNL     1       5.835  -4.883  -2.766  0.00  0.00    -0.043 NA
BRANCH  15  20
ATOM     20  C   UNL     1       7.128  -2.872  -2.181  0.00  0.00    +0.061 C 
ATOM     21  C   UNL     1       6.592  -1.480  -2.520  0.00  0.00    +0.036 C 
ATOM     22  C   UNL     1       7.884  -2.818  -0.852  0.00  0.00    +0.036 C 
BRANCH  20  24
ATOM     23  C   UNL     1       9.243  -2.357  -3.406  0.00  0.00    +0.006 C 
ATOM     24  C   UNL     1       8.075  -3.338  -3.289  0.00  0.00    +0.026 C 
ENDBRANCH  20  24
ENDBRANCH  15  20
ENDBRANCH   1  16
BRANCH   1  25
ATOM     25  N   UNL     1       4.771  -3.191   1.168  0.00  0.00    +0.396 N 
ATOM     26  H   UNL     1       4.212  -2.593   1.787  0.00  0.00    -0.080 HD
BRANCH  25  27
ATOM     27  C   UNL     1       6.164  -3.224   1.662  0.00  0.00    -0.002 C 
BRANCH  27  28
ATOM     28  C   UNL     1       6.156  -3.628   3.114  0.00  0.00    +0.089 A 
ATOM     29  C   UNL     1       6.359  -4.870   3.586  0.00  0.00    +0.042 A 
ATOM     30  C   UNL     1       6.267  -4.794   4.995  0.00  0.00    +0.041 A 
ATOM     31  C   UNL     1       6.005  -3.510   5.299  0.00  0.00    +0.195 A 
ATOM     32  O   UNL     1       5.938  -2.808   4.156  0.00  0.00    -0.470 OA
ENDBRANCH  27  28
ENDBRANCH  25  27
BRANCH  25  33
ATOM     33  C   UNL     1       4.201  -4.555   1.173  0.00  0.00    -0.045 C 
BRANCH  33  34
ATOM     34  C   UNL     1       2.675  -4.448   1.136  0.00  0.00    +0.102 C 
ATOM     35  C   UNL     1       2.033  -5.834   1.364  0.00  0.00    +0.032 C 
ATOM     36  C   UNL     1       0.802  -5.836   0.430  0.00  0.00    +0.030 C 
ATOM     37  C   UNL     1       0.846  -4.450  -0.252  0.00  0.00    +0.160 C 
ATOM     38  O   UNL     1       2.231  -4.047  -0.179  0.00  0.00    -0.378 OA
ENDBRANCH  33  34
ENDBRANCH  25  33
ENDBRANCH   1  25
TORSDOF 9
