REMARK  Name = ZINC02151138
REMARK  6 active torsions:
REMARK  status: ('A' for Active; 'I' for Inactive)
REMARK    1  A    between atoms: C_4  and  C_7
REMARK    2  A    between atoms: C_7  and  C_9
REMARK    3  A    between atoms: C_10  and  N_37
REMARK    4  A    between atoms: N_11  and  C_30
REMARK    5  A    between atoms: C_14  and  C_16
REMARK    6  A    between atoms: C_20  and  N_22
REMARK                            x       y       z     vdW  Elec       q    Type
REMARK                         _______ _______ _______ _____ _____    ______ ____
ROOT
ATOM      1  C   UNL     1      -0.851   1.564   0.771  0.00  0.00    +0.048 C 
ATOM      2  C   UNL     1      -0.589   2.334   1.879  0.00  0.00    +0.100 C 
ATOM      3  N   UNL     1       0.650   2.904   2.040  0.00  0.00    -0.261 N 
ATOM      4  C   UNL     1       1.735   2.417   1.357  0.00  0.00    +0.024 C 
ATOM      5  C   UNL     1       1.574   1.661   0.252  0.00  0.00    +0.024 C 
ATOM      6  C   UNL     1       0.198   1.341  -0.277  0.00  0.00    +0.091 C 
ATOM      7  C   UNL     1       2.683   1.144  -0.442  0.00  0.00    +0.162 C 
ATOM      8  O   UNL     1       2.504   0.476  -1.440  0.00  0.00    -0.292 OA
ATOM      9  C   UNL     1       4.088   1.403   0.030  0.00  0.00    +0.080 C 
ATOM     10  C   UNL     1       4.075   1.605   1.549  0.00  0.00    +0.014 C 
ATOM     11  C   UNL     1       3.113   2.748   1.877  0.00  0.00    +0.052 C 
ENDROOT
BRANCH   3  12
ATOM     12  C   UNL     1       0.807   3.991   2.908  0.00  0.00    +0.040 A 
ATOM     13  C   UNL     1       0.854   5.284   2.402  0.00  0.00    +0.025 A 
ATOM     14  C   UNL     1       1.004   6.355   3.261  0.00  0.00    +0.022 A 
ATOM     15  C   UNL     1       1.117   6.140   4.623  0.00  0.00    +0.041 A 
ATOM     16  C   UNL     1       1.076   4.853   5.129  0.00  0.00    +0.022 A 
ATOM     17  C   UNL     1       0.921   3.779   4.275  0.00  0.00    +0.025 A 
ATOM     18 CL   UNL     1       1.313   7.488   5.699  0.00  0.00    -0.084 Cl
ENDBRANCH   3  12
BRANCH   6  19
ATOM     19  C   UNL     1      -0.093   2.224  -1.462  0.00  0.00    -0.033 A 
ATOM     20  C   UNL     1      -0.091   3.599  -1.317  0.00  0.00    +0.005 A 
ATOM     21  C   UNL     1      -0.358   4.410  -2.404  0.00  0.00    +0.003 A 
ATOM     22  C   UNL     1      -0.626   3.846  -3.637  0.00  0.00    +0.033 A 
ATOM     23  C   UNL     1      -0.627   2.472  -3.783  0.00  0.00    +0.126 A 
ATOM     24  C   UNL     1      -0.356   1.661  -2.697  0.00  0.00    +0.037 A 
BRANCH  23  25
ATOM     25  N   UNL     1      -0.913   1.868  -5.104  0.00  0.00    +0.056 N 
ATOM     26  O   UNL     1      -1.149   2.582  -6.062  0.00  0.00    -0.126 OA
ATOM     27  O   UNL     1      -0.914   0.657  -5.233  0.00  0.00    -0.126 OA
ENDBRANCH  23  25
ENDBRANCH   6  19
BRANCH   2  28
ATOM     28  N   UNL     1      -1.563   2.533   2.822  0.00  0.00    -0.346 N 
ATOM     29  H   UNL     1      -1.426   3.180   3.532  0.00  0.00    +0.143 HD
ATOM     30  H   UNL     1      -2.389   2.026   2.781  0.00  0.00    +0.143 HD
ENDBRANCH   2  28
BRANCH   1  31
ATOM     31  C   UNL     1      -2.117   0.981   0.619  0.00  0.00    +0.193 C 
ATOM     32  O   UNL     1      -3.106   1.687   0.513  0.00  0.00    -0.287 OA
BRANCH  31  36
ATOM     33  C   UNL     1      -2.509  -3.250   0.523  0.00  0.00    +0.000 A 
ATOM     34  C   UNL     1      -3.615  -2.451   0.298  0.00  0.00    +0.001 A 
ATOM     35  C   UNL     1      -3.495  -1.077   0.327  0.00  0.00    +0.012 A 
ATOM     36  C   UNL     1      -2.254  -0.494   0.585  0.00  0.00    +0.022 A 
ATOM     37  C   UNL     1      -1.141  -1.305   0.806  0.00  0.00    +0.012 A 
ATOM     38  C   UNL     1      -1.276  -2.678   0.779  0.00  0.00    +0.001 A 
ENDBRANCH  31  36
ENDBRANCH   1  31
TORSDOF 6
