REMARK  Name = ZINC59099095
REMARK  4 active torsions:
REMARK  status: ('A' for Active; 'I' for Inactive)
REMARK    1  A    between atoms: C_1  and  C_2
REMARK    2  A    between atoms: C_5  and  C_7
REMARK    3  A    between atoms: N_8  and  N_9
REMARK    4  A    between atoms: C_13  and  C_16
REMARK                            x       y       z     vdW  Elec       q    Type
REMARK                         _______ _______ _______ _____ _____    ______ ____
ROOT
ATOM      1  N   UNL     1       2.802  -5.425  -0.040  0.00  0.00    -0.124 NA
ATOM      2  C   UNL     1       4.109  -5.631  -0.046  0.00  0.00    +0.192 A 
ATOM      3  N   UNL     1       4.802  -6.819  -0.061  0.00  0.00    -0.332 N 
ATOM      4  H   UNL     1       4.331  -7.666  -0.069  0.00  0.00    +0.168 HD
ATOM      5  C   UNL     1       6.169  -6.781  -0.066  0.00  0.00    +0.055 A 
ATOM      6  C   UNL     1       6.804  -5.590  -0.055  0.00  0.00    +0.075 A 
ATOM      7  S   UNL     1       5.439  -4.439  -0.046  0.00  0.00    -0.056 S 
ENDROOT
BRANCH   5   8
ATOM      8  C   UNL     1       6.947  -8.039  -0.081  0.00  0.00    -0.001 A 
ATOM      9  C   UNL     1       6.289  -9.269  -0.098  0.00  0.00    +0.011 A 
ATOM     10  C   UNL     1       7.021 -10.439  -0.112  0.00  0.00    +0.016 A 
ATOM     11  C   UNL     1       8.404 -10.393  -0.111  0.00  0.00    +0.018 A 
ATOM     12  C   UNL     1       9.062  -9.175  -0.095  0.00  0.00    +0.016 A 
ATOM     13  C   UNL     1       8.342  -7.999  -0.086  0.00  0.00    +0.011 A 
ATOM     14 BR   UNL     1       9.399 -12.001  -0.131  0.00  0.00    -0.050 Br
ENDBRANCH   5   8
BRANCH   1  16
ATOM     15  C   UNL     1       1.045  -4.018  -0.024  0.00  0.00    +0.150 C 
ATOM     16  N   UNL     1       2.339  -4.221  -0.031  0.00  0.00    -0.154 NA
BRANCH  15  21
ATOM     17  C   UNL     1      -0.018   1.503   0.010  0.00  0.00    +0.051 C 
ATOM     18  C   UNL     1       0.002  -0.004   0.002  0.00  0.00    -0.013 A 
ATOM     19  C   UNL     1      -1.044  -0.870   0.002  0.00  0.00    +0.011 A 
ATOM     20  C   UNL     1      -0.799  -2.224  -0.007  0.00  0.00    +0.017 A 
ATOM     21  C   UNL     1       0.519  -2.653  -0.015  0.00  0.00    +0.032 A 
ATOM     22  S   UNL     1       1.408  -1.104  -0.018  0.00  0.00    -0.092 S 
ENDBRANCH  15  21
ENDBRANCH   1  16
TORSDOF 3
