REMARK  Name = ZINC19634079
REMARK  14 active torsions:
REMARK  status: ('A' for Active; 'I' for Inactive)
REMARK    1  A    between atoms: C_1  and  C_2
REMARK    2  A    between atoms: C_2  and  C_3
REMARK    3  A    between atoms: C_3  and  C_5
REMARK    4  A    between atoms: C_3  and  O_6
REMARK    5  A    between atoms: O_6  and  C_7
REMARK    6  A    between atoms: C_7  and  C_9
REMARK    7  A    between atoms: C_10  and  C_36
REMARK    8  A    between atoms: C_14  and  C_16
REMARK    9  A    between atoms: C_21  and  O_22
REMARK   10  A    between atoms: O_22  and  C_23
REMARK   11  A    between atoms: C_26  and  C_32
REMARK   12  A    between atoms: C_28  and  C_31
REMARK   13  A    between atoms: C_32  and  O_34
REMARK   14  A    between atoms: O_34  and  C_35
REMARK                            x       y       z     vdW  Elec       q    Type
REMARK                         _______ _______ _______ _____ _____    ______ ____
ROOT
ATOM      1  C   UNL     1      -0.019   0.874   4.719  0.00  0.00    +0.065 C 
ATOM      2  C   UNL     1      -0.676   0.927   5.891  0.00  0.00    +0.016 C 
ATOM      3  N   UNL     1      -0.007   0.742   7.069  0.00  0.00    -0.321 N 
ATOM      4  C   UNL     1       1.351   0.905   7.132  0.00  0.00    +0.016 C 
ATOM      5  C   UNL     1       2.099   0.861   6.009  0.00  0.00    +0.025 C 
ATOM      6  C   UNL     1       1.458   0.617   4.666  0.00  0.00    +0.096 C 
ATOM      7  C   UNL     1       3.492   1.041   6.058  0.00  0.00    +0.176 C 
ATOM      8  O   UNL     1       4.137   0.989   5.029  0.00  0.00    -0.291 OA
ATOM      9  C   UNL     1       4.199   1.298   7.361  0.00  0.00    +0.171 C 
ATOM     10  C   UNL     1       3.235   2.001   8.322  0.00  0.00    +0.013 C 
ATOM     11  C   UNL     1       1.987   1.129   8.481  0.00  0.00    +0.055 C 
ATOM     12  C   UNL     1       2.841   3.364   7.749  0.00  0.00    +0.009 C 
ATOM     13  C   UNL     1      -2.160   1.186   5.906  0.00  0.00    +0.061 C 
ATOM     14  H   UNL     1      -0.560   0.460   7.977  0.00  0.00    +0.152 HD
ENDROOT
BRANCH   6  15
ATOM     15  C   UNL     1       1.697  -0.813   4.256  0.00  0.00    +0.006 A 
ATOM     16  C   UNL     1       1.202  -1.846   5.029  0.00  0.00    +0.008 A 
ATOM     17  C   UNL     1       1.421  -3.158   4.653  0.00  0.00    +0.001 A 
ATOM     18  C   UNL     1       2.135  -3.441   3.503  0.00  0.00    +0.004 A 
ATOM     19  C   UNL     1       2.631  -2.412   2.726  0.00  0.00    +0.046 A 
ATOM     20  C   UNL     1       2.409  -1.094   3.099  0.00  0.00    +0.124 A 
BRANCH  20  21
ATOM     21  O   UNL     1       2.892  -0.080   2.334  0.00  0.00    -0.495 OA
ATOM     22  C   UNL     1       3.615  -0.444   1.156  0.00  0.00    +0.277 C 
ENDBRANCH  20  21
ENDBRANCH   6  15
BRANCH   1  23
ATOM     23  C   UNL     1      -0.734   1.070   3.514  0.00  0.00    +0.338 C 
ATOM     24  O   UNL     1      -0.624   2.118   2.905  0.00  0.00    -0.245 OA
BRANCH  23  25
ATOM     25  O   UNL     1      -1.537   0.095   3.040  0.00  0.00    -0.458 OA
BRANCH  25  26
ATOM     26  C   UNL     1      -2.228   0.362   1.817  0.00  0.00    +0.173 C 
ATOM     27  C   UNL     1      -1.368  -0.092   0.636  0.00  0.00    +0.052 C 
BRANCH  26  29
ATOM     28  C   UNL     1      -4.464   0.141   2.910  0.00  0.00    +0.007 C 
ATOM     29  C   UNL     1      -3.554  -0.400   1.805  0.00  0.00    +0.041 C 
ENDBRANCH  26  29
ENDBRANCH  25  26
ENDBRANCH  23  25
ENDBRANCH   1  23
BRANCH   9  30
ATOM     30  C   UNL     1       5.401   2.176   7.120  0.00  0.00    +0.318 C 
ATOM     31  O   UNL     1       5.479   3.253   7.661  0.00  0.00    -0.250 OA
BRANCH  30  32
ATOM     32  O   UNL     1       6.383   1.760   6.305  0.00  0.00    -0.467 OA
ATOM     33  C   UNL     1       7.509   2.658   6.120  0.00  0.00    +0.280 C 
ENDBRANCH  30  32
ENDBRANCH   9  30
TORSDOF 8
