REMARK  Name = ZINC25446959
REMARK  12 active torsions:
REMARK  status: ('A' for Active; 'I' for Inactive)
REMARK    1  A    between atoms: C_1  and  C_2
REMARK    2  A    between atoms: C_2  and  C_3
REMARK    3  A    between atoms: C_3  and  C_4
REMARK    4  A    between atoms: C_4  and  C_5
REMARK    5  A    between atoms: C_5  and  C_31
REMARK    6  A    between atoms: N_8  and  C_12
REMARK    7  A    between atoms: C_12  and  C_13
REMARK    8  A    between atoms: N_15  and  C_16
REMARK    9  A    between atoms: C_17  and  C_27
REMARK   10  A    between atoms: C_22  and  C_26
REMARK   11  A    between atoms: C_27  and  O_29
REMARK   12  A    between atoms: O_29  and  C_30
REMARK                            x       y       z     vdW  Elec       q    Type
REMARK                         _______ _______ _______ _____ _____    ______ ____
ROOT
ATOM      1  C   UNL     1       1.843  -1.931   2.590  0.00  0.00    +0.214 C 
ENDROOT
BRANCH   1   5
ATOM      2  C   UNL     1       0.002  -0.004   0.002  0.00  0.00    +0.138 C 
ATOM      3  C   UNL     1       0.150  -0.543   1.411  0.00  0.00    +0.251 C 
ATOM      4  O   UNL     1      -0.613  -0.384   2.340  0.00  0.00    -0.272 OA
ATOM      5  N   UNL     1       1.306  -1.236   1.417  0.00  0.00    -0.215 N 
ATOM      6  C   UNL     1       1.903  -1.210   0.220  0.00  0.00    +0.310 C 
ATOM      7  O   UNL     1       2.958  -1.763  -0.021  0.00  0.00    -0.252 OA
ATOM      8  N   UNL     1       1.205  -0.502  -0.687  0.00  0.00    -0.281 N 
ATOM      9  H   UNL     1       1.371  -0.262  -1.748  0.00  0.00    +0.152 HD
BRANCH   2  10
ATOM     10  C   UNL     1      -0.018   1.503   0.010  0.00  0.00    -0.015 A 
ATOM     11  C   UNL     1      -1.225   2.178   0.020  0.00  0.00    +0.006 A 
ATOM     12  C   UNL     1      -1.244   3.560   0.032  0.00  0.00    +0.000 A 
ATOM     13  C   UNL     1      -0.056   4.267   0.025  0.00  0.00    +0.000 A 
ATOM     14  C   UNL     1       1.151   3.592   0.010  0.00  0.00    +0.000 A 
ATOM     15  C   UNL     1       1.169   2.210   0.003  0.00  0.00    +0.006 A 
ENDBRANCH   2  10
BRANCH   2  16
ATOM     16  C   UNL     1      -1.264  -0.554  -0.659  0.00  0.00    +0.040 C 
BRANCH  16  17
ATOM     17  C   UNL     1      -1.218  -2.084  -0.654  0.00  0.00    +0.003 C 
BRANCH  17  19
ATOM     18  C   UNL     1      -2.437  -4.163  -1.310  0.00  0.00    +0.004 C 
ATOM     19  C   UNL     1      -2.483  -2.634  -1.315  0.00  0.00    -0.003 C 
ENDBRANCH  17  19
ENDBRANCH  16  17
ENDBRANCH   2  16
ENDBRANCH   1   5
BRANCH   1  20
ATOM     20  C   UNL     1       2.729  -0.993   3.367  0.00  0.00    +0.236 C 
ATOM     21  O   UNL     1       2.896   0.144   2.980  0.00  0.00    -0.274 OA
ATOM     22  N   UNL     1       3.337  -1.418   4.493  0.00  0.00    -0.278 N 
ATOM     23  H   UNL     1       3.185  -2.449   4.844  0.00  0.00    +0.155 HD
BRANCH  22  24
ATOM     24  C   UNL     1       4.152  -0.555   5.208  0.00  0.00    +0.086 A 
ATOM     25  C   UNL     1       4.852  -0.803   6.382  0.00  0.00    +0.091 A 
ATOM     26  C   UNL     1       5.646   0.282   6.932  0.00  0.00    -0.021 A 
ATOM     27  C   UNL     1       5.606   1.437   6.232  0.00  0.00    -0.004 A 
ATOM     28  S   UNL     1       4.540   1.097   4.860  0.00  0.00    -0.077 S 
ATOM     29  C   UNL     1       6.312   2.716   6.559  0.00  0.00    +0.046 C 
ATOM     30  C   UNL     1       6.797   2.643   8.014  0.00  0.00    -0.009 C 
ATOM     31  C   UNL     1       7.500   1.300   8.232  0.00  0.00    +0.008 C 
ATOM     32  C   UNL     1       6.473   0.166   8.206  0.00  0.00    +0.037 C 
ATOM     33  C   UNL     1       7.779   3.785   8.285  0.00  0.00    +0.008 C 
BRANCH  25  34
ATOM     34  C   UNL     1       4.795  -2.111   7.038  0.00  0.00    +0.342 C 
ATOM     35  O   UNL     1       5.602  -2.973   6.748  0.00  0.00    -0.245 OA
BRANCH  34  36
ATOM     36  O   UNL     1       3.846  -2.359   7.965  0.00  0.00    -0.464 OA
ATOM     37  C   UNL     1       3.850  -3.677   8.575  0.00  0.00    +0.280 C 
ENDBRANCH  34  36
ENDBRANCH  25  34
ENDBRANCH  22  24
ENDBRANCH   1  20
TORSDOF 9
