REMARK  Name = ZINC12832847
REMARK  13 active torsions:
REMARK  status: ('A' for Active; 'I' for Inactive)
REMARK    1  A    between atoms: C_1  and  C_2
REMARK    2  A    between atoms: C_7  and  C_14
REMARK    3  A    between atoms: C_14  and  N_68
REMARK    4  A    between atoms: C_15  and  C_16
REMARK    5  A    between atoms: C_15  and  N_68
REMARK    6  A    between atoms: C_19  and  O_22
REMARK    7  A    between atoms: O_22  and  C_23
REMARK    8  A    between atoms: C_24  and  C_25
REMARK    9  A    between atoms: C_24  and  N_68
REMARK   10  A    between atoms: N_29  and  C_30
REMARK   11  A    between atoms: C_30  and  C_31
REMARK   12  A    between atoms: C_34  and  O_37
REMARK   13  A    between atoms: O_37  and  C_38
REMARK                            x       y       z     vdW  Elec       q    Type
REMARK                         _______ _______ _______ _____ _____    ______ ____
ROOT
ATOM      1  N   UNL     1       1.317  -2.090  -1.174  0.00  0.00    +0.390 N 
ATOM      2  H   UNL     1       0.625  -1.838  -1.890  0.00  0.00    -0.080 HD
ENDROOT
BRANCH   1   3
ATOM      3  C   UNL     1       1.075  -3.482  -0.741  0.00  0.00    -0.036 C 
BRANCH   3  10
ATOM      4  C   UNL     1      -6.765  -4.935  -0.960  0.00  0.00    +0.044 C 
ATOM      5  C   UNL     1      -5.281  -4.739  -1.139  0.00  0.00    -0.048 A 
ATOM      6  C   UNL     1      -4.686  -5.067  -2.349  0.00  0.00    +0.004 A 
ATOM      7  C   UNL     1      -3.343  -4.896  -2.532  0.00  0.00    +0.010 A 
ATOM      8  C   UNL     1      -2.560  -4.387  -1.491  0.00  0.00    -0.001 A 
ATOM      9  C   UNL     1      -1.118  -4.192  -1.652  0.00  0.00    +0.017 A 
ATOM     10  C   UNL     1      -0.411  -3.695  -0.608  0.00  0.00    +0.001 A 
ATOM     11  C   UNL     1      -1.060  -3.381   0.606  0.00  0.00    +0.251 A 
ATOM     12  O   UNL     1      -0.405  -2.940   1.534  0.00  0.00    -0.268 OA
ATOM     13  N   UNL     1      -2.385  -3.552   0.762  0.00  0.00    -0.322 N 
ATOM     14  H   UNL     1      -2.800  -3.322   1.608  0.00  0.00    +0.169 HD
ATOM     15  C   UNL     1      -3.160  -4.053  -0.262  0.00  0.00    +0.049 A 
ATOM     16  C   UNL     1      -4.530  -4.236  -0.099  0.00  0.00    +0.029 A 
ENDBRANCH   3  10
ENDBRANCH   1   3
BRANCH   1  17
ATOM     17  C   UNL     1       2.672  -1.969  -1.752  0.00  0.00    -0.042 C 
BRANCH  17  18
ATOM     18  C   UNL     1       2.681  -2.629  -3.107  0.00  0.00    -0.064 A 
ATOM     19  C   UNL     1       3.129  -3.931  -3.236  0.00  0.00    +0.005 A 
ATOM     20  C   UNL     1       3.133  -4.540  -4.476  0.00  0.00    +0.046 A 
ATOM     21  C   UNL     1       2.698  -3.842  -5.593  0.00  0.00    +0.120 A 
ATOM     22  C   UNL     1       2.255  -2.534  -5.461  0.00  0.00    +0.046 A 
ATOM     23  C   UNL     1       2.247  -1.931  -4.218  0.00  0.00    +0.005 A 
BRANCH  21  24
ATOM     24  O   UNL     1       2.706  -4.438  -6.814  0.00  0.00    -0.495 OA
ATOM     25  C   UNL     1       3.069  -5.819  -6.860  0.00  0.00    +0.277 C 
ENDBRANCH  21  24
ENDBRANCH  17  18
ENDBRANCH   1  17
BRANCH   1  26
ATOM     26  C   UNL     1       1.174  -1.171  -0.025  0.00  0.00    +0.001 C 
BRANCH  26  27
ATOM     27  C   UNL     1       1.272   0.249  -0.521  0.00  0.00    +0.135 A 
ATOM     28  N   UNL     1       2.370   0.939  -0.707  0.00  0.00    -0.115 NA
ATOM     29  N   UNL     1       2.038   2.107  -1.137  0.00  0.00    -0.023 NA
ATOM     30  N   UNL     1       0.756   2.180  -1.231  0.00  0.00    -0.044 NA
ATOM     31  N   UNL     1       0.247   1.054  -0.860  0.00  0.00    -0.227 N 
BRANCH  31  32
ATOM     32  C   UNL     1      -1.177   0.715  -0.816  0.00  0.00    +0.182 C 
BRANCH  32  33
ATOM     33  C   UNL     1      -1.635   0.289  -2.187  0.00  0.00    -0.026 A 
ATOM     34  C   UNL     1      -2.023   1.241  -3.112  0.00  0.00    +0.009 A 
ATOM     35  C   UNL     1      -2.437   0.853  -4.372  0.00  0.00    +0.046 A 
ATOM     36  C   UNL     1      -2.475  -0.493  -4.704  0.00  0.00    +0.120 A 
ATOM     37  C   UNL     1      -2.091  -1.447  -3.773  0.00  0.00    +0.046 A 
ATOM     38  C   UNL     1      -1.672  -1.054  -2.517  0.00  0.00    +0.009 A 
BRANCH  36  39
ATOM     39  O   UNL     1      -2.887  -0.877  -5.941  0.00  0.00    -0.495 OA
ATOM     40  C   UNL     1      -3.268   0.159  -6.849  0.00  0.00    +0.277 C 
ENDBRANCH  36  39
ENDBRANCH  32  33
ENDBRANCH  31  32
ENDBRANCH  26  27
ENDBRANCH   1  26
TORSDOF 10
