REMARK  Name = ZINC44939499
REMARK  12 active torsions:
REMARK  status: ('A' for Active; 'I' for Inactive)
REMARK    1  A    between atoms: C_1  and  C_2
REMARK    2  A    between atoms: N_8  and  S_31
REMARK    3  A    between atoms: C_10  and  C_13
REMARK    4  A    between atoms: N_15  and  C_16
REMARK    5  A    between atoms: C_18  and  S_24
REMARK    6  A    between atoms: C_21  and  O_22
REMARK    7  A    between atoms: O_22  and  C_23
REMARK    8  A    between atoms: S_24  and  N_27
REMARK    9  A    between atoms: N_27  and  C_28
REMARK   10  A    between atoms: C_28  and  C_29
REMARK   11  A    between atoms: C_28  and  C_30
REMARK   12  A    between atoms: S_31  and  C_34
REMARK                            x       y       z     vdW  Elec       q    Type
REMARK                         _______ _______ _______ _____ _____    ______ ____
ROOT
ATOM      1  C   UNL     1      -0.398  -6.177   1.302  0.00  0.00    +0.260 C 
ATOM      2  O   UNL     1       0.433  -6.726   0.611  0.00  0.00    -0.271 OA
ATOM      3  N   UNL     1      -1.266  -6.912   2.025  0.00  0.00    -0.279 N 
ATOM      4  H   UNL     1      -1.982  -6.476   2.514  0.00  0.00    +0.155 HD
ENDROOT
BRANCH   1  14
ATOM      5  C   UNL     1       1.526   1.419   0.684  0.00  0.00    +0.044 C 
ATOM      6  C   UNL     1       1.242  -0.060   0.623  0.00  0.00    -0.048 A 
ATOM      7  C   UNL     1       1.537  -0.773  -0.524  0.00  0.00    +0.007 A 
ATOM      8  C   UNL     1       1.282  -2.130  -0.587  0.00  0.00    +0.048 A 
ATOM      9  C   UNL     1       0.728  -2.784   0.503  0.00  0.00    +0.144 A 
ATOM     10  C   UNL     1       0.429  -2.063   1.657  0.00  0.00    +0.093 A 
ATOM     11  C   UNL     1       0.693  -0.704   1.717  0.00  0.00    +0.031 A 
ATOM     12  N   UNL     1      -0.140  -2.719   2.760  0.00  0.00    -0.200 N 
ATOM     13  C   UNL     1      -0.111  -4.191   2.770  0.00  0.00    +0.185 C 
ATOM     14  C   UNL     1      -0.460  -4.672   1.355  0.00  0.00    +0.278 C 
ATOM     15  O   UNL     1       0.484  -4.119   0.435  0.00  0.00    -0.476 OA
BRANCH  12  16
ATOM     16  S   UNL     1      -0.820  -1.866   4.006  0.00  0.00    +0.043 S 
ATOM     17  O   UNL     1      -1.374  -0.710   3.394  0.00  0.00    -0.155 OA
ATOM     18  O   UNL     1      -1.653  -2.803   4.674  0.00  0.00    -0.155 OA
ATOM     19  C   UNL     1       0.575  -1.402   5.069  0.00  0.00    +0.218 C 
ENDBRANCH  12  16
ENDBRANCH   1  14
BRANCH   3  20
ATOM     20  C   UNL     1      -1.135  -8.307   2.070  0.00  0.00    +0.078 A 
ATOM     21  C   UNL     1       0.072  -8.903   1.736  0.00  0.00    +0.055 A 
ATOM     22  C   UNL     1       0.199 -10.278   1.782  0.00  0.00    +0.107 A 
ATOM     23  C   UNL     1      -0.875 -11.063   2.160  0.00  0.00    +0.032 A 
ATOM     24  C   UNL     1      -2.081 -10.476   2.494  0.00  0.00    +0.049 A 
ATOM     25  C   UNL     1      -2.215  -9.098   2.456  0.00  0.00    +0.141 A 
BRANCH  22  26
ATOM     26  S   UNL     1       1.733 -11.034   1.358  0.00  0.00    +0.059 S 
ATOM     27  O   UNL     1       1.434 -12.363   0.955  0.00  0.00    -0.153 OA
ATOM     28  O   UNL     1       2.417 -10.118   0.514  0.00  0.00    -0.153 OA
BRANCH  26  29
ATOM     29  N   UNL     1       2.623 -11.150   2.749  0.00  0.00    -0.187 NA
ATOM     30  H   UNL     1       3.449 -10.650   2.840  0.00  0.00    +0.148 HD
BRANCH  29  31
ATOM     31  C   UNL     1       2.163 -12.009   3.843  0.00  0.00    +0.070 C 
ATOM     32  C   UNL     1       2.835 -13.380   3.732  0.00  0.00    +0.025 C 
ATOM     33  C   UNL     1       2.530 -11.369   5.184  0.00  0.00    +0.025 C 
ENDBRANCH  29  31
ENDBRANCH  26  29
ENDBRANCH  22  26
BRANCH  25  34
ATOM     34  O   UNL     1      -3.399  -8.518   2.790  0.00  0.00    -0.493 OA
ATOM     35  C   UNL     1      -4.462  -9.392   3.176  0.00  0.00    +0.277 C 
ENDBRANCH  25  34
ENDBRANCH   3  20
TORSDOF 7
