REMARK  Name = ZINC15320553
REMARK  5 active torsions:
REMARK  status: ('A' for Active; 'I' for Inactive)
REMARK    1  A    between atoms: C_1  and  C_2
REMARK    2  A    between atoms: C_2  and  C_3
REMARK    3  A    between atoms: C_3  and  N_4
REMARK    4  A    between atoms: C_16  and  C_27
REMARK    5  A    between atoms: C_27  and  C_29
REMARK                            x       y       z     vdW  Elec       q    Type
REMARK                         _______ _______ _______ _____ _____    ______ ____
ROOT
ATOM      1  N   UNL     1       3.669  -0.610  -0.078  0.00  0.00    -0.321 N 
ATOM      2  C   UNL     1       2.358  -0.113  -0.235  0.00  0.00    +0.051 A 
ATOM      3  C   UNL     1       2.191   1.257  -0.403  0.00  0.00    +0.025 A 
ATOM      4  C   UNL     1       0.927   1.785  -0.582  0.00  0.00    +0.002 A 
ATOM      5  C   UNL     1      -0.181   0.958  -0.595  0.00  0.00    +0.002 A 
ATOM      6  C   UNL     1      -0.027  -0.406  -0.422  0.00  0.00    +0.025 A 
ATOM      7  C   UNL     1       1.237  -0.941  -0.236  0.00  0.00    +0.050 A 
ATOM      8  N   UNL     1       1.366  -2.337  -0.023  0.00  0.00    -0.323 N 
ATOM      9  C   UNL     1       2.673  -2.736   0.486  0.00  0.00    +0.189 C 
ATOM     10  C   UNL     1       3.700  -2.016  -0.445  0.00  0.00    +0.131 C 
ATOM     11  C   UNL     1       4.957  -2.800  -0.039  0.00  0.00    +0.165 C 
ATOM     12  C   UNL     1       4.394  -4.210   0.139  0.00  0.00    +0.235 C 
ATOM     13  O   UNL     1       5.037  -5.236   0.081  0.00  0.00    -0.274 OA
ATOM     14  N   UNL     1       3.055  -4.132   0.373  0.00  0.00    -0.234 N 
ATOM     15  C   UNL     1       2.189  -5.218   0.487  0.00  0.00    +0.129 A 
ATOM     16  C   UNL     1       1.886  -5.729   1.745  0.00  0.00    +0.044 A 
ATOM     17  C   UNL     1       1.026  -6.808   1.843  0.00  0.00    +0.005 A 
ATOM     18  C   UNL     1       0.495  -7.341   0.676  0.00  0.00    +0.020 A 
ATOM     19  C   UNL     1       0.839  -6.783  -0.539  0.00  0.00    +0.113 A 
ATOM     20  N   UNL     1       1.658  -5.751  -0.602  0.00  0.00    -0.240 NA
ATOM     21  H   UNL     1       0.651  -2.968  -0.199  0.00  0.00    +0.148 HD
ENDROOT
BRANCH  11  22
ATOM     22  C   UNL     1       5.525  -2.278   1.255  0.00  0.00    +0.144 C 
ATOM     23  O   UNL     1       4.794  -1.790   2.082  0.00  0.00    -0.297 OA
ATOM     24  C   UNL     1       7.007  -2.364   1.516  0.00  0.00    +0.087 C 
ENDBRANCH  11  22
BRANCH   1  25
ATOM     25  C   UNL     1       4.625   0.165  -0.879  0.00  0.00    +0.105 C 
BRANCH  25  27
ATOM     26  C   UNL     1       5.298   0.802  -3.200  0.00  0.00    +0.005 C 
ATOM     27  C   UNL     1       4.301  -0.005  -2.365  0.00  0.00    +0.015 C 
ENDBRANCH  25  27
ENDBRANCH   1  25
TORSDOF 3
