REMARK  Name = ZINC09360396
REMARK  14 active torsions:
REMARK  status: ('A' for Active; 'I' for Inactive)
REMARK    1  A    between atoms: C_1  and  C_2
REMARK    2  A    between atoms: C_5  and  C_8
REMARK    3  A    between atoms: C_11  and  C_12
REMARK    4  A    between atoms: C_11  and  O_23
REMARK    5  A    between atoms: C_15  and  O_18
REMARK    6  A    between atoms: O_18  and  C_19
REMARK    7  A    between atoms: C_19  and  C_20
REMARK    8  A    between atoms: C_20  and  C_21
REMARK    9  A    between atoms: C_20  and  C_22
REMARK   10  A    between atoms: N_28  and  C_29
REMARK   11  A    between atoms: C_29  and  C_30
REMARK   12  A    between atoms: C_30  and  N_64
REMARK   13  A    between atoms: C_31  and  N_64
REMARK   14  A    between atoms: C_32  and  N_64
REMARK                            x       y       z     vdW  Elec       q    Type
REMARK                         _______ _______ _______ _____ _____    ______ ____
ROOT
ATOM      1  C   UNL     1      -2.536   4.378   0.257  0.00  0.00    +0.144 C 
ATOM      2  C   UNL     1      -1.317   3.494   0.132  0.00  0.00    +0.071 C 
ATOM      3  C   UNL     1      -1.299   2.116   0.020  0.00  0.00    +0.133 C 
ATOM      4  C   UNL     1      -0.208   4.352   0.145  0.00  0.00    +0.249 C 
ATOM      5  O   UNL     1       0.959   4.013   0.060  0.00  0.00    -0.282 OA
ATOM      6  C   UNL     1      -0.704   5.748   0.283  0.00  0.00    +0.288 C 
ATOM      7  O   UNL     1       0.002   6.736   0.327  0.00  0.00    -0.266 OA
ATOM      8  N   UNL     1      -2.045   5.757   0.350  0.00  0.00    -0.285 N 
ENDROOT
BRANCH   1  13
ATOM      9  C   UNL     1      -5.488   3.014   5.033  0.00  0.00    +0.044 C 
ATOM     10  C   UNL     1      -4.718   3.369   3.788  0.00  0.00    -0.050 A 
ATOM     11  C   UNL     1      -5.154   2.922   2.554  0.00  0.00    +0.004 A 
ATOM     12  C   UNL     1      -4.447   3.249   1.412  0.00  0.00    +0.006 A 
ATOM     13  C   UNL     1      -3.306   4.023   1.503  0.00  0.00    -0.022 A 
ATOM     14  C   UNL     1      -2.867   4.465   2.736  0.00  0.00    +0.006 A 
ATOM     15  C   UNL     1      -3.576   4.143   3.878  0.00  0.00    +0.004 A 
ENDBRANCH   1  13
BRANCH   3  16
ATOM     16  C   UNL     1      -0.029   1.414  -0.219  0.00  0.00    +0.017 A 
ATOM     17  C   UNL     1       0.797   1.798  -1.282  0.00  0.00    +0.015 A 
ATOM     18  C   UNL     1       1.982   1.135  -1.504  0.00  0.00    +0.046 A 
ATOM     19  C   UNL     1       2.360   0.084  -0.675  0.00  0.00    +0.121 A 
ATOM     20  C   UNL     1       1.542  -0.301   0.383  0.00  0.00    +0.046 A 
ATOM     21  C   UNL     1       0.356   0.356   0.614  0.00  0.00    +0.015 A 
BRANCH  19  22
ATOM     22  O   UNL     1       3.529  -0.567  -0.898  0.00  0.00    -0.492 OA
BRANCH  22  23
ATOM     23  C   UNL     1       4.320  -0.120  -2.001  0.00  0.00    +0.232 C 
BRANCH  23  24
ATOM     24  C   UNL     1       5.591  -0.967  -2.093  0.00  0.00    +0.020 C 
ATOM     25  C   UNL     1       6.377  -0.572  -3.345  0.00  0.00    +0.010 C 
ATOM     26  C   UNL     1       6.454  -0.728  -0.852  0.00  0.00    +0.010 C 
ENDBRANCH  23  24
ENDBRANCH  22  23
ENDBRANCH  19  22
ENDBRANCH   3  16
BRANCH   3  27
ATOM     27  O   UNL     1      -2.448   1.415   0.129  0.00  0.00    -0.506 OA
ATOM     28  H   UNL     1      -2.254   0.440   0.024  0.00  0.00    +0.292 HD
ENDBRANCH   3  27
BRANCH   8  29
ATOM     29  C   UNL     1      -2.883   6.950   0.489  0.00  0.00    +0.090 C 
BRANCH  29  30
ATOM     30  C   UNL     1      -3.247   7.482  -0.899  0.00  0.00    -0.060 C 
BRANCH  30  33
ATOM     31  C   UNL     1      -4.261   9.353  -2.054  0.00  0.00    -0.097 C 
ATOM     32  C   UNL     1      -5.387   8.344  -0.163  0.00  0.00    -0.097 C 
ATOM     33  N   UNL     1      -4.074   8.697  -0.743  0.00  0.00    +0.377 N 
ATOM     34  H   UNL     1      -3.594   9.348  -0.110  0.00  0.00    -0.083 HD
ENDBRANCH  30  33
ENDBRANCH  29  30
ENDBRANCH   8  29
TORSDOF 9
