REMARK  Name = ZINC03348850
REMARK  2 active torsions:
REMARK  status: ('A' for Active; 'I' for Inactive)
REMARK    1  A    between atoms: C_1  and  C_2
REMARK    2  A    between atoms: N_5  and  C_7
REMARK                            x       y       z     vdW  Elec       q    Type
REMARK                         _______ _______ _______ _____ _____    ______ ____
ROOT
ATOM      1  C   UNL     1      -0.018   1.503   0.010  0.00  0.00    +0.068 C 
ATOM      2  C   UNL     1       0.002  -0.004   0.002  0.00  0.00    +0.070 A 
ATOM      3  C   UNL     1       0.008  -0.816  -1.130  0.00  0.00    +0.041 A 
ATOM      4  C   UNL     1       0.019  -2.144  -0.693  0.00  0.00    +0.131 A 
ATOM      5  N   UNL     1       0.033  -2.124   0.647  0.00  0.00    -0.218 N 
ATOM      6  N   UNL     1       0.023  -0.780   1.060  0.00  0.00    -0.169 NA
ATOM      7  N   UNL     1      -0.002  -3.166  -1.633  0.00  0.00    -0.319 N 
ATOM      8  C   UNL     1      -0.642  -2.859  -2.920  0.00  0.00    +0.055 C 
ATOM      9  C   UNL     1      -2.163  -2.931  -2.748  0.00  0.00    +0.030 C 
ATOM     10  C   UNL     1      -2.552  -4.328  -2.261  0.00  0.00    +0.002 C 
ATOM     11  C   UNL     1      -2.109  -5.370  -3.290  0.00  0.00    +0.000 C 
ATOM     12  C   UNL     1      -0.591  -5.295  -3.471  0.00  0.00    +0.002 C 
ATOM     13  C   UNL     1      -0.203  -3.897  -3.956  0.00  0.00    +0.030 C 
ATOM     14  C   UNL     1      -0.272  -1.478  -3.421  0.00  0.00    -0.043 C 
ATOM     15  C   UNL     1       0.015  -0.496  -2.576  0.00  0.00    -0.034 C 
ATOM     16  C   UNL     1       0.334   0.909  -2.999  0.00  0.00    +0.036 C 
ATOM     17  C   UNL     1       0.734   0.956  -4.473  0.00  0.00    +0.005 C 
ATOM     18  C   UNL     1      -0.329   0.197  -5.277  0.00  0.00    +0.005 C 
ATOM     19  C   UNL     1      -0.236  -1.282  -4.917  0.00  0.00    +0.033 C 
ATOM     20  H   UNL     1       0.387  -4.036  -1.451  0.00  0.00    +0.148 HD
ENDROOT
BRANCH   5  21
ATOM     21  C   UNL     1       0.059  -3.244   1.488  0.00  0.00    +0.067 A 
ATOM     22  C   UNL     1      -0.612  -4.404   1.123  0.00  0.00    +0.028 A 
ATOM     23  C   UNL     1      -0.584  -5.507   1.954  0.00  0.00    +0.002 A 
ATOM     24  C   UNL     1       0.111  -5.457   3.148  0.00  0.00    +0.000 A 
ATOM     25  C   UNL     1       0.781  -4.304   3.514  0.00  0.00    +0.002 A 
ATOM     26  C   UNL     1       0.761  -3.200   2.685  0.00  0.00    +0.028 A 
ENDBRANCH   5  21
TORSDOF 1
