REMARK  Name = ZINC34791108
REMARK  13 active torsions:
REMARK  status: ('A' for Active; 'I' for Inactive)
REMARK    1  A    between atoms: C_1  and  C_2
REMARK    2  A    between atoms: C_2  and  N_3
REMARK    3  A    between atoms: C_6  and  C_11
REMARK    4  A    between atoms: C_15  and  O_17
REMARK    5  A    between atoms: O_17  and  C_18
REMARK    6  A    between atoms: N_26  and  C_28
REMARK    7  A    between atoms: C_28  and  C_30
REMARK    8  A    between atoms: C_28  and  C_33
REMARK    9  A    between atoms: C_30  and  C_31
REMARK   10  A    between atoms: C_30  and  C_32
REMARK   11  A    between atoms: N_35  and  C_36
REMARK   12  A    between atoms: C_36  and  C_37
REMARK   13  A    between atoms: C_36  and  C_38
REMARK                            x       y       z     vdW  Elec       q    Type
REMARK                         _______ _______ _______ _____ _____    ______ ____
ROOT
ATOM      1  N   UNL     1       0.004  -0.398   1.230  0.00  0.00    -0.257 N 
ATOM      2  C   UNL     1      -0.577  -0.728   2.422  0.00  0.00    +0.042 C 
ATOM      3  C   UNL     1      -1.872  -1.097   2.489  0.00  0.00    +0.058 C 
ATOM      4  C   UNL     1      -2.663  -1.132   1.197  0.00  0.00    +0.142 C 
ATOM      5  N   UNL     1      -1.946  -0.758  -0.034  0.00  0.00    -0.288 N 
ATOM      6  C   UNL     1      -0.648  -0.406   0.061  0.00  0.00    +0.307 C 
ATOM      7  O   UNL     1      -0.049  -0.092  -0.949  0.00  0.00    -0.252 OA
ATOM      8  C   UNL     1      -2.231  -1.386   3.821  0.00  0.00    +0.247 C 
ATOM      9  O   UNL     1      -3.340  -1.744   4.173  0.00  0.00    -0.270 OA
ATOM     10  N   UNL     1      -1.188  -1.216   4.654  0.00  0.00    -0.280 N 
ATOM     11  C   UNL     1      -0.045  -0.782   3.836  0.00  0.00    +0.160 C 
ATOM     12  H   UNL     1      -2.398  -0.761  -0.892  0.00  0.00    +0.151 HD
ENDROOT
BRANCH   4  13
ATOM     13  C   UNL     1      -3.196  -2.530   1.016  0.00  0.00    -0.019 A 
ATOM     14  C   UNL     1      -2.372  -3.526   0.527  0.00  0.00    +0.006 A 
ATOM     15  C   UNL     1      -2.858  -4.810   0.361  0.00  0.00    +0.004 A 
ATOM     16  C   UNL     1      -4.170  -5.100   0.683  0.00  0.00    +0.046 A 
ATOM     17  C   UNL     1      -4.999  -4.102   1.173  0.00  0.00    +0.129 A 
ATOM     18  C   UNL     1      -4.507  -2.816   1.345  0.00  0.00    +0.052 A 
BRANCH  17  19
ATOM     19  O   UNL     1      -6.290  -4.385   1.491  0.00  0.00    -0.456 OA
BRANCH  19  20
ATOM     20  C   UNL     1      -7.258  -4.013   0.613  0.00  0.00    +0.128 A 
ATOM     21  C   UNL     1      -6.912  -3.470  -0.616  0.00  0.00    +0.046 A 
ATOM     22  C   UNL     1      -7.899  -3.092  -1.506  0.00  0.00    +0.004 A 
ATOM     23  C   UNL     1      -9.231  -3.256  -1.173  0.00  0.00    +0.000 A 
ATOM     24  C   UNL     1      -9.579  -3.796   0.051  0.00  0.00    +0.004 A 
ATOM     25  C   UNL     1      -8.596  -4.181   0.942  0.00  0.00    +0.046 A 
ENDBRANCH  19  20
ENDBRANCH  17  19
ENDBRANCH   4  13
BRANCH   1  27
ATOM     26  C   UNL     1       1.525   1.506   1.437  0.00  0.00    +0.025 C 
ATOM     27  C   UNL     1       1.415  -0.006   1.234  0.00  0.00    +0.111 C 
ENDBRANCH   1  27
BRANCH  10  28
ATOM     28  C   UNL     1      -1.190  -1.423   6.104  0.00  0.00    +0.165 C 
BRANCH  28  29
ATOM     29  C   UNL     1      -1.550  -2.855   6.406  0.00  0.00    +0.234 C 
ATOM     30  O   UNL     1      -2.067  -3.543   5.552  0.00  0.00    -0.274 OA
ATOM     31  N   UNL     1      -1.297  -3.370   7.626  0.00  0.00    -0.311 N 
ATOM     32  H   UNL     1      -0.951  -2.801   8.331  0.00  0.00    +0.149 HD
BRANCH  31  33
ATOM     33  C   UNL     1      -1.546  -4.790   7.887  0.00  0.00    +0.067 C 
ATOM     34  C   UNL     1      -0.330  -5.609   7.450  0.00  0.00    +0.027 C 
ATOM     35  C   UNL     1      -1.791  -4.998   9.383  0.00  0.00    +0.027 C 
ENDBRANCH  31  33
ENDBRANCH  28  29
BRANCH  28  36
ATOM     36  C   UNL     1      -2.217  -0.491   6.750  0.00  0.00    +0.012 C 
ATOM     37  C   UNL     1      -2.142  -0.628   8.273  0.00  0.00    +0.009 C 
ATOM     38  C   UNL     1      -1.915   0.955   6.353  0.00  0.00    +0.009 C 
ENDBRANCH  28  36
ENDBRANCH  10  28
TORSDOF 8
