REMARK  Name = ZINC39686440
REMARK  10 active torsions:
REMARK  status: ('A' for Active; 'I' for Inactive)
REMARK    1  A    between atoms: C_1  and  C_2
REMARK    2  A    between atoms: C_2  and  C_4
REMARK    3  A    between atoms: C_2  and  N_13
REMARK    4  A    between atoms: C_4  and  C_5
REMARK    5  A    between atoms: C_10  and  O_11
REMARK    6  A    between atoms: O_11  and  C_12
REMARK    7  A    between atoms: C_14  and  C_16
REMARK    8  A    between atoms: C_27  and  C_29
REMARK    9  A    between atoms: C_34  and  O_35
REMARK   10  A    between atoms: O_35  and  C_36
REMARK                            x       y       z     vdW  Elec       q    Type
REMARK                         _______ _______ _______ _____ _____    ______ ____
ROOT
ATOM      1  C   UNL     1       0.787  -1.134   3.574  0.00  0.00    +0.100 C 
ATOM      2  C   UNL     1       1.978  -0.209   3.911  0.00  0.00    +0.121 C 
ATOM      3  N   UNL     1       1.444   0.739   4.917  0.00  0.00    -0.296 N 
ATOM      4  C   UNL     1       0.571  -0.092   5.780  0.00  0.00    +0.115 C 
ATOM      5  C   UNL     1      -0.132  -1.057   4.805  0.00  0.00    -0.004 C 
ATOM      6  C   UNL     1      -1.498  -0.504   4.410  0.00  0.00    -0.010 C 
ATOM      7  C   UNL     1      -2.413  -0.490   5.638  0.00  0.00    -0.082 C 
ATOM      8  N   UNL     1      -2.548  -1.854   6.164  0.00  0.00    +0.379 N 
ATOM      9  C   UNL     1      -1.244  -2.344   6.627  0.00  0.00    -0.082 C 
ATOM     10  C   UNL     1      -0.281  -2.436   5.441  0.00  0.00    -0.010 C 
ATOM     11  C   UNL     1       1.694   2.059   5.023  0.00  0.00    +0.250 C 
ATOM     12  O   UNL     1       2.360   2.622   4.175  0.00  0.00    -0.270 OA
ATOM     13  H   UNL     1      -3.199  -1.853   6.936  0.00  0.00    -0.086 HD
ATOM     14  H   UNL     1      -2.895  -2.461   5.437  0.00  0.00    -0.086 HD
ENDROOT
BRANCH  11  15
ATOM     15  C   UNL     1       1.160   2.822   6.167  0.00  0.00    +0.078 A 
ATOM     16  C   UNL     1       1.061   2.224   7.426  0.00  0.00    +0.017 A 
ATOM     17  C   UNL     1       0.561   2.942   8.490  0.00  0.00    +0.001 A 
ATOM     18  C   UNL     1       0.156   4.255   8.319  0.00  0.00    +0.004 A 
ATOM     19  C   UNL     1       0.248   4.859   7.080  0.00  0.00    +0.046 A 
ATOM     20  C   UNL     1       0.753   4.152   5.999  0.00  0.00    +0.132 A 
BRANCH  20  21
ATOM     21  O   UNL     1       0.849   4.746   4.783  0.00  0.00    -0.494 OA
ATOM     22  C   UNL     1       0.415   6.104   4.687  0.00  0.00    +0.277 C 
ENDBRANCH  20  21
ENDBRANCH  11  15
BRANCH   1  24
ATOM     23  N   UNL     1      -0.552  -1.509   1.529  0.00  0.00    -0.312 N 
ATOM     24  C   UNL     1       0.066  -0.636   2.349  0.00  0.00    +0.218 C 
ATOM     25  O   UNL     1       0.042   0.551   2.100  0.00  0.00    -0.275 OA
ATOM     26  H   UNL     1      -0.532  -2.458   1.728  0.00  0.00    +0.149 HD
BRANCH  23  28
ATOM     27  C   UNL     1      -0.257  -0.874  -0.815  0.00  0.00    +0.028 C 
ATOM     28  C   UNL     1      -1.253  -1.024   0.337  0.00  0.00    +0.074 C 
BRANCH  28  29
ATOM     29  C   UNL     1      -2.340  -2.026  -0.057  0.00  0.00    +0.060 C 
BRANCH  29  30
ATOM     30  C   UNL     1      -3.387  -2.083   1.025  0.00  0.00    -0.004 A 
ATOM     31  C   UNL     1      -3.310  -3.049   2.011  0.00  0.00    +0.007 A 
ATOM     32  C   UNL     1      -4.270  -3.102   3.004  0.00  0.00    +0.000 A 
ATOM     33  C   UNL     1      -5.309  -2.189   3.014  0.00  0.00    +0.004 A 
ATOM     34  C   UNL     1      -5.390  -1.222   2.031  0.00  0.00    +0.046 A 
ATOM     35  C   UNL     1      -4.425  -1.163   1.036  0.00  0.00    +0.123 A 
BRANCH  35  36
ATOM     36  O   UNL     1      -4.499  -0.209   0.072  0.00  0.00    -0.495 OA
ATOM     37  C   UNL     1      -5.595   0.705   0.146  0.00  0.00    +0.277 C 
ENDBRANCH  35  36
ENDBRANCH  29  30
ENDBRANCH  28  29
ENDBRANCH  23  28
ENDBRANCH   1  24
TORSDOF 7
