REMARK  Name = ZINC17087832
REMARK  7 active torsions:
REMARK  status: ('A' for Active; 'I' for Inactive)
REMARK    1  A    between atoms: C_1  and  C_2
REMARK    2  A    between atoms: C_4  and  C_24
REMARK    3  A    between atoms: C_6  and  C_8
REMARK    4  A    between atoms: N_10  and  C_11
REMARK    5  A    between atoms: C_11  and  N_13
REMARK    6  A    between atoms: N_13  and  C_14
REMARK    7  A    between atoms: C_17  and  N_21
REMARK                            x       y       z     vdW  Elec       q    Type
REMARK                         _______ _______ _______ _____ _____    ______ ____
ROOT
ATOM      1  C   UNL     1      -0.186  -2.828   4.795  0.00  0.00    +0.141 C 
ATOM      2  S   UNL     1      -0.502  -4.511   4.773  0.00  0.00    -0.018 S 
ENDROOT
BRANCH   1   5
ATOM      3  C   UNL     1      -0.430  -2.751   2.475  0.00  0.00    +0.250 C 
ATOM      4  O   UNL     1      -0.654  -3.945   2.459  0.00  0.00    -0.270 OA
ATOM      5  N   UNL     1      -0.184  -2.127   3.644  0.00  0.00    -0.264 N 
ATOM      6  H   UNL     1      -0.005  -1.174   3.657  0.00  0.00    +0.157 HD
BRANCH   3  12
ATOM      7  C   UNL     1       0.104   1.583   0.061  0.00  0.00    +0.044 C 
ATOM      8  C   UNL     1      -0.172   0.102   0.046  0.00  0.00    -0.049 A 
ATOM      9  C   UNL     1      -0.425  -0.541  -1.152  0.00  0.00    +0.006 A 
ATOM     10  C   UNL     1      -0.680  -1.901  -1.174  0.00  0.00    -0.049 A 
ATOM     11  C   UNL     1      -0.683  -2.625   0.000  0.00  0.00    +0.016 A 
ATOM     12  C   UNL     1      -0.428  -1.982   1.213  0.00  0.00    +0.038 A 
ATOM     13  C   UNL     1      -0.167  -0.611   1.228  0.00  0.00    +0.016 A 
ATOM     14  C   UNL     1      -0.955  -2.593  -2.484  0.00  0.00    +0.044 C 
ENDBRANCH   3  12
ENDBRANCH   1   5
BRANCH   1  15
ATOM     15  N   UNL     1       0.060  -2.204   5.965  0.00  0.00    -0.296 N 
ATOM     16  H   UNL     1       0.300  -1.265   5.972  0.00  0.00    +0.154 HD
BRANCH  15  17
ATOM     17  C   UNL     1      -0.031  -2.913   7.168  0.00  0.00    +0.047 A 
ATOM     18  C   UNL     1       0.577  -4.155   7.292  0.00  0.00    +0.026 A 
ATOM     19  C   UNL     1       0.486  -4.851   8.481  0.00  0.00    +0.034 A 
ATOM     20  C   UNL     1      -0.210  -4.313   9.548  0.00  0.00    +0.127 A 
ATOM     21  C   UNL     1      -0.817  -3.077   9.429  0.00  0.00    +0.049 A 
ATOM     22  C   UNL     1      -0.725  -2.372   8.243  0.00  0.00    +0.041 A 
ATOM     23 BR   UNL     1      -1.548  -0.677   8.083  0.00  0.00    -0.048 Br
BRANCH  20  24
ATOM     24  N   UNL     1      -0.305  -5.063  10.821  0.00  0.00    +0.056 N 
ATOM     25  O   UNL     1       0.225  -6.144  10.927  0.00  0.00    -0.126 OA
ATOM     26  O   UNL     1      -0.914  -4.594  11.755  0.00  0.00    -0.126 OA
ENDBRANCH  20  24
ENDBRANCH  15  17
ENDBRANCH   1  15
TORSDOF 5
