REMARK  Name = ZINC04623741
REMARK  4 active torsions:
REMARK  status: ('A' for Active; 'I' for Inactive)
REMARK    1  A    between atoms: C_4  and  C_7
REMARK    2  A    between atoms: C_7  and  C_9
REMARK    3  A    between atoms: C_10  and  C_11
REMARK    4  A    between atoms: C_16  and  N_17
REMARK                            x       y       z     vdW  Elec       q    Type
REMARK                         _______ _______ _______ _____ _____    ______ ____
ROOT
ATOM      1  C   UNL     1       7.160   1.391  -0.060  0.00  0.00    +0.047 A 
ATOM      2  C   UNL     1       8.383   0.711  -0.076  0.00  0.00    +0.031 A 
ATOM      3  C   UNL     1       9.572   1.429  -0.083  0.00  0.00    +0.034 A 
ATOM      4  C   UNL     1       9.545   2.841  -0.075  0.00  0.00    +0.035 A 
ATOM      5  C   UNL     1       8.333   3.514  -0.059  0.00  0.00    +0.036 A 
ATOM      6  C   UNL     1       7.138   2.798  -0.057  0.00  0.00    +0.041 A 
ATOM      7  C   UNL     1      10.820   3.595  -0.084  0.00  0.00    +0.195 C 
ATOM      8  O   UNL     1      10.828   4.785  -0.328  0.00  0.00    -0.287 OA
ATOM      9  C   UNL     1      12.082   2.883   0.209  0.00  0.00    +0.033 A 
ATOM     10  C   UNL     1      13.246   3.591   0.491  0.00  0.00    +0.012 A 
ATOM     11  C   UNL     1      14.418   2.908   0.764  0.00  0.00    +0.001 A 
ATOM     12  C   UNL     1      14.441   1.525   0.757  0.00  0.00    +0.001 A 
ATOM     13  C   UNL     1      13.293   0.805   0.478  0.00  0.00    +0.012 A 
ATOM     14  C   UNL     1      12.106   1.476   0.202  0.00  0.00    +0.033 A 
ATOM     15  C   UNL     1      10.869   0.723  -0.099  0.00  0.00    +0.195 C 
ATOM     16  O   UNL     1      10.919  -0.464  -0.356  0.00  0.00    -0.287 OA
ENDROOT
BRANCH   6  17
ATOM     17  N   UNL     1       5.928   3.470  -0.047  0.00  0.00    -0.357 N 
ATOM     18  H   UNL     1       5.096   2.971  -0.041  0.00  0.00    +0.142 HD
ATOM     19  H   UNL     1       5.913   4.440  -0.045  0.00  0.00    +0.142 HD
ENDBRANCH   6  17
BRANCH   1  21
ATOM     20  C   UNL     1       4.925   0.051  -0.046  0.00  0.00    -0.018 C 
ATOM     21  C   UNL     1       5.932   0.655  -0.052  0.00  0.00    -0.056 C 
BRANCH  20  22
ATOM     22  C   UNL     1       3.696  -0.685  -0.038  0.00  0.00    +0.236 C 
ATOM     23  O   UNL     1       3.716  -1.902  -0.046  0.00  0.00    -0.277 OA
BRANCH  22  27
ATOM     24  C   UNL     1      -0.017   1.380   0.010  0.00  0.00    +0.000 A 
ATOM     25  C   UNL     1       1.169   2.094   0.002  0.00  0.00    +0.001 A 
ATOM     26  C   UNL     1       2.377   1.430  -0.013  0.00  0.00    +0.012 A 
ATOM     27  C   UNL     1       2.404   0.034  -0.021  0.00  0.00    +0.030 A 
ATOM     28  C   UNL     1       1.204  -0.680  -0.013  0.00  0.00    +0.012 A 
ATOM     29  C   UNL     1       0.002  -0.004   0.002  0.00  0.00    +0.001 A 
ENDBRANCH  22  27
ENDBRANCH  20  22
ENDBRANCH   1  21
TORSDOF 4
