REMARK  Name = ZINC30977935
REMARK  13 active torsions:
REMARK  status: ('A' for Active; 'I' for Inactive)
REMARK    1  A    between atoms: C_1  and  C_2
REMARK    2  A    between atoms: N_7  and  C_9
REMARK    3  A    between atoms: C_12  and  C_15
REMARK    4  A    between atoms: C_15  and  C_17
REMARK    5  A    between atoms: C_15  and  N_18
REMARK    6  A    between atoms: C_19  and  C_21
REMARK    7  A    between atoms: N_24  and  C_27
REMARK    8  A    between atoms: C_27  and  C_28
REMARK    9  A    between atoms: C_30  and  C_33
REMARK   10  A    between atoms: C_36  and  C_39
REMARK   11  A    between atoms: C_39  and  C_40
REMARK   12  A    between atoms: C_39  and  C_41
REMARK   13  A    between atoms: C_39  and  C_42
REMARK                            x       y       z     vdW  Elec       q    Type
REMARK                         _______ _______ _______ _____ _____    ______ ____
ROOT
ATOM      1  C   UNL     1       0.836   0.803  -9.482  0.00  0.00    +0.071 C 
ATOM      2  C   UNL     1       0.036  -0.488  -9.678  0.00  0.00    -0.006 C 
ATOM      3  C   UNL     1      -0.843  -0.353 -10.923  0.00  0.00    -0.077 C 
ATOM      4  N   UNL     1       0.003  -0.099 -12.096  0.00  0.00    +0.386 N 
ATOM      5  C   UNL     1       0.746   1.160 -11.952  0.00  0.00    -0.077 C 
ATOM      6  C   UNL     1       1.672   1.071 -10.737  0.00  0.00    -0.006 C 
ATOM      7  H   UNL     1       0.737  -0.915 -12.163  0.00  0.00    -0.081 HD
ENDROOT
BRANCH   1   9
ATOM      8  N   UNL     1       1.230   0.412  -7.072  0.00  0.00    -0.309 N 
ATOM      9  C   UNL     1       1.748   0.654  -8.292  0.00  0.00    +0.216 C 
ATOM     10  O   UNL     1       2.949   0.753  -8.432  0.00  0.00    -0.276 OA
ATOM     11  H   UNL     1       0.141   0.323  -6.945  0.00  0.00    +0.149 HD
BRANCH   8  12
ATOM     12  C   UNL     1       2.116   0.268  -5.914  0.00  0.00    +0.100 C 
ATOM     13  C   UNL     1       2.613  -1.177  -5.829  0.00  0.00    +0.033 C 
BRANCH  12  17
ATOM     14  C   UNL     1      -0.023   1.251  -2.348  0.00  0.00    +0.030 A 
ATOM     15  C   UNL     1      -0.644   0.519  -3.353  0.00  0.00    +0.023 A 
ATOM     16  C   UNL     1       0.049   0.208  -4.506  0.00  0.00    +0.007 A 
ATOM     17  C   UNL     1       1.362   0.615  -4.657  0.00  0.00    -0.027 A 
ATOM     18  C   UNL     1       1.984   1.339  -3.656  0.00  0.00    +0.007 A 
ATOM     19  C   UNL     1       1.296   1.658  -2.503  0.00  0.00    +0.023 A 
BRANCH  14  25
ATOM     20  C   UNL     1      -4.296   0.984  -0.049  0.00  0.00    +0.009 C 
ATOM     21  C   UNL     1      -2.873   1.544  -0.009  0.00  0.00    +0.003 C 
ATOM     22  C   UNL     1      -2.170   1.064   1.264  0.00  0.00    +0.006 C 
ATOM     23  C   UNL     1      -0.729   1.579   1.267  0.00  0.00    +0.019 C 
ATOM     24  C   UNL     1      -0.013   1.086   0.008  0.00  0.00    +0.105 C 
ATOM     25  N   UNL     1      -0.723   1.572  -1.182  0.00  0.00    -0.330 N 
ATOM     26  C   UNL     1      -2.095   1.052  -1.231  0.00  0.00    +0.108 C 
ENDBRANCH  14  25
ENDBRANCH  12  17
ENDBRANCH   8  12
ENDBRANCH   1   9
BRANCH   4  27
ATOM     27  C   UNL     1      -0.793  -0.101 -13.330  0.00  0.00    +0.022 C 
BRANCH  27  28
ATOM     28  C   UNL     1      -1.342  -1.484 -13.571  0.00  0.00    +0.211 A 
ATOM     29  N   UNL     1      -2.487  -1.953 -13.140  0.00  0.00    -0.193 NA
ATOM     30  C   UNL     1      -2.554  -3.224 -13.596  0.00  0.00    +0.202 A 
ATOM     31  N   UNL     1      -1.457  -3.450 -14.271  0.00  0.00    -0.056 NA
ATOM     32  O   UNL     1      -0.755  -2.461 -14.269  0.00  0.00    -0.340 OA
BRANCH  30  33
ATOM     33  C   UNL     1      -3.665  -4.183 -13.373  0.00  0.00    +0.022 A 
ATOM     34  C   UNL     1      -4.776  -3.803 -12.623  0.00  0.00    +0.012 A 
ATOM     35  C   UNL     1      -5.809  -4.697 -12.423  0.00  0.00    +0.005 A 
ATOM     36  C   UNL     1      -5.736  -5.971 -12.955  0.00  0.00    -0.042 A 
ATOM     37  C   UNL     1      -4.632  -6.356 -13.695  0.00  0.00    +0.005 A 
ATOM     38  C   UNL     1      -3.597  -5.468 -13.906  0.00  0.00    +0.012 A 
BRANCH  36  39
ATOM     39  C   UNL     1      -6.863  -6.945 -12.727  0.00  0.00    -0.013 C 
ATOM     40  C   UNL     1      -6.332  -8.177 -11.991  0.00  0.00    +0.015 C 
ATOM     41  C   UNL     1      -7.952  -6.277 -11.886  0.00  0.00    +0.015 C 
ATOM     42  C   UNL     1      -7.450  -7.371 -14.075  0.00  0.00    +0.015 C 
ENDBRANCH  36  39
ENDBRANCH  30  33
ENDBRANCH  27  28
ENDBRANCH   4  27
TORSDOF 8
