REMARK  Name = ZINC67382717
REMARK  6 active torsions:
REMARK  status: ('A' for Active; 'I' for Inactive)
REMARK    1  A    between atoms: C_1  and  C_2
REMARK    2  A    between atoms: N_6  and  C_16
REMARK    3  A    between atoms: C_16  and  N_17
REMARK    4  A    between atoms: C_21  and  C_24
REMARK    5  A    between atoms: C_24  and  N_25
REMARK    6  A    between atoms: C_26  and  C_28
REMARK                            x       y       z     vdW  Elec       q    Type
REMARK                         _______ _______ _______ _____ _____    ______ ____
ROOT
ATOM      1  C   UNL     1      -0.018   1.503   0.010  0.00  0.00    +0.044 C 
ATOM      2  C   UNL     1       0.002  -0.004   0.002  0.00  0.00    -0.038 A 
ATOM      3  C   UNL     1       0.006  -0.679  -1.166  0.00  0.00    +0.052 A 
ATOM      4  C   UNL     1       0.026  -2.144  -1.162  0.00  0.00    +0.160 A 
ATOM      5  N   UNL     1       0.034  -3.012  -2.145  0.00  0.00    -0.153 NA
ATOM      6  N   UNL     1       0.054  -4.297  -1.587  0.00  0.00    -0.257 N 
ATOM      7  C   UNL     1       0.059  -4.158  -0.246  0.00  0.00    +0.181 A 
ATOM      8  S   UNL     1       0.083  -5.431   0.900  0.00  0.00    -0.011 S 
ATOM      9  N   UNL     1       0.042  -2.838   0.033  0.00  0.00    -0.271 N 
ATOM     10  C   UNL     1       0.038  -2.155   1.244  0.00  0.00    +0.058 A 
ATOM     11  C   UNL     1       0.024  -0.752   1.265  0.00  0.00    +0.002 A 
ATOM     12  C   UNL     1       0.026  -0.075   2.488  0.00  0.00    +0.010 A 
ATOM     13  C   UNL     1       0.046  -0.791   3.666  0.00  0.00    +0.001 A 
ATOM     14  C   UNL     1       0.066  -2.177   3.642  0.00  0.00    +0.002 A 
ATOM     15  C   UNL     1       0.054  -2.858   2.442  0.00  0.00    +0.027 A 
ENDROOT
BRANCH   6  16
ATOM     16  C   UNL     1       0.068  -5.562  -2.326  0.00  0.00    +0.072 C 
BRANCH  16  17
ATOM     17  N   UNL     1       1.406  -5.786  -2.889  0.00  0.00    +0.393 N 
ATOM     18  C   UNL     1       1.699  -4.744  -3.880  0.00  0.00    -0.076 C 
ATOM     19  C   UNL     1       3.123  -4.925  -4.411  0.00  0.00    -0.018 C 
ATOM     20  C   UNL     1       3.246  -6.303  -5.065  0.00  0.00    +0.001 C 
ATOM     21  C   UNL     1       2.867  -7.379  -4.043  0.00  0.00    -0.010 C 
ATOM     22  C   UNL     1       1.453  -7.107  -3.526  0.00  0.00    -0.071 C 
ATOM     23  H   UNL     1       2.092  -5.746  -2.150  0.00  0.00    -0.079 HD
BRANCH  21  24
ATOM     24  C   UNL     1       2.913  -8.755  -4.709  0.00  0.00    +0.105 C 
BRANCH  24  25
ATOM     25  N   UNL     1       4.290  -9.063  -5.101  0.00  0.00    -0.315 N 
ATOM     26  C   UNL     1       4.573 -10.231  -5.710  0.00  0.00    +0.210 C 
ATOM     27  O   UNL     1       3.687 -11.029  -5.933  0.00  0.00    -0.276 OA
ATOM     28  C   UNL     1       5.990 -10.547  -6.113  0.00  0.00    +0.109 C 
ATOM     29  H   UNL     1       4.999  -8.425  -4.923  0.00  0.00    +0.149 HD
ENDBRANCH  24  25
ENDBRANCH  21  24
ENDBRANCH  16  17
ENDBRANCH   6  16
TORSDOF 4
