REMARK  Name = ZINC61747586
REMARK  7 active torsions:
REMARK  status: ('A' for Active; 'I' for Inactive)
REMARK    1  A    between atoms: C_3  and  C_22
REMARK    2  A    between atoms: C_6  and  C_7
REMARK    3  A    between atoms: C_7  and  N_8
REMARK    4  A    between atoms: N_11  and  C_12
REMARK    5  A    between atoms: C_15  and  O_18
REMARK    6  A    between atoms: O_18  and  C_19
REMARK    7  A    between atoms: C_19  and  C_20
REMARK                            x       y       z     vdW  Elec       q    Type
REMARK                         _______ _______ _______ _____ _____    ______ ____
ROOT
ATOM      1  C   UNL     1      -1.296  -0.769   0.011  0.00  0.00    +0.141 C 
ENDROOT
BRANCH   1   7
ATOM      2  C   UNL     1      -0.032   1.391   0.014  0.00  0.00    +0.006 A 
ATOM      3  C   UNL     1       1.147   2.107   0.006  0.00  0.00    +0.009 A 
ATOM      4  C   UNL     1       2.368   1.435  -0.013  0.00  0.00    -0.018 A 
ATOM      5  C   UNL     1       2.389   0.042  -0.026  0.00  0.00    +0.009 A 
ATOM      6  C   UNL     1       1.204  -0.665  -0.018  0.00  0.00    +0.006 A 
ATOM      7  C   UNL     1      -0.005   0.008   0.002  0.00  0.00    -0.030 A 
BRANCH   4   8
ATOM      8  C   UNL     1       3.639   2.200  -0.022  0.00  0.00    -0.017 A 
ATOM      9  C   UNL     1       3.620   3.594  -0.005  0.00  0.00    +0.012 A 
ATOM     10  C   UNL     1       4.800   4.303  -0.009  0.00  0.00    +0.046 A 
ATOM     11  C   UNL     1       6.024   3.636  -0.032  0.00  0.00    +0.124 A 
ATOM     12  C   UNL     1       6.035   2.246  -0.056  0.00  0.00    -0.002 A 
ATOM     13  C   UNL     1       4.862   1.530  -0.042  0.00  0.00    +0.015 A 
ATOM     14  C   UNL     1       7.489   1.815  -0.102  0.00  0.00    +0.080 C 
ATOM     15  C   UNL     1       8.201   3.130  -0.496  0.00  0.00    +0.234 C 
ATOM     16  O   UNL     1       7.289   4.138  -0.028  0.00  0.00    -0.491 OA
ENDBRANCH   4   8
ENDBRANCH   1   7
BRANCH   1  17
ATOM     17  N   UNL     1      -1.731  -1.009  -1.368  0.00  0.00    -0.295 N 
ATOM     18  C   UNL     1      -2.869  -1.690  -1.606  0.00  0.00    +0.304 C 
ATOM     19  O   UNL     1      -3.535  -2.105  -0.677  0.00  0.00    -0.252 OA
ATOM     20  N   UNL     1      -3.269  -1.911  -2.874  0.00  0.00    -0.269 N 
ATOM     21  H   UNL     1      -1.200  -0.678  -2.108  0.00  0.00    +0.151 HD
ATOM     22  H   UNL     1      -2.775  -1.523  -3.613  0.00  0.00    +0.156 HD
BRANCH  20  23
ATOM     23  C   UNL     1      -4.400  -2.701  -3.125  0.00  0.00    +0.035 A 
ATOM     24  C   UNL     1      -4.437  -3.525  -4.241  0.00  0.00    +0.027 A 
ATOM     25  C   UNL     1      -5.551  -4.304  -4.487  0.00  0.00    +0.047 A 
ATOM     26  C   UNL     1      -6.632  -4.262  -3.619  0.00  0.00    +0.122 A 
ATOM     27  C   UNL     1      -6.596  -3.438  -2.504  0.00  0.00    +0.047 A 
ATOM     28  C   UNL     1      -5.480  -2.663  -2.254  0.00  0.00    +0.027 A 
BRANCH  26  29
ATOM     29  O   UNL     1      -7.728  -5.029  -3.862  0.00  0.00    -0.477 OA
BRANCH  29  30
ATOM     30  C   UNL     1      -8.805  -4.936  -2.927  0.00  0.00    +0.346 C 
BRANCH  30  31
ATOM     31  C   UNL     1      -9.898  -5.828  -3.347  0.00  0.00    +0.104 C 
ATOM     32  N   UNL     1     -10.741  -6.517  -3.671  0.00  0.00    -0.193 NA
ENDBRANCH  30  31
ENDBRANCH  29  30
ENDBRANCH  26  29
ENDBRANCH  20  23
ENDBRANCH   1  17
TORSDOF 7
