REMARK  Name = ZINC12804737
REMARK  8 active torsions:
REMARK  status: ('A' for Active; 'I' for Inactive)
REMARK    1  A    between atoms: C_3  and  S_24
REMARK    2  A    between atoms: C_6  and  C_7
REMARK    3  A    between atoms: C_7  and  C_9
REMARK    4  A    between atoms: C_9  and  S_10
REMARK    5  A    between atoms: S_10  and  C_11
REMARK    6  A    between atoms: N_16  and  C_17
REMARK    7  A    between atoms: C_17  and  C_18
REMARK    8  A    between atoms: S_24  and  N_27
REMARK                            x       y       z     vdW  Elec       q    Type
REMARK                         _______ _______ _______ _____ _____    ______ ____
ROOT
ATOM      1  C   UNL     1      -3.114   3.063   4.883  0.00  0.00    +0.173 C 
ATOM      2  O   UNL     1      -3.920   2.302   5.375  0.00  0.00    -0.291 OA
ENDROOT
BRANCH   1   8
ATOM      3  C   UNL     1      -2.561   1.400   3.117  0.00  0.00    +0.013 A 
ATOM      4  C   UNL     1      -1.846   1.029   1.998  0.00  0.00    +0.029 A 
ATOM      5  C   UNL     1      -0.927   1.900   1.439  0.00  0.00    +0.106 A 
ATOM      6  C   UNL     1      -0.714   3.147   2.002  0.00  0.00    +0.029 A 
ATOM      7  C   UNL     1      -1.425   3.534   3.117  0.00  0.00    +0.013 A 
ATOM      8  C   UNL     1      -2.356   2.660   3.688  0.00  0.00    +0.018 A 
BRANCH   5   9
ATOM      9  S   UNL     1      -0.017   1.417   0.010  0.00  0.00    +0.061 S 
ATOM     10  O   UNL     1       0.002  -0.004   0.002  0.00  0.00    -0.153 OA
ATOM     11  O   UNL     1       1.172   2.195   0.003  0.00  0.00    -0.153 OA
BRANCH   9  12
ATOM     12  N   UNL     1      -0.897   1.885  -1.312  0.00  0.00    -0.172 NA
ATOM     13  C   UNL     1      -1.888   0.984  -1.921  0.00  0.00    +0.137 C 
ATOM     14  C   UNL     1      -3.209   1.756  -2.073  0.00  0.00    +0.177 C 
ATOM     15  O   UNL     1      -2.958   2.982  -2.764  0.00  0.00    -0.377 OA
ATOM     16  C   UNL     1      -2.082   3.875  -2.072  0.00  0.00    +0.177 C 
ATOM     17  C   UNL     1      -0.708   3.214  -1.917  0.00  0.00    +0.137 C 
ENDBRANCH   9  12
ENDBRANCH   5   9
ENDBRANCH   1   8
BRANCH   1  18
ATOM     18  C   UNL     1      -2.890   4.422   5.495  0.00  0.00    +0.156 C 
BRANCH  18  19
ATOM     19  S   UNL     1      -3.965   4.618   6.942  0.00  0.00    -0.089 S 
BRANCH  19  20
ATOM     20  C   UNL     1      -3.589   6.233   7.537  0.00  0.00    +0.160 A 
ATOM     21  N   UNL     1      -2.729   7.117   7.068  0.00  0.00    -0.133 NA
ATOM     22  N   UNL     1      -2.595   8.337   7.690  0.00  0.00    -0.125 NA
ATOM     23  C   UNL     1      -3.318   8.613   8.758  0.00  0.00    +0.182 A 
ATOM     24  S   UNL     1      -4.266   7.109   8.939  0.00  0.00    -0.025 S 
ATOM     25  N   UNL     1      -3.338   9.765   9.535  0.00  0.00    -0.320 N 
ATOM     26  H   UNL     1      -3.930   9.824  10.301  0.00  0.00    +0.148 HD
BRANCH  25  27
ATOM     27  C   UNL     1      -2.464  10.891   9.197  0.00  0.00    +0.135 C 
BRANCH  27  28
ATOM     28  C   UNL     1      -2.679  12.024  10.203  0.00  0.00    +0.135 C 
ATOM     29  C   UNL     1      -1.770  13.217   9.851  0.00  0.00    +0.035 C 
ATOM     30  C   UNL     1      -2.753  14.393   9.633  0.00  0.00    +0.031 C 
ATOM     31  C   UNL     1      -4.013  13.907  10.393  0.00  0.00    +0.160 C 
ATOM     32  O   UNL     1      -4.039  12.485  10.135  0.00  0.00    -0.375 OA
ENDBRANCH  27  28
ENDBRANCH  25  27
ENDBRANCH  19  20
ENDBRANCH  18  19
ENDBRANCH   1  18
TORSDOF 8
