REMARK  Name = ZINC63372247
REMARK  8 active torsions:
REMARK  status: ('A' for Active; 'I' for Inactive)
REMARK    1  A    between atoms: C_1  and  C_2
REMARK    2  A    between atoms: C_2  and  C_3
REMARK    3  A    between atoms: C_2  and  C_4
REMARK    4  A    between atoms: C_4  and  C_6
REMARK    5  A    between atoms: C_4  and  N_17
REMARK    6  A    between atoms: N_8  and  C_9
REMARK    7  A    between atoms: C_9  and  C_10
REMARK    8  A    between atoms: C_20  and  C_36
REMARK                            x       y       z     vdW  Elec       q    Type
REMARK                         _______ _______ _______ _____ _____    ______ ____
ROOT
ATOM      1  N   UNL     1      -2.085  -0.715  -1.334  0.00  0.00    -0.212 N 
ATOM      2  C   UNL     1      -2.419  -1.855  -1.974  0.00  0.00    +0.249 C 
ATOM      3  O   UNL     1      -2.168  -2.989  -1.628  0.00  0.00    -0.273 OA
ATOM      4  C   UNL     1      -3.170  -1.422  -3.213  0.00  0.00    +0.136 C 
ATOM      5  C   UNL     1      -2.468  -1.927  -4.473  0.00  0.00    +0.139 C 
ATOM      6  C   UNL     1      -1.888  -0.714  -5.186  0.00  0.00    -0.034 C 
ATOM      7  C   UNL     1      -0.587  -0.954  -5.331  0.00  0.00    -0.001 A 
ATOM      8  C   UNL     1       0.479  -0.188  -5.995  0.00  0.00    +0.010 A 
ATOM      9  C   UNL     1       1.725  -0.730  -5.946  0.00  0.00    +0.001 A 
ATOM     10  C   UNL     1       2.012  -1.942  -5.309  0.00  0.00    +0.002 A 
ATOM     11  C   UNL     1       1.092  -2.714  -4.678  0.00  0.00    +0.026 A 
ATOM     12  C   UNL     1      -0.256  -2.251  -4.667  0.00  0.00    +0.043 A 
ATOM     13  N   UNL     1      -1.336  -2.799  -4.156  0.00  0.00    -0.375 N 
ATOM     14  C   UNL     1      -2.696   0.508  -5.551  0.00  0.00    +0.052 C 
ATOM     15  C   UNL     1      -3.439   0.953  -4.275  0.00  0.00    +0.115 C 
ATOM     16  N   UNL     1      -3.048   0.050  -3.188  0.00  0.00    -0.269 N 
ATOM     17  C   UNL     1      -2.485   0.369  -2.014  0.00  0.00    +0.313 C 
ATOM     18  O   UNL     1      -2.348   1.508  -1.614  0.00  0.00    -0.252 OA
ATOM     19  C   UNL     1      -4.634  -1.863  -3.160  0.00  0.00    +0.044 C 
ATOM     20  H   UNL     1      -1.382  -3.629  -3.655  0.00  0.00    +0.160 HD
ENDROOT
BRANCH   1  21
ATOM     21  C   UNL     1      -1.380  -0.667  -0.051  0.00  0.00    +0.174 C 
BRANCH  21  22
ATOM     22  C   UNL     1      -2.290  -0.089   1.002  0.00  0.00    +0.235 C 
ATOM     23  O   UNL     1      -3.263   0.556   0.674  0.00  0.00    -0.274 OA
ATOM     24  N   UNL     1      -2.022  -0.289   2.308  0.00  0.00    -0.310 N 
ATOM     25  H   UNL     1      -1.204  -0.738   2.572  0.00  0.00    +0.149 HD
BRANCH  24  26
ATOM     26  C   UNL     1      -2.967   0.172   3.328  0.00  0.00    +0.141 C 
BRANCH  26  27
ATOM     27  C   UNL     1      -2.437  -0.172   4.696  0.00  0.00    -0.012 A 
ATOM     28  C   UNL     1      -2.913  -1.286   5.362  0.00  0.00    +0.006 A 
ATOM     29  C   UNL     1      -2.426  -1.601   6.617  0.00  0.00    +0.000 A 
ATOM     30  C   UNL     1      -1.463  -0.802   7.206  0.00  0.00    +0.001 A 
ATOM     31  C   UNL     1      -0.986   0.311   6.541  0.00  0.00    +0.020 A 
ATOM     32  C   UNL     1      -1.469   0.624   5.282  0.00  0.00    +0.046 A 
ATOM     33 CL   UNL     1      -0.866   2.019   4.443  0.00  0.00    -0.083 Cl
ENDBRANCH  26  27
ENDBRANCH  24  26
ENDBRANCH  21  22
BRANCH  21  35
ATOM     34  C   UNL     1       0.662   0.172   1.120  0.00  0.00    +0.009 C 
ATOM     35  C   UNL     1      -0.134   0.211  -0.186  0.00  0.00    +0.013 C 
ATOM     36  C   UNL     1       0.737  -0.312  -1.330  0.00  0.00    +0.009 C 
ENDBRANCH  21  35
ENDBRANCH   1  21
TORSDOF 5
