REMARK  Name = ZINC58924795
REMARK  8 active torsions:
REMARK  status: ('A' for Active; 'I' for Inactive)
REMARK    1  A    between atoms: C_4  and  S_7
REMARK    2  A    between atoms: S_7  and  N_10
REMARK    3  A    between atoms: N_10  and  C_11
REMARK    4  A    between atoms: N_10  and  C_23
REMARK    5  A    between atoms: C_11  and  C_12
REMARK    6  A    between atoms: N_14  and  N_15
REMARK    7  A    between atoms: C_16  and  C_17
REMARK    8  A    between atoms: C_27  and  C_29
REMARK                            x       y       z     vdW  Elec       q    Type
REMARK                         _______ _______ _______ _____ _____    ______ ____
ROOT
ATOM      1  N   UNL     1       4.378  -1.079   1.536  0.00  0.00    -0.194 N 
ENDROOT
BRANCH   1   2
ATOM      2  C   UNL     1       5.241  -0.179   2.167  0.00  0.00    +0.052 A 
ATOM      3  C   UNL     1       4.914   0.340   3.414  0.00  0.00    +0.026 A 
ATOM      4  C   UNL     1       5.770   1.228   4.036  0.00  0.00    +0.022 A 
ATOM      5  C   UNL     1       6.951   1.600   3.419  0.00  0.00    +0.053 A 
ATOM      6  C   UNL     1       7.279   1.084   2.178  0.00  0.00    +0.075 A 
ATOM      7  C   UNL     1       6.430   0.192   1.553  0.00  0.00    +0.038 A 
ATOM      8 CL   UNL     1       8.024   2.717   4.204  0.00  0.00    -0.083 Cl
BRANCH   6   9
ATOM      9  C   UNL     1       8.567   1.492   1.509  0.00  0.00    +0.419 C 
ATOM     10  F   UNL     1       8.676   0.844   0.274  0.00  0.00    -0.166 F 
ATOM     11  F   UNL     1       8.572   2.877   1.312  0.00  0.00    -0.166 F 
ATOM     12  F   UNL     1       9.648   1.132   2.321  0.00  0.00    -0.166 F 
ENDBRANCH   6   9
ENDBRANCH   1   2
BRANCH   1  13
ATOM     13  S   UNL     1       3.741  -0.711   0.052  0.00  0.00    +0.075 S 
ATOM     14  O   UNL     1       3.524  -1.947  -0.615  0.00  0.00    -0.150 OA
ATOM     15  O   UNL     1       4.554   0.317  -0.496  0.00  0.00    -0.150 OA
BRANCH  13  19
ATOM     16  C   UNL     1      -0.343   1.109   0.759  0.00  0.00    +0.000 A 
ATOM     17  C   UNL     1       0.776   1.920   0.709  0.00  0.00    +0.002 A 
ATOM     18  C   UNL     1       2.023   1.364   0.493  0.00  0.00    +0.029 A 
ATOM     19  C   UNL     1       2.151  -0.003   0.328  0.00  0.00    +0.109 A 
ATOM     20  C   UNL     1       1.033  -0.813   0.379  0.00  0.00    +0.029 A 
ATOM     21  C   UNL     1      -0.215  -0.257   0.593  0.00  0.00    +0.002 A 
ENDBRANCH  13  19
ENDBRANCH   1  13
BRANCH   1  22
ATOM     22  C   UNL     1       4.036  -2.346   2.186  0.00  0.00    +0.228 C 
BRANCH  22  23
ATOM     23  C   UNL     1       5.096  -3.371   1.877  0.00  0.00    +0.251 C 
ATOM     24  O   UNL     1       6.044  -3.072   1.182  0.00  0.00    -0.272 OA
ATOM     25  N   UNL     1       4.991  -4.620   2.373  0.00  0.00    -0.206 N 
ATOM     26  H   UNL     1       4.233  -4.859   2.929  0.00  0.00    +0.177 HD
BRANCH  25  27
ATOM     27  N   UNL     1       5.977  -5.573   2.086  0.00  0.00    -0.188 NA
ATOM     28  C   UNL     1       5.876  -6.775   2.563  0.00  0.00    +0.139 C 
BRANCH  28  29
ATOM     29  C   UNL     1       6.914  -7.779   2.261  0.00  0.00    +0.013 A 
ATOM     30  C   UNL     1       6.814  -9.082   2.766  0.00  0.00    +0.012 A 
ATOM     31  C   UNL     1       7.814  -9.984   2.453  0.00  0.00    +0.020 A 
ATOM     32  C   UNL     1       8.871  -9.576   1.659  0.00  0.00    +0.111 A 
ATOM     33  N   UNL     1       8.940  -8.342   1.198  0.00  0.00    -0.263 NA
ATOM     34  C   UNL     1       8.010  -7.447   1.462  0.00  0.00    +0.120 A 
ENDBRANCH  28  29
ENDBRANCH  25  27
ENDBRANCH  22  23
ENDBRANCH   1  22
TORSDOF 8
