REMARK  Name = ZINC35058952
REMARK  12 active torsions:
REMARK  status: ('A' for Active; 'I' for Inactive)
REMARK    1  A    between atoms: C_1  and  C_2
REMARK    2  A    between atoms: C_3  and  C_35
REMARK    3  A    between atoms: C_4  and  C_14
REMARK    4  A    between atoms: C_6  and  C_8
REMARK    5  A    between atoms: C_20  and  C_23
REMARK    6  A    between atoms: N_26  and  C_27
REMARK    7  A    between atoms: C_32  and  O_33
REMARK    8  A    between atoms: O_33  and  C_34
REMARK    9  A    between atoms: C_35  and  O_37
REMARK   10  A    between atoms: O_37  and  C_38
REMARK   11  A    between atoms: C_38  and  C_39
REMARK   12  A    between atoms: C_38  and  C_40
REMARK                            x       y       z     vdW  Elec       q    Type
REMARK                         _______ _______ _______ _____ _____    ______ ____
ROOT
ATOM      1  C   UNL     1      -0.080  -2.864  -2.184  0.00  0.00    +0.266 C 
ATOM      2  O   UNL     1      -0.284  -2.278  -3.228  0.00  0.00    -0.268 OA
ATOM      3  N   UNL     1      -0.002  -4.210  -2.171  0.00  0.00    -0.293 N 
ATOM      4  C   UNL     1       0.280  -4.930  -0.921  0.00  0.00    +0.127 C 
ATOM      5  C   UNL     1       1.506  -5.826  -1.139  0.00  0.00    +0.128 C 
ATOM      6  N   UNL     1       1.310  -6.599  -2.373  0.00  0.00    -0.280 N 
ATOM      7  C   UNL     1       1.027  -5.878  -3.623  0.00  0.00    +0.092 C 
ATOM      8  C   UNL     1      -0.204  -4.983  -3.404  0.00  0.00    +0.130 C 
ATOM      9  C   UNL     1       0.742  -6.883  -4.741  0.00  0.00    +0.030 C 
ATOM     10  C   UNL     1       1.388  -7.944  -2.360  0.00  0.00    +0.307 C 
ATOM     11  O   UNL     1       1.314  -8.568  -3.401  0.00  0.00    -0.252 OA
ATOM     12  N   UNL     1       1.548  -8.599  -1.192  0.00  0.00    -0.266 N 
ATOM     13  H   UNL     1       1.516  -8.111  -0.355  0.00  0.00    +0.156 HD
ENDROOT
BRANCH   1  17
ATOM     14  C   UNL     1       0.407   1.484   0.317  0.00  0.00    +0.066 C 
ATOM     15  C   UNL     1       0.316  -0.020   0.279  0.00  0.00    +0.057 A 
ATOM     16  C   UNL     1       0.163  -0.692  -0.941  0.00  0.00    +0.110 A 
ATOM     17  C   UNL     1       0.083  -2.098  -0.921  0.00  0.00    +0.144 A 
ATOM     18  N   UNL     1       0.155  -2.726   0.245  0.00  0.00    -0.222 NA
ATOM     19  C   UNL     1       0.300  -2.047   1.374  0.00  0.00    +0.161 A 
ATOM     20  N   UNL     1       0.385  -0.723   1.393  0.00  0.00    -0.232 NA
BRANCH  19  21
ATOM     21  C   UNL     1       0.376  -2.790   2.654  0.00  0.00    +0.019 A 
ATOM     22  C   UNL     1       0.300  -4.183   2.661  0.00  0.00    +0.011 A 
ATOM     23  C   UNL     1       0.371  -4.869   3.856  0.00  0.00    +0.001 A 
ATOM     24  C   UNL     1       0.517  -4.179   5.046  0.00  0.00    +0.000 A 
ATOM     25  C   UNL     1       0.592  -2.797   5.045  0.00  0.00    +0.001 A 
ATOM     26  C   UNL     1       0.528  -2.100   3.856  0.00  0.00    +0.011 A 
ENDBRANCH  19  21
BRANCH  16  27
ATOM     27  C   UNL     1       0.087   0.054  -2.214  0.00  0.00    +0.343 C 
ATOM     28  O   UNL     1       1.102   0.300  -2.835  0.00  0.00    -0.245 OA
BRANCH  27  29
ATOM     29  O   UNL     1      -1.107   0.461  -2.686  0.00  0.00    -0.458 OA
BRANCH  29  30
ATOM     30  C   UNL     1      -1.106   1.178  -3.922  0.00  0.00    +0.171 C 
ATOM     31  C   UNL     1      -2.419   0.917  -4.664  0.00  0.00    +0.052 C 
ATOM     32  C   UNL     1      -0.966   2.675  -3.644  0.00  0.00    +0.052 C 
ENDBRANCH  29  30
ENDBRANCH  27  29
ENDBRANCH  16  27
ENDBRANCH   1  17
BRANCH  12  33
ATOM     33  C   UNL     1       1.761  -9.984  -1.189  0.00  0.00    +0.077 A 
ATOM     34  C   UNL     1       2.175 -10.627  -2.346  0.00  0.00    +0.027 A 
ATOM     35  C   UNL     1       2.384 -11.993  -2.340  0.00  0.00    +0.002 A 
ATOM     36  C   UNL     1       2.181 -12.722  -1.183  0.00  0.00    +0.004 A 
ATOM     37  C   UNL     1       1.768 -12.088  -0.026  0.00  0.00    +0.047 A 
ATOM     38  C   UNL     1       1.562 -10.718  -0.022  0.00  0.00    +0.141 A 
BRANCH  38  39
ATOM     39  O   UNL     1       1.161 -10.093   1.117  0.00  0.00    -0.493 OA
ATOM     40  C   UNL     1       0.977 -10.909   2.275  0.00  0.00    +0.277 C 
ENDBRANCH  38  39
ENDBRANCH  12  33
TORSDOF 7
