REMARK  Name = ZINC35758665
REMARK  9 active torsions:
REMARK  status: ('A' for Active; 'I' for Inactive)
REMARK    1  A    between atoms: C_1  and  C_2
REMARK    2  A    between atoms: C_2  and  C_3
REMARK    3  A    between atoms: C_3  and  C_5
REMARK    4  A    between atoms: C_3  and  N_6
REMARK    5  A    between atoms: C_7  and  C_9
REMARK    6  A    between atoms: C_9  and  N_10
REMARK    7  A    between atoms: N_12  and  C_26
REMARK    8  A    between atoms: N_23  and  C_24
REMARK    9  A    between atoms: C_24  and  C_25
REMARK                            x       y       z     vdW  Elec       q    Type
REMARK                         _______ _______ _______ _____ _____    ______ ____
ROOT
ATOM      1  N   UNL     1      -5.558   0.400   2.539  0.00  0.00    -0.275 N 
ATOM      2  C   UNL     1      -6.319   1.600   2.194  0.00  0.00    +0.217 C 
ATOM      3  N   UNL     1      -7.710   1.201   1.943  0.00  0.00    -0.300 N 
ATOM      4  C   UNL     1      -7.753  -0.252   2.146  0.00  0.00    +0.115 C 
ATOM      5  C   UNL     1      -6.357  -0.681   2.513  0.00  0.00    +0.241 C 
ATOM      6  O   UNL     1      -6.009  -1.818   2.750  0.00  0.00    -0.273 OA
ATOM      7  C   UNL     1      -8.187  -0.945   0.854  0.00  0.00    +0.054 C 
ATOM      8  C   UNL     1      -9.584  -0.457   0.460  0.00  0.00    +0.112 C 
ATOM      9  N   UNL     1     -10.494  -0.660   1.596  0.00  0.00    -0.285 N 
ATOM     10  C   UNL     1     -10.128  -0.099   2.903  0.00  0.00    +0.112 C 
ATOM     11  C   UNL     1      -8.726  -0.591   3.276  0.00  0.00    +0.054 C 
ATOM     12  C   UNL     1     -11.642  -1.349   1.441  0.00  0.00    +0.302 C 
ATOM     13  O   UNL     1     -11.890  -1.886   0.379  0.00  0.00    -0.253 OA
ATOM     14  N   UNL     1     -12.515  -1.442   2.463  0.00  0.00    -0.300 N 
ATOM     15  H   UNL     1     -12.352  -0.954   3.286  0.00  0.00    +0.150 HD
ENDROOT
BRANCH   3  16
ATOM     16  C   UNL     1      -8.773   2.034   1.585  0.00  0.00    +0.032 A 
ATOM     17  C   UNL     1      -8.550   3.384   1.347  0.00  0.00    +0.023 A 
ATOM     18  C   UNL     1      -9.603   4.204   0.993  0.00  0.00    +0.002 A 
ATOM     19  C   UNL     1     -10.878   3.683   0.875  0.00  0.00    +0.000 A 
ATOM     20  C   UNL     1     -11.103   2.339   1.110  0.00  0.00    +0.002 A 
ATOM     21  C   UNL     1     -10.054   1.512   1.459  0.00  0.00    +0.023 A 
ENDBRANCH   3  16
BRANCH  14  22
ATOM     22  C   UNL     1     -13.710  -2.280   2.333  0.00  0.00    +0.102 C 
ATOM     23  C   UNL     1     -14.525  -2.211   3.625  0.00  0.00    +0.024 C 
ENDBRANCH  14  22
BRANCH   1  24
ATOM     24  C   UNL     1      -4.129   0.377   2.860  0.00  0.00    +0.205 C 
BRANCH  24  26
ATOM     25  N   UNL     1      -1.988   0.122   1.649  0.00  0.00    -0.311 N 
ATOM     26  C   UNL     1      -3.333   0.176   1.597  0.00  0.00    +0.231 C 
ATOM     27  O   UNL     1      -3.904   0.062   0.532  0.00  0.00    -0.274 OA
ATOM     28  H   UNL     1      -1.532   0.213   2.501  0.00  0.00    +0.149 HD
BRANCH  25  29
ATOM     29  C   UNL     1      -1.214  -0.074   0.421  0.00  0.00    +0.070 C 
ATOM     30  C   UNL     1      -1.115  -1.570   0.113  0.00  0.00    +0.028 C 
BRANCH  29  32
ATOM     31  C   UNL     1       0.101   2.018   0.790  0.00  0.00    +0.005 C 
ATOM     32  C   UNL     1       0.191   0.502   0.606  0.00  0.00    +0.018 C 
ENDBRANCH  29  32
ENDBRANCH  25  29
ENDBRANCH  24  26
ENDBRANCH   1  24
TORSDOF 6
