REMARK  Name = ZINC38683987
REMARK  15 active torsions:
REMARK  status: ('A' for Active; 'I' for Inactive)
REMARK    1  A    between atoms: C_1  and  C_2
REMARK    2  A    between atoms: C_2  and  C_3
REMARK    3  A    between atoms: C_3  and  C_4
REMARK    4  A    between atoms: C_4  and  O_5
REMARK    5  A    between atoms: O_5  and  C_6
REMARK    6  A    between atoms: C_9  and  C_15
REMARK    7  A    between atoms: C_11  and  O_12
REMARK    8  A    between atoms: O_12  and  C_13
REMARK    9  A    between atoms: C_13  and  C_14
REMARK   10  A    between atoms: C_20  and  O_29
REMARK   11  A    between atoms: C_24  and  N_28
REMARK   12  A    between atoms: C_25  and  C_26
REMARK   13  A    between atoms: O_29  and  C_30
REMARK   14  A    between atoms: C_30  and  C_32
REMARK   15  A    between atoms: C_36  and  C_38
REMARK                            x       y       z     vdW  Elec       q    Type
REMARK                         _______ _______ _______ _____ _____    ______ ____
ROOT
ATOM      1  C   UNL     1       1.950  -8.056   3.000  0.00  0.00    +0.098 C 
ATOM      2  C   UNL     1       2.692  -8.636   1.826  0.00  0.00    +0.008 A 
ATOM      3  C   UNL     1       4.054  -8.421   1.707  0.00  0.00    +0.012 A 
ATOM      4  C   UNL     1       4.751  -8.945   0.637  0.00  0.00    +0.047 A 
ATOM      5  C   UNL     1       4.085  -9.692  -0.325  0.00  0.00    +0.135 A 
ATOM      6  C   UNL     1       2.722  -9.909  -0.209  0.00  0.00    +0.093 A 
ATOM      7  C   UNL     1       2.022  -9.380   0.868  0.00  0.00    +0.138 A 
ATOM      8  O   UNL     1       0.688  -9.602   0.967  0.00  0.00    -0.441 OA
ATOM      9  C   UNL     1       0.070  -9.451   2.149  0.00  0.00    +0.199 C 
ATOM     10  C   UNL     1       0.616  -8.730   3.152  0.00  0.00    +0.098 C 
ENDROOT
BRANCH   1  14
ATOM     11  C   UNL     1       1.355  -3.868   2.367  0.00  0.00    +0.162 A 
ATOM     12  C   UNL     1       0.827  -4.788   1.476  0.00  0.00    +0.050 A 
ATOM     13  C   UNL     1       1.022  -6.141   1.683  0.00  0.00    +0.008 A 
ATOM     14  C   UNL     1       1.741  -6.580   2.779  0.00  0.00    -0.031 A 
ATOM     15  C   UNL     1       2.270  -5.667   3.673  0.00  0.00    +0.054 A 
ATOM     16  C   UNL     1       2.084  -4.309   3.468  0.00  0.00    +0.162 A 
BRANCH  11  17
ATOM     17  O   UNL     1       1.164  -2.537   2.165  0.00  0.00    -0.488 OA
BRANCH  17  18
ATOM     18  C   UNL     1       0.406  -2.158   1.015  0.00  0.00    +0.229 C 
BRANCH  18  19
ATOM     19  C   UNL     1       0.299  -0.632   0.955  0.00  0.00    +0.041 C 
BRANCH  19  21
ATOM     20  C   UNL     1      -0.620   1.299  -0.337  0.00  0.00    +0.004 C 
ATOM     21  C   UNL     1      -0.513  -0.226  -0.277  0.00  0.00    -0.000 C 
ENDBRANCH  19  21
ENDBRANCH  18  19
ENDBRANCH  17  18
ENDBRANCH  11  17
BRANCH  16  22
ATOM     22  O   UNL     1       2.608  -3.409   4.343  0.00  0.00    -0.489 OA
BRANCH  22  23
ATOM     23  C   UNL     1       3.345  -3.934   5.449  0.00  0.00    +0.226 C 
ATOM     24  C   UNL     1       3.852  -2.780   6.316  0.00  0.00    +0.048 C 
ENDBRANCH  22  23
ENDBRANCH  16  22
ENDBRANCH   1  14
BRANCH   9  25
ATOM     25  N   UNL     1      -1.152 -10.047   2.343  0.00  0.00    -0.328 N 
ATOM     26  H   UNL     1      -1.556 -10.567   1.631  0.00  0.00    +0.145 HD
ATOM     27  H   UNL     1      -1.611  -9.947   3.192  0.00  0.00    +0.145 HD
ENDBRANCH   9  25
BRANCH  10  28
ATOM     28  C   UNL     1      -0.096  -8.606   4.389  0.00  0.00    +0.101 C 
ATOM     29  N   UNL     1      -0.660  -8.509   5.370  0.00  0.00    -0.191 NA
ENDBRANCH  10  28
BRANCH   5  30
ATOM     30  O   UNL     1       4.770 -10.209  -1.380  0.00  0.00    -0.422 OA
BRANCH  30  31
ATOM     31  C   UNL     1       5.642 -11.207  -1.139  0.00  0.00    +0.344 C 
ATOM     32  O   UNL     1       5.721 -11.690  -0.028  0.00  0.00    -0.245 OA
BRANCH  31  33
ATOM     33  C   UNL     1       6.501 -11.715  -2.228  0.00  0.00    +0.060 A 
ATOM     34  C   UNL     1       6.416 -11.159  -3.506  0.00  0.00    +0.015 A 
ATOM     35  C   UNL     1       7.222 -11.637  -4.518  0.00  0.00    +0.001 A 
ATOM     36  C   UNL     1       8.112 -12.667  -4.270  0.00  0.00    +0.003 A 
ATOM     37  C   UNL     1       8.201 -13.223  -3.006  0.00  0.00    -0.050 A 
ATOM     38  C   UNL     1       7.406 -12.750  -1.983  0.00  0.00    +0.018 A 
ATOM     39  C   UNL     1       9.174 -14.344  -2.744  0.00  0.00    +0.044 C 
ENDBRANCH  31  33
ENDBRANCH  30  31
ENDBRANCH   5  30
TORSDOF 12
