REMARK  Name = ZINC12528086
REMARK  5 active torsions:
REMARK  status: ('A' for Active; 'I' for Inactive)
REMARK    1  A    between atoms: C_4  and  S_7
REMARK    2  A    between atoms: S_7  and  N_10
REMARK    3  A    between atoms: C_16  and  C_18
REMARK    4  A    between atoms: C_18  and  N_19
REMARK    5  A    between atoms: N_19  and  C_20
REMARK                            x       y       z     vdW  Elec       q    Type
REMARK                         _______ _______ _______ _____ _____    ______ ____
ROOT
ATOM      1  N   UNL     1      -2.768  11.296   3.698  0.00  0.00    -0.174 NA
ATOM      2  C   UNL     1      -2.416  10.353   4.769  0.00  0.00    +0.128 C 
ATOM      3  C   UNL     1      -1.131   9.617   4.371  0.00  0.00    +0.125 C 
ATOM      4  N   UNL     1      -1.287   9.107   3.001  0.00  0.00    -0.298 N 
ATOM      5  C   UNL     1      -1.634  10.050   1.929  0.00  0.00    +0.125 C 
ATOM      6  C   UNL     1      -2.925  10.786   2.329  0.00  0.00    +0.128 C 
ATOM      7  C   UNL     1      -1.110   7.798   2.732  0.00  0.00    +0.231 C 
ATOM      8  O   UNL     1      -0.819   7.029   3.624  0.00  0.00    -0.274 OA
ENDROOT
BRANCH   1   9
ATOM      9  S   UNL     1      -2.986  12.904   4.028  0.00  0.00    +0.061 S 
ATOM     10  O   UNL     1      -3.824  13.419   3.003  0.00  0.00    -0.153 OA
ATOM     11  O   UNL     1      -3.324  12.993   5.406  0.00  0.00    -0.153 OA
BRANCH   9  15
ATOM     12  C   UNL     1       1.036  14.925   3.549  0.00  0.00    +0.000 A 
ATOM     13  C   UNL     1       0.182  14.821   2.467  0.00  0.00    +0.002 A 
ATOM     14  C   UNL     1      -1.046  14.204   2.614  0.00  0.00    +0.028 A 
ATOM     15  C   UNL     1      -1.420  13.690   3.842  0.00  0.00    +0.105 A 
ATOM     16  C   UNL     1      -0.568  13.799   4.925  0.00  0.00    +0.028 A 
ATOM     17  C   UNL     1       0.663  14.412   4.777  0.00  0.00    +0.002 A 
ENDBRANCH   9  15
ENDBRANCH   1   9
BRANCH   7  18
ATOM     18  C   UNL     1      -1.274   7.289   1.323  0.00  0.00    +0.180 C 
BRANCH  18  19
ATOM     19  N   UNL     1      -1.031   5.845   1.294  0.00  0.00    -0.398 NA
ATOM     20  H   UNL     1      -0.008   5.638   1.642  0.00  0.00    +0.124 HD
ATOM     21  H   UNL     1      -1.752   5.338   1.953  0.00  0.00    +0.124 HD
BRANCH  19  22
ATOM     22  C   UNL     1      -1.126   5.145   0.089  0.00  0.00    +0.015 A 
ATOM     23  C   UNL     1      -1.450   5.821  -1.077  0.00  0.00    +0.022 A 
ATOM     24  C   UNL     1      -1.543   5.127  -2.267  0.00  0.00    +0.002 A 
ATOM     25  C   UNL     1      -1.315   3.765  -2.288  0.00  0.00    +0.004 A 
ATOM     26  C   UNL     1      -0.991   3.082  -1.122  0.00  0.00    -0.042 A 
ATOM     27  C   UNL     1      -0.893   3.769   0.066  0.00  0.00    -0.025 A 
ATOM     28  C   UNL     1      -0.538   3.096   1.366  0.00  0.00    +0.037 C 
ATOM     29  C   UNL     1      -0.741   1.585   1.262  0.00  0.00    +0.005 C 
ATOM     30  C   UNL     1      -0.013   1.086   0.008  0.00  0.00    +0.005 C 
ATOM     31  C   UNL     1      -0.762   1.597  -1.221  0.00  0.00    +0.035 C 
ENDBRANCH  19  22
ENDBRANCH  18  19
ENDBRANCH   7  18
TORSDOF 5
