REMARK  Name = ZINC67084191
REMARK  10 active torsions:
REMARK  status: ('A' for Active; 'I' for Inactive)
REMARK    1  A    between atoms: C_1  and  C_2
REMARK    2  A    between atoms: C_5  and  C_7
REMARK    3  A    between atoms: C_7  and  C_9
REMARK    4  A    between atoms: C_7  and  N_10
REMARK    5  A    between atoms: N_10  and  C_11
REMARK    6  A    between atoms: N_14  and  C_15
REMARK    7  A    between atoms: C_15  and  C_16
REMARK    8  A    between atoms: C_16  and  C_17
REMARK    9  A    between atoms: C_17  and  C_18
REMARK   10  A    between atoms: C_20  and  C_23
REMARK                            x       y       z     vdW  Elec       q    Type
REMARK                         _______ _______ _______ _____ _____    ______ ____
ROOT
ATOM      1  N   UNL     1       2.210  -4.147   0.855  0.00  0.00    -0.281 N 
ATOM      2  C   UNL     1       3.389  -3.318   0.593  0.00  0.00    +0.134 C 
ATOM      3  C   UNL     1       2.198  -4.989   1.908  0.00  0.00    +0.302 C 
ATOM      4  O   UNL     1       1.220  -5.677   2.126  0.00  0.00    -0.253 OA
ATOM      5  N   UNL     1       3.272  -5.067   2.719  0.00  0.00    -0.299 N 
ATOM      6  H   UNL     1       4.052  -4.519   2.545  0.00  0.00    +0.150 HD
ENDROOT
BRANCH   1   7
ATOM      7  C   UNL     1       1.043  -4.062  -0.027  0.00  0.00    +0.111 C 
ATOM      8  C   UNL     1       1.452  -4.441  -1.452  0.00  0.00    +0.034 C 
BRANCH   7  13
ATOM      9  C   UNL     1      -0.018   1.503   0.010  0.00  0.00    +0.051 C 
ATOM     10  C   UNL     1       0.002  -0.004   0.002  0.00  0.00    -0.013 A 
ATOM     11  C   UNL     1      -1.039  -0.872   0.002  0.00  0.00    +0.011 A 
ATOM     12  C   UNL     1      -0.780  -2.230  -0.007  0.00  0.00    +0.013 A 
ATOM     13  C   UNL     1       0.507  -2.653  -0.016  0.00  0.00    +0.010 A 
ATOM     14  S   UNL     1       1.404  -1.109  -0.018  0.00  0.00    -0.097 S 
ENDBRANCH   7  13
ENDBRANCH   1   7
BRANCH   5  15
ATOM     15  C   UNL     1       3.259  -5.982   3.864  0.00  0.00    +0.106 C 
BRANCH  15  16
ATOM     16  C   UNL     1       4.589  -5.878   4.614  0.00  0.00    +0.028 C 
BRANCH  16  17
ATOM     17  C   UNL     1       4.576  -6.833   5.809  0.00  0.00    +0.100 C 
BRANCH  17  18
ATOM     18  C   UNL     1       5.885  -6.730   6.548  0.00  0.00    +0.227 A 
ATOM     19  N   UNL     1       6.144  -5.917   7.534  0.00  0.00    -0.196 NA
ATOM     20  C   UNL     1       7.402  -6.091   7.955  0.00  0.00    +0.169 A 
ATOM     21  N   UNL     1       7.961  -7.024   7.238  0.00  0.00    -0.062 NA
ATOM     22  O   UNL     1       6.980  -7.463   6.310  0.00  0.00    -0.338 OA
ATOM     23  C   UNL     1       8.064  -5.332   9.076  0.00  0.00    +0.091 C 
ENDBRANCH  17  18
ENDBRANCH  16  17
ENDBRANCH  15  16
ENDBRANCH   5  15
TORSDOF 6
