REMARK  Name = ZINC13584358
REMARK  8 active torsions:
REMARK  status: ('A' for Active; 'I' for Inactive)
REMARK    1  A    between atoms: C_1  and  C_2
REMARK    2  A    between atoms: C_5  and  N_8
REMARK    3  A    between atoms: C_18  and  S_19
REMARK    4  A    between atoms: S_19  and  C_20
REMARK    5  A    between atoms: C_20  and  C_21
REMARK    6  A    between atoms: N_23  and  N_24
REMARK    7  A    between atoms: C_25  and  C_26
REMARK    8  A    between atoms: C_35  and  O_36
REMARK                            x       y       z     vdW  Elec       q    Type
REMARK                         _______ _______ _______ _____ _____    ______ ____
ROOT
ATOM      1  S   UNL     1       0.881  11.864   0.771  0.00  0.00    -0.078 S 
ENDROOT
BRANCH   1  12
ATOM      2  N   UNL     1       2.720  13.836   0.781  0.00  0.00    -0.255 N 
ATOM      3  C   UNL     1       3.964  14.361   0.690  0.00  0.00    +0.267 A 
ATOM      4  O   UNL     1       4.155  15.557   0.811  0.00  0.00    -0.267 OA
ATOM      5  C   UNL     1       5.076  13.435   0.438  0.00  0.00    +0.065 A 
ATOM      6  C   UNL     1       6.393  13.878   0.329  0.00  0.00    +0.015 A 
ATOM      7  C   UNL     1       7.391  12.972   0.094  0.00  0.00    +0.001 A 
ATOM      8  C   UNL     1       7.106  11.619  -0.035  0.00  0.00    +0.002 A 
ATOM      9  C   UNL     1       5.824  11.158   0.069  0.00  0.00    +0.028 A 
ATOM     10  C   UNL     1       4.782  12.058   0.308  0.00  0.00    +0.079 A 
ATOM     11  N   UNL     1       3.498  11.644   0.422  0.00  0.00    -0.223 NA
ATOM     12  C   UNL     1       2.523  12.490   0.642  0.00  0.00    +0.177 A 
BRANCH   2  17
ATOM     13  C   UNL     1      -1.711  17.248   1.746  0.00  0.00    +0.044 C 
ATOM     14  C   UNL     1      -0.534  16.342   1.490  0.00  0.00    -0.050 A 
ATOM     15  C   UNL     1       0.420  16.155   2.473  0.00  0.00    +0.005 A 
ATOM     16  C   UNL     1       1.500  15.325   2.241  0.00  0.00    +0.026 A 
ATOM     17  C   UNL     1       1.626  14.678   1.019  0.00  0.00    +0.052 A 
ATOM     18  C   UNL     1       0.670  14.872   0.032  0.00  0.00    +0.026 A 
ATOM     19  C   UNL     1      -0.411  15.699   0.272  0.00  0.00    +0.005 A 
ENDBRANCH   2  17
ENDBRANCH   1  12
BRANCH   1  20
ATOM     20  C   UNL     1       1.196  10.100   0.517  0.00  0.00    +0.174 C 
BRANCH  20  21
ATOM     21  C   UNL     1      -0.105   9.342   0.587  0.00  0.00    +0.242 C 
ATOM     22  O   UNL     1      -1.143   9.936   0.789  0.00  0.00    -0.273 OA
ATOM     23  N   UNL     1      -0.114   8.004   0.426  0.00  0.00    -0.206 N 
ATOM     24  H   UNL     1       0.716   7.529   0.264  0.00  0.00    +0.177 HD
BRANCH  23  25
ATOM     25  N   UNL     1      -1.323   7.299   0.491  0.00  0.00    -0.188 NA
ATOM     26  C   UNL     1      -1.322   6.000   0.445  0.00  0.00    +0.142 C 
BRANCH  26  27
ATOM     27  C   UNL     1      -0.049   5.266   0.471  0.00  0.00    +0.044 A 
ATOM     28  C   UNL     1       0.290   4.322  -0.593  0.00  0.00    -0.006 A 
ATOM     29  C   UNL     1      -0.578   4.088  -1.666  0.00  0.00    +0.009 A 
ATOM     30  C   UNL     1      -0.221   3.204  -2.640  0.00  0.00    +0.001 A 
ATOM     31  C   UNL     1       0.991   2.522  -2.578  0.00  0.00    +0.001 A 
ATOM     32  C   UNL     1       1.859   2.726  -1.549  0.00  0.00    +0.008 A 
ATOM     33  C   UNL     1       1.526   3.635  -0.529  0.00  0.00    -0.017 A 
ATOM     34  C   UNL     1       2.397   3.871   0.549  0.00  0.00    +0.012 A 
ATOM     35  C   UNL     1       2.065   4.752   1.530  0.00  0.00    +0.046 A 
ATOM     36  C   UNL     1       0.860   5.453   1.511  0.00  0.00    +0.126 A 
BRANCH  36  37
ATOM     37  O   UNL     1       0.570   6.323   2.512  0.00  0.00    -0.506 OA
ATOM     38  H   UNL     1       0.169   5.910   3.289  0.00  0.00    +0.292 HD
ENDBRANCH  36  37
ENDBRANCH  26  27
ENDBRANCH  23  25
ENDBRANCH  20  21
ENDBRANCH   1  20
TORSDOF 7
