REMARK  Name = ZINC03119859
REMARK  10 active torsions:
REMARK  status: ('A' for Active; 'I' for Inactive)
REMARK    1  A    between atoms: C_1  and  C_2
REMARK    2  A    between atoms: C_2  and  C_3
REMARK    3  A    between atoms: C_2  and  C_4
REMARK    4  A    between atoms: C_2  and  C_5
REMARK    5  A    between atoms: C_8  and  C_11
REMARK    6  A    between atoms: C_14  and  S_22
REMARK    7  A    between atoms: N_15  and  C_16
REMARK    8  A    between atoms: C_16  and  C_17
REMARK    9  A    between atoms: S_22  and  C_23
REMARK   10  A    between atoms: C_23  and  C_24
REMARK                            x       y       z     vdW  Elec       q    Type
REMARK                         _______ _______ _______ _____ _____    ______ ____
ROOT
ATOM      1  C   UNL     1       3.042   3.580  -2.100  0.00  0.00    +0.165 A 
ATOM      2  N   UNL     1       2.829   4.154  -3.261  0.00  0.00    -0.128 NA
ATOM      3  N   UNL     1       1.619   4.582  -3.324  0.00  0.00    -0.122 NA
ATOM      4  C   UNL     1       0.983   4.301  -2.209  0.00  0.00    +0.193 A 
ATOM      5  N   UNL     1       1.864   3.651  -1.393  0.00  0.00    -0.295 N 
ENDROOT
BRANCH   1   9
ATOM      6  C   UNL     1       6.677   1.825  -0.779  0.00  0.00    -0.042 A 
ATOM      7  C   UNL     1       6.683   2.695  -1.854  0.00  0.00    +0.005 A 
ATOM      8  C   UNL     1       5.506   3.269  -2.288  0.00  0.00    +0.012 A 
ATOM      9  C   UNL     1       4.307   2.969  -1.640  0.00  0.00    +0.019 A 
ATOM     10  C   UNL     1       4.308   2.095  -0.552  0.00  0.00    +0.012 A 
ATOM     11  C   UNL     1       5.492   1.524  -0.132  0.00  0.00    +0.005 A 
BRANCH   6  13
ATOM     12  C   UNL     1       8.942   2.303   0.109  0.00  0.00    +0.015 C 
ATOM     13  C   UNL     1       7.967   1.202  -0.310  0.00  0.00    -0.013 C 
ATOM     14  C   UNL     1       7.687   0.287   0.884  0.00  0.00    +0.015 C 
ATOM     15  C   UNL     1       8.580   0.383  -1.448  0.00  0.00    +0.015 C 
ENDBRANCH   6  13
ENDBRANCH   1   9
BRANCH   5  16
ATOM     16  C   UNL     1       1.609   3.142  -0.043  0.00  0.00    +0.200 C 
BRANCH  16  17
ATOM     17  C   UNL     1       0.954   1.788  -0.133  0.00  0.00    +0.125 A 
ATOM     18  C   UNL     1       1.591   0.614  -0.292  0.00  0.00    +0.046 A 
ATOM     19  C   UNL     1       0.598  -0.391  -0.324  0.00  0.00    +0.041 A 
ATOM     20  C   UNL     1      -0.588   0.229  -0.182  0.00  0.00    +0.195 A 
ATOM     21  O   UNL     1      -0.366   1.548  -0.067  0.00  0.00    -0.466 OA
ENDBRANCH  16  17
ENDBRANCH   5  16
BRANCH   4  22
ATOM     22  S   UNL     1      -0.695   4.692  -1.836  0.00  0.00    -0.082 S 
BRANCH  22  23
ATOM     23  C   UNL     1      -1.172   5.524  -3.371  0.00  0.00    +0.104 C 
BRANCH  23  24
ATOM     24  C   UNL     1      -2.612   5.959  -3.279  0.00  0.00    -0.023 C 
ATOM     25  C   UNL     1      -2.912   7.234  -3.285  0.00  0.00    +0.005 C 
ENDBRANCH  23  24
ENDBRANCH  22  23
ENDBRANCH   4  22
TORSDOF 7
