REMARK  Name = ZINC08870591
REMARK  18 active torsions:
REMARK  status: ('A' for Active; 'I' for Inactive)
REMARK    1  A    between atoms: C_1  and  C_2
REMARK    2  A    between atoms: C_2  and  C_3
REMARK    3  A    between atoms: C_3  and  C_4
REMARK    4  A    between atoms: C_4  and  O_5
REMARK    5  A    between atoms: O_5  and  C_6
REMARK    6  A    between atoms: C_6  and  C_8
REMARK    7  A    between atoms: C_9  and  C_32
REMARK    8  A    between atoms: N_10  and  S_26
REMARK    9  A    between atoms: C_14  and  N_19
REMARK   10  A    between atoms: C_15  and  O_17
REMARK   11  A    between atoms: O_17  and  C_18
REMARK   12  A    between atoms: N_19  and  S_20
REMARK   13  A    between atoms: S_20  and  N_23
REMARK   14  A    between atoms: N_23  and  C_24
REMARK   15  A    between atoms: N_23  and  C_25
REMARK   16  A    between atoms: S_26  and  N_29
REMARK   17  A    between atoms: N_29  and  C_30
REMARK   18  A    between atoms: N_29  and  C_31
REMARK                            x       y       z     vdW  Elec       q    Type
REMARK                         _______ _______ _______ _____ _____    ______ ____
ROOT
ATOM      1  C   UNL     1       0.594  -1.867  -0.571  0.00  0.00    +0.089 A 
ATOM      2  C   UNL     1      -0.763  -1.838  -0.713  0.00  0.00    +0.056 A 
ATOM      3  N   UNL     1      -1.199  -0.556  -0.686  0.00  0.00    -0.205 N 
ATOM      4  C   UNL     1      -0.136   0.311  -0.523  0.00  0.00    +0.078 A 
ATOM      5  C   UNL     1       1.031  -0.464  -0.444  0.00  0.00    +0.018 A 
ATOM      6  C   UNL     1       2.271   0.149  -0.276  0.00  0.00    +0.039 A 
ATOM      7  C   UNL     1       2.348   1.526  -0.189  0.00  0.00    +0.091 A 
ATOM      8  C   UNL     1       1.186   2.299  -0.268  0.00  0.00    +0.144 A 
ATOM      9  C   UNL     1      -0.045   1.697  -0.433  0.00  0.00    +0.075 A 
ATOM     10  C   UNL     1      -1.645  -3.049  -0.878  0.00  0.00    +0.066 C 
ENDROOT
BRANCH   3  11
ATOM     11  S   UNL     1      -2.783  -0.092  -0.827  0.00  0.00    +0.124 S 
ATOM     12  O   UNL     1      -3.569  -1.204  -0.420  0.00  0.00    -0.136 OA
ATOM     13  O   UNL     1      -2.889   1.183  -0.210  0.00  0.00    -0.136 OA
BRANCH  11  14
ATOM     14  N   UNL     1      -3.084   0.135  -2.439  0.00  0.00    -0.168 NA
ATOM     15  C   UNL     1      -3.563  -0.980  -3.260  0.00  0.00    +0.133 C 
ATOM     16  C   UNL     1      -2.871   1.452  -3.046  0.00  0.00    +0.133 C 
ENDBRANCH  11  14
ENDBRANCH   3  11
BRANCH   1  17
ATOM     17  C   UNL     1       1.448  -3.060  -0.548  0.00  0.00    +0.342 C 
ATOM     18  O   UNL     1       1.691  -3.614   0.507  0.00  0.00    -0.245 OA
BRANCH  17  19
ATOM     19  O   UNL     1       1.965  -3.541  -1.697  0.00  0.00    -0.461 OA
BRANCH  19  20
ATOM     20  C   UNL     1       2.802  -4.723  -1.599  0.00  0.00    +0.232 C 
BRANCH  20  21
ATOM     21  C   UNL     1       3.292  -5.118  -2.994  0.00  0.00    +0.041 C 
BRANCH  21  23
ATOM     22  C   UNL     1       4.665  -6.758  -4.285  0.00  0.00    +0.004 C 
ATOM     23  C   UNL     1       4.174  -6.364  -2.890  0.00  0.00    -0.000 C 
ENDBRANCH  21  23
ENDBRANCH  20  21
ENDBRANCH  19  20
ENDBRANCH  17  19
ENDBRANCH   1  17
BRANCH   8  24
ATOM     24  O   UNL     1       1.269   3.654  -0.181  0.00  0.00    -0.493 OA
ATOM     25  C   UNL     1       0.045   4.386  -0.268  0.00  0.00    +0.277 C 
ENDBRANCH   8  24
BRANCH   7  26
ATOM     26  N   UNL     1       3.592   2.149  -0.021  0.00  0.00    -0.203 N 
ATOM     27  H   UNL     1       3.665   2.947   0.525  0.00  0.00    +0.175 HD
BRANCH  26  28
ATOM     28  S   UNL     1       4.937   1.521  -0.755  0.00  0.00    +0.111 S 
ATOM     29  O   UNL     1       5.995   2.439  -0.517  0.00  0.00    -0.138 OA
ATOM     30  O   UNL     1       5.012   0.156  -0.367  0.00  0.00    -0.138 OA
BRANCH  28  31
ATOM     31  N   UNL     1       4.656   1.535  -2.387  0.00  0.00    -0.170 NA
ATOM     32  C   UNL     1       5.033   2.704  -3.185  0.00  0.00    +0.132 C 
ATOM     33  C   UNL     1       4.031   0.378  -3.032  0.00  0.00    +0.132 C 
ENDBRANCH  28  31
ENDBRANCH  26  28
ENDBRANCH   7  26
TORSDOF 11
