REMARK  Name = ZINC06443998
REMARK  16 active torsions:
REMARK  status: ('A' for Active; 'I' for Inactive)
REMARK    1  A    between atoms: C_1  and  C_2
REMARK    2  A    between atoms: C_7  and  N_8
REMARK    3  A    between atoms: N_8  and  C_9
REMARK    4  A    between atoms: C_9  and  C_11
REMARK    5  A    between atoms: C_9  and  C_20
REMARK    6  A    between atoms: C_14  and  N_17
REMARK    7  A    between atoms: N_17  and  C_18
REMARK    8  A    between atoms: N_17  and  C_19
REMARK    9  A    between atoms: N_22  and  C_23
REMARK   10  A    between atoms: C_23  and  C_24
REMARK   11  A    between atoms: C_24  and  C_25
REMARK   12  A    between atoms: C_25  and  C_26
REMARK   13  A    between atoms: C_25  and  C_27
REMARK   14  A    between atoms: C_28  and  C_30
REMARK   15  A    between atoms: C_31  and  N_38
REMARK   16  A    between atoms: C_32  and  C_35
REMARK                            x       y       z     vdW  Elec       q    Type
REMARK                         _______ _______ _______ _____ _____    ______ ____
ROOT
ATOM      1  N   UNL     1      -3.599   1.102  -0.927  0.00  0.00    -0.251 N 
ATOM      2  C   UNL     1      -3.552   1.786  -2.087  0.00  0.00    +0.262 C 
ATOM      3  O   UNL     1      -2.482   1.995  -2.628  0.00  0.00    -0.269 OA
ENDROOT
BRANCH   1  10
ATOM      4  C   UNL     1      -4.940  -1.340  -1.505  0.00  0.00    +0.045 C 
ATOM      5  C   UNL     1      -5.517  -0.318  -0.560  0.00  0.00    -0.029 A 
ATOM      6  C   UNL     1      -6.729  -0.554   0.058  0.00  0.00    +0.005 A 
ATOM      7  C   UNL     1      -7.262   0.385   0.921  0.00  0.00    +0.000 A 
ATOM      8  C   UNL     1      -6.581   1.563   1.173  0.00  0.00    +0.002 A 
ATOM      9  C   UNL     1      -5.366   1.803   0.561  0.00  0.00    +0.024 A 
ATOM     10  C   UNL     1      -4.828   0.861  -0.306  0.00  0.00    +0.041 A 
ENDBRANCH   1  10
BRANCH   2  11
ATOM     11  C   UNL     1      -4.789   2.276  -2.698  0.00  0.00    +0.116 A 
ATOM     12  C   UNL     1      -4.967   2.997  -3.881  0.00  0.00    +0.076 A 
ATOM     13  C   UNL     1      -6.308   3.285  -4.134  0.00  0.00    +0.155 A 
ATOM     14  N   UNL     1      -7.225   2.876  -3.286  0.00  0.00    -0.203 NA
ATOM     15  S   UNL     1      -6.470   2.108  -2.135  0.00  0.00    +0.019 S 
BRANCH  13  16
ATOM     16  C   UNL     1      -6.693   4.041  -5.340  0.00  0.00    +0.262 C 
ATOM     17  O   UNL     1      -5.839   4.417  -6.120  0.00  0.00    -0.269 OA
ATOM     18  N   UNL     1      -7.990   4.316  -5.578  0.00  0.00    -0.324 N 
ATOM     19  H   UNL     1      -8.671   4.016  -4.955  0.00  0.00    +0.145 HD
ATOM     20  H   UNL     1      -8.244   4.813  -6.371  0.00  0.00    +0.145 HD
ENDBRANCH  13  16
BRANCH  12  21
ATOM     21  N   UNL     1      -3.924   3.383  -4.713  0.00  0.00    -0.355 N 
ATOM     22  H   UNL     1      -3.010   3.154  -4.484  0.00  0.00    +0.142 HD
ATOM     23  H   UNL     1      -4.110   3.883  -5.523  0.00  0.00    +0.142 HD
ENDBRANCH  12  21
ENDBRANCH   2  11
BRANCH   1  24
ATOM     24  C   UNL     1      -2.361   0.611  -0.316  0.00  0.00    +0.197 C 
BRANCH  24  25
ATOM     25  C   UNL     1      -2.694  -0.202   0.908  0.00  0.00    -0.018 A 
ATOM     26  C   UNL     1      -3.354   0.388   1.970  0.00  0.00    +0.008 A 
ATOM     27  C   UNL     1      -3.666  -0.355   3.091  0.00  0.00    +0.023 A 
ATOM     28  C   UNL     1      -3.304  -1.695   3.157  0.00  0.00    +0.029 A 
ATOM     29  C   UNL     1      -2.635  -2.284   2.091  0.00  0.00    +0.023 A 
ATOM     30  C   UNL     1      -2.332  -1.536   0.970  0.00  0.00    +0.008 A 
BRANCH  28  31
ATOM     31  N   UNL     1      -3.612  -2.449   4.292  0.00  0.00    -0.336 N 
ATOM     32  C   UNL     1      -3.124  -3.825   4.412  0.00  0.00    +0.129 C 
ATOM     33  C   UNL     1      -4.423  -1.863   5.362  0.00  0.00    +0.129 C 
ENDBRANCH  28  31
ENDBRANCH  24  25
BRANCH  24  34
ATOM     34  C   UNL     1      -1.496   1.781   0.077  0.00  0.00    +0.238 C 
ATOM     35  O   UNL     1      -1.877   2.913  -0.132  0.00  0.00    -0.273 OA
ATOM     36  N   UNL     1      -0.301   1.569   0.662  0.00  0.00    -0.313 N 
ATOM     37  H   UNL     1       0.003   0.663   0.830  0.00  0.00    +0.149 HD
BRANCH  36  38
ATOM     38  C   UNL     1       0.542   2.706   1.039  0.00  0.00    +0.104 C 
BRANCH  38  39
ATOM     39  C   UNL     1       1.837   2.193   1.672  0.00  0.00    +0.022 C 
BRANCH  39  40
ATOM     40  C   UNL     1       2.718   3.381   2.066  0.00  0.00    -0.016 C 
ATOM     41  C   UNL     1       2.023   4.189   3.164  0.00  0.00    +0.007 C 
ATOM     42  C   UNL     1       4.063   2.869   2.584  0.00  0.00    +0.007 C 
ENDBRANCH  39  40
ENDBRANCH  38  39
ENDBRANCH  36  38
ENDBRANCH  24  34
ENDBRANCH   1  24
TORSDOF 11
