REMARK  Name = ZINC08634647
REMARK  10 active torsions:
REMARK  status: ('A' for Active; 'I' for Inactive)
REMARK    1  A    between atoms: C_1  and  C_2
REMARK    2  A    between atoms: C_2  and  O_3
REMARK    3  A    between atoms: O_3  and  C_4
REMARK    4  A    between atoms: C_4  and  C_6
REMARK    5  A    between atoms: C_7  and  C_29
REMARK    6  A    between atoms: C_10  and  N_11
REMARK    7  A    between atoms: C_12  and  C_14
REMARK    8  A    between atoms: C_14  and  N_15
REMARK    9  A    between atoms: C_18  and  C_22
REMARK   10  A    between atoms: C_18  and  C_23
REMARK                            x       y       z     vdW  Elec       q    Type
REMARK                         _______ _______ _______ _____ _____    ______ ____
ROOT
ATOM      1  N   UNL     1       0.043  -1.840   1.659  0.00  0.00    -0.278 N 
ATOM      2  C   UNL     1       0.022  -0.514   1.420  0.00  0.00    +0.236 C 
ATOM      3  O   UNL     1       0.021   0.269   2.346  0.00  0.00    -0.274 OA
ATOM      4  H   UNL     1       0.044  -2.466   0.918  0.00  0.00    +0.155 HD
ENDROOT
BRANCH   1   9
ATOM      5  C   UNL     1       0.078  -3.626   3.402  0.00  0.00    +0.098 A 
ATOM      6  C   UNL     1       0.100  -3.835   4.839  0.00  0.00    +0.040 A 
ATOM      7  C   UNL     1       0.092  -2.720   5.617  0.00  0.00    +0.059 A 
ATOM      8  S   UNL     1       0.062  -1.392   4.431  0.00  0.00    -0.080 S 
ATOM      9  C   UNL     1       0.061  -2.309   2.963  0.00  0.00    +0.087 A 
BRANCH   6  10
ATOM     10  C   UNL     1       0.125  -5.190   5.425  0.00  0.00    +0.136 A 
ATOM     11  C   UNL     1       0.988  -5.631   6.380  0.00  0.00    +0.050 A 
ATOM     12  C   UNL     1       0.651  -6.975   6.642  0.00  0.00    +0.042 A 
ATOM     13  C   UNL     1      -0.383  -7.287   5.838  0.00  0.00    +0.196 A 
ATOM     14  O   UNL     1      -0.698  -6.206   5.103  0.00  0.00    -0.463 OA
ENDBRANCH   6  10
BRANCH   5  15
ATOM     15  C   UNL     1       0.077  -4.748   2.464  0.00  0.00    +0.342 C 
ATOM     16  O   UNL     1       1.130  -5.206   2.062  0.00  0.00    -0.245 OA
BRANCH  15  17
ATOM     17  O   UNL     1      -1.092  -5.275   2.045  0.00  0.00    -0.461 OA
BRANCH  17  19
ATOM     18  C   UNL     1      -2.433  -6.829   0.769  0.00  0.00    +0.048 C 
ATOM     19  C   UNL     1      -1.018  -6.369   1.128  0.00  0.00    +0.229 C 
ENDBRANCH  17  19
ENDBRANCH  15  17
ENDBRANCH   5  15
ENDBRANCH   1   9
BRANCH   2  20
ATOM     20  C   UNL     1       0.002  -0.004   0.002  0.00  0.00    +0.214 C 
BRANCH  20  21
ATOM     21  N   UNL     1      -0.018   1.461   0.010  0.00  0.00    -0.215 N 
ATOM     22  C   UNL     1       1.087   2.233   0.004  0.00  0.00    +0.251 C 
ATOM     23  O   UNL     1       2.240   1.861  -0.008  0.00  0.00    -0.272 OA
ATOM     24  C   UNL     1       0.587   3.664   0.015  0.00  0.00    +0.135 C 
ATOM     25  N   UNL     1      -0.879   3.518   0.028  0.00  0.00    -0.281 N 
ATOM     26  C   UNL     1      -1.135   2.197   0.019  0.00  0.00    +0.310 C 
ATOM     27  O   UNL     1      -2.255   1.726   0.022  0.00  0.00    -0.252 OA
ATOM     28  C   UNL     1       1.069   4.393   1.271  0.00  0.00    +0.047 C 
ATOM     29  H   UNL     1      -1.533   4.235   0.038  0.00  0.00    +0.152 HD
BRANCH  24  30
ATOM     30  C   UNL     1       1.036   4.393  -1.225  0.00  0.00    -0.016 A 
ATOM     31  C   UNL     1       2.226   4.046  -1.837  0.00  0.00    +0.006 A 
ATOM     32  C   UNL     1       2.636   4.711  -2.978  0.00  0.00    +0.000 A 
ATOM     33  C   UNL     1       1.861   5.730  -3.500  0.00  0.00    +0.000 A 
ATOM     34  C   UNL     1       0.674   6.081  -2.884  0.00  0.00    +0.000 A 
ATOM     35  C   UNL     1       0.261   5.412  -1.747  0.00  0.00    +0.006 A 
ENDBRANCH  24  30
ENDBRANCH  20  21
ENDBRANCH   2  20
TORSDOF 8
