REMARK  Name = ZINC39674474
REMARK  11 active torsions:
REMARK  status: ('A' for Active; 'I' for Inactive)
REMARK    1  A    between atoms: C_1  and  C_2
REMARK    2  A    between atoms: C_4  and  C_9
REMARK    3  A    between atoms: C_5  and  C_8
REMARK    4  A    between atoms: C_9  and  C_11
REMARK    5  A    between atoms: C_9  and  N_12
REMARK    6  A    between atoms: C_13  and  C_15
REMARK    7  A    between atoms: C_26  and  C_28
REMARK    8  A    between atoms: C_30  and  O_36
REMARK    9  A    between atoms: C_33  and  O_34
REMARK   10  A    between atoms: O_34  and  C_35
REMARK   11  A    between atoms: O_36  and  C_37
REMARK                            x       y       z     vdW  Elec       q    Type
REMARK                         _______ _______ _______ _____ _____    ______ ____
ROOT
ATOM      1  C   UNL     1      -3.946   3.010  -1.769  0.00  0.00    +0.100 C 
ATOM      2  C   UNL     1      -3.665   3.863  -0.512  0.00  0.00    +0.121 C 
ATOM      3  N   UNL     1      -4.744   4.879  -0.499  0.00  0.00    -0.296 N 
ATOM      4  C   UNL     1      -5.952   4.139  -0.933  0.00  0.00    +0.115 C 
ATOM      5  C   UNL     1      -5.449   3.193  -2.042  0.00  0.00    -0.004 C 
ATOM      6  C   UNL     1      -6.169   1.851  -1.957  0.00  0.00    -0.010 C 
ATOM      7  C   UNL     1      -7.650   2.049  -2.289  0.00  0.00    -0.082 C 
ATOM      8  N   UNL     1      -7.780   2.612  -3.639  0.00  0.00    +0.379 N 
ATOM      9  C   UNL     1      -7.165   3.944  -3.687  0.00  0.00    -0.082 C 
ATOM     10  C   UNL     1      -5.663   3.826  -3.414  0.00  0.00    -0.010 C 
ATOM     11  C   UNL     1      -4.647   6.182  -0.168  0.00  0.00    +0.250 C 
ATOM     12  O   UNL     1      -3.560   6.668   0.077  0.00  0.00    -0.270 OA
ATOM     13  H   UNL     1      -7.318   2.006  -4.301  0.00  0.00    -0.086 HD
ATOM     14  H   UNL     1      -8.757   2.685  -3.879  0.00  0.00    -0.086 HD
ENDROOT
BRANCH  11  15
ATOM     15  C   UNL     1      -5.861   7.018  -0.103  0.00  0.00    +0.082 A 
ATOM     16  C   UNL     1      -7.068   6.471   0.341  0.00  0.00    +0.062 A 
ATOM     17  C   UNL     1      -8.201   7.261   0.399  0.00  0.00    +0.121 A 
ATOM     18  C   UNL     1      -8.143   8.596   0.018  0.00  0.00    +0.049 A 
ATOM     19  C   UNL     1      -6.955   9.144  -0.422  0.00  0.00    +0.050 A 
ATOM     20  C   UNL     1      -5.808   8.366  -0.481  0.00  0.00    +0.132 A 
BRANCH  20  21
ATOM     21  O   UNL     1      -4.639   8.908  -0.908  0.00  0.00    -0.494 OA
ATOM     22  C   UNL     1      -4.660  10.288  -1.277  0.00  0.00    +0.277 C 
ENDBRANCH  20  21
BRANCH  17  23
ATOM     23  O   UNL     1      -9.376   6.730   0.831  0.00  0.00    -0.495 OA
ATOM     24  C   UNL     1     -10.508   7.601   0.867  0.00  0.00    +0.277 C 
ENDBRANCH  17  23
ENDBRANCH  11  15
BRANCH   1  26
ATOM     25  N   UNL     1      -3.396   0.721  -2.528  0.00  0.00    -0.309 N 
ATOM     26  C   UNL     1      -3.635   1.560  -1.500  0.00  0.00    +0.219 C 
ATOM     27  O   UNL     1      -3.598   1.149  -0.360  0.00  0.00    -0.275 OA
ATOM     28  H   UNL     1      -3.425   1.050  -3.440  0.00  0.00    +0.149 HD
BRANCH  25  29
ATOM     29  C   UNL     1      -3.093  -0.688  -2.267  0.00  0.00    +0.100 C 
ATOM     30  C   UNL     1      -4.394  -1.493  -2.239  0.00  0.00    +0.033 C 
BRANCH  29  33
ATOM     31  C   UNL     1      -2.645   0.152  -5.407  0.00  0.00    +0.039 C 
ATOM     32  C   UNL     1      -2.465  -1.262  -4.850  0.00  0.00    +0.154 C 
ATOM     33  C   UNL     1      -2.197  -1.220  -3.356  0.00  0.00    -0.001 C 
ATOM     34  C   UNL     1      -0.984  -1.762  -3.231  0.00  0.00    +0.063 C 
ATOM     35  N   UNL     1      -0.492  -2.120  -4.438  0.00  0.00    -0.159 NA
ATOM     36  N   UNL     1      -1.244  -1.883  -5.391  0.00  0.00    -0.180 NA
ATOM     37  C   UNL     1      -0.261  -1.950  -1.922  0.00  0.00    +0.067 C 
ENDBRANCH  29  33
ENDBRANCH  25  29
ENDBRANCH   1  26
TORSDOF 6
