REMARK  Name = ZINC36128882
REMARK  6 active torsions:
REMARK  status: ('A' for Active; 'I' for Inactive)
REMARK    1  A    between atoms: C_1  and  C_2
REMARK    2  A    between atoms: C_2  and  C_3
REMARK    3  A    between atoms: C_7  and  C_22
REMARK    4  A    between atoms: N_10  and  S_11
REMARK    5  A    between atoms: S_11  and  C_14
REMARK    6  A    between atoms: C_19  and  N_20
REMARK                            x       y       z     vdW  Elec       q    Type
REMARK                         _______ _______ _______ _____ _____    ______ ____
ROOT
ATOM      1  S   UNL     1       0.503   1.018  -3.499  0.00  0.00    +0.063 S 
ATOM      2  O   UNL     1      -0.556   1.575  -4.265  0.00  0.00    -0.153 OA
ATOM      3  O   UNL     1       1.332   1.809  -2.658  0.00  0.00    -0.153 OA
ENDROOT
BRANCH   1   9
ATOM      4  C   UNL     1       0.538  -0.656  -1.352  0.00  0.00    +0.105 C 
ATOM      5  C   UNL     1       0.548  -2.188  -1.412  0.00  0.00    +0.180 C 
ATOM      6  O   UNL     1      -0.788  -2.660  -1.602  0.00  0.00    -0.374 OA
ATOM      7  C   UNL     1      -1.388  -2.241  -2.830  0.00  0.00    +0.131 C 
ATOM      8  C   UNL     1      -1.497  -0.712  -2.843  0.00  0.00    +0.141 C 
ATOM      9  N   UNL     1      -0.171  -0.149  -2.538  0.00  0.00    -0.169 NA
ATOM     10  C   UNL     1      -2.784  -2.855  -2.953  0.00  0.00    +0.039 C 
BRANCH   4  12
ATOM     11  C   UNL     1      -0.092   1.328   0.028  0.00  0.00    +0.005 C 
ATOM     12  C   UNL     1      -0.183  -0.195  -0.084  0.00  0.00    +0.019 C 
ENDBRANCH   4  12
ENDBRANCH   1   9
BRANCH   1  13
ATOM     13  C   UNL     1       1.573   0.203  -4.637  0.00  0.00    +0.126 A 
ATOM     14  C   UNL     1       1.493  -1.167  -4.800  0.00  0.00    +0.033 A 
ATOM     15  C   UNL     1       2.332  -1.808  -5.692  0.00  0.00    +0.040 A 
ATOM     16  C   UNL     1       3.254  -1.081  -6.426  0.00  0.00    +0.125 A 
ATOM     17  C   UNL     1       3.338   0.291  -6.267  0.00  0.00    +0.063 A 
ATOM     18  C   UNL     1       2.493   0.937  -5.375  0.00  0.00    +0.054 A 
ATOM     19  F   UNL     1       4.072  -1.711  -7.297  0.00  0.00    -0.205 F 
BRANCH  18  20
ATOM     20  N   UNL     1       2.571   2.323  -5.215  0.00  0.00    -0.356 N 
ATOM     21  H   UNL     1       2.032   2.764  -4.541  0.00  0.00    +0.142 HD
ATOM     22  H   UNL     1       3.164   2.843  -5.780  0.00  0.00    +0.142 HD
ENDBRANCH  18  20
ENDBRANCH   1  13
TORSDOF 4
