REMARK  Name = ZINC40903422
REMARK  10 active torsions:
REMARK  status: ('A' for Active; 'I' for Inactive)
REMARK    1  A    between atoms: C_1  and  C_2
REMARK    2  A    between atoms: C_2  and  C_3
REMARK    3  A    between atoms: C_5  and  C_8
REMARK    4  A    between atoms: C_11  and  N_15
REMARK    5  A    between atoms: C_18  and  C_21
REMARK    6  A    between atoms: N_23  and  C_24
REMARK    7  A    between atoms: C_24  and  C_25
REMARK    8  A    between atoms: C_25  and  C_26
REMARK    9  A    between atoms: C_29  and  S_32
REMARK   10  A    between atoms: S_32  and  N_35
REMARK                            x       y       z     vdW  Elec       q    Type
REMARK                         _______ _______ _______ _____ _____    ______ ____
ROOT
ATOM      1  N   UNL     1      -7.516  -2.761  -4.161  0.00  0.00    -0.328 N 
ATOM      2  C   UNL     1      -8.498  -1.774  -4.629  0.00  0.00    +0.106 C 
ATOM      3  C   UNL     1      -9.906  -2.297  -4.326  0.00  0.00    +0.031 C 
ATOM      4  C   UNL     1     -10.072  -3.689  -4.941  0.00  0.00    +0.078 C 
ATOM      5  C   UNL     1      -9.055  -4.648  -4.318  0.00  0.00    +0.031 C 
ATOM      6  C   UNL     1      -7.635  -4.150  -4.625  0.00  0.00    +0.106 C 
ENDROOT
BRANCH   1  10
ATOM      7  C   UNL     1      -4.441  -1.637  -1.582  0.00  0.00    +0.025 A 
ATOM      8  C   UNL     1      -4.256  -1.569  -2.962  0.00  0.00    +0.013 A 
ATOM      9  C   UNL     1      -5.274  -1.942  -3.813  0.00  0.00    +0.027 A 
ATOM     10  C   UNL     1      -6.486  -2.385  -3.297  0.00  0.00    +0.065 A 
ATOM     11  C   UNL     1      -6.674  -2.454  -1.919  0.00  0.00    +0.145 A 
ATOM     12  C   UNL     1      -5.655  -2.087  -1.064  0.00  0.00    +0.052 A 
ATOM     13  F   UNL     1      -7.853  -2.884  -1.419  0.00  0.00    -0.204 F 
BRANCH   7  16
ATOM     14  C   UNL     1      -1.412  -0.526   0.013  0.00  0.00    +0.227 A 
ATOM     15  N   UNL     1      -2.134  -0.788  -1.039  0.00  0.00    -0.191 NA
ATOM     16  C   UNL     1      -3.346  -1.237  -0.665  0.00  0.00    +0.202 A 
ATOM     17  N   UNL     1      -3.398  -1.261   0.644  0.00  0.00    -0.056 NA
ATOM     18  O   UNL     1      -2.135  -0.803   1.105  0.00  0.00    -0.338 OA
BRANCH  14  20
ATOM     19  C   UNL     1      -0.019   1.526   0.010  0.00  0.00    +0.014 C 
ATOM     20  C   UNL     1       0.002  -0.004   0.002  0.00  0.00    +0.095 C 
ENDBRANCH  14  20
ENDBRANCH   7  16
ENDBRANCH   1  10
BRANCH   4  21
ATOM     21  C   UNL     1     -11.466  -4.193  -4.674  0.00  0.00    +0.216 C 
ATOM     22  O   UNL     1     -12.251  -3.507  -4.054  0.00  0.00    -0.276 OA
ATOM     23  N   UNL     1     -11.842  -5.406  -5.125  0.00  0.00    -0.315 N 
ATOM     24  H   UNL     1     -11.215  -5.954  -5.622  0.00  0.00    +0.149 HD
BRANCH  23  25
ATOM     25  C   UNL     1     -13.198  -5.896  -4.866  0.00  0.00    +0.109 C 
BRANCH  25  26
ATOM     26  C   UNL     1     -13.364  -7.287  -5.481  0.00  0.00    +0.054 C 
BRANCH  26  27
ATOM     27  C   UNL     1     -14.759  -7.791  -5.214  0.00  0.00    -0.046 A 
ATOM     28  C   UNL     1     -15.025  -8.514  -4.066  0.00  0.00    +0.005 A 
ATOM     29  C   UNL     1     -16.305  -8.976  -3.822  0.00  0.00    +0.029 A 
ATOM     30  C   UNL     1     -17.319  -8.715  -4.725  0.00  0.00    +0.105 A 
ATOM     31  C   UNL     1     -17.053  -7.991  -5.872  0.00  0.00    +0.029 A 
ATOM     32  C   UNL     1     -15.774  -7.525  -6.115  0.00  0.00    +0.005 A 
BRANCH  30  33
ATOM     33  S   UNL     1     -18.949  -9.305  -4.414  0.00  0.00    +0.056 S 
ATOM     34  O   UNL     1     -19.596  -9.396  -5.676  0.00  0.00    -0.153 OA
ATOM     35  O   UNL     1     -18.818 -10.421  -3.543  0.00  0.00    -0.153 OA
BRANCH  33  36
ATOM     36  N   UNL     1     -19.741  -8.128  -3.559  0.00  0.00    -0.204 NA
ATOM     37  H   UNL     1     -20.701  -8.026  -3.650  0.00  0.00    +0.144 HD
ATOM     38  H   UNL     1     -19.245  -7.541  -2.968  0.00  0.00    +0.144 HD
ENDBRANCH  33  36
ENDBRANCH  30  33
ENDBRANCH  26  27
ENDBRANCH  25  26
ENDBRANCH  23  25
ENDBRANCH   4  21
TORSDOF 9
