REMARK  Name = ZINC15785948
REMARK  9 active torsions:
REMARK  status: ('A' for Active; 'I' for Inactive)
REMARK    1  A    between atoms: C_1  and  C_2
REMARK    2  A    between atoms: C_3  and  C_25
REMARK    3  A    between atoms: C_5  and  C_7
REMARK    4  A    between atoms: C_10  and  C_13
REMARK    5  A    between atoms: N_15  and  C_16
REMARK    6  A    between atoms: C_16  and  C_17
REMARK    7  A    between atoms: C_17  and  C_18
REMARK    8  A    between atoms: C_18  and  N_19
REMARK    9  A    between atoms: C_25  and  N_26
REMARK                            x       y       z     vdW  Elec       q    Type
REMARK                         _______ _______ _______ _____ _____    ______ ____
ROOT
ATOM      1  C   UNL     1      -2.645   1.953   4.791  0.00  0.00    +0.037 A 
ATOM      2  C   UNL     1      -2.966   3.069   5.567  0.00  0.00    +0.014 A 
ATOM      3  C   UNL     1      -3.643   2.910   6.755  0.00  0.00    +0.014 A 
ATOM      4  C   UNL     1      -4.001   1.631   7.189  0.00  0.00    +0.037 A 
ATOM      5  C   UNL     1      -3.675   0.514   6.415  0.00  0.00    +0.014 A 
ATOM      6  C   UNL     1      -3.003   0.674   5.225  0.00  0.00    +0.014 A 
ENDROOT
BRANCH   1  11
ATOM      7  C   UNL     1      -0.332   0.970   0.451  0.00  0.00    +0.088 C 
ATOM      8  C   UNL     1      -0.920   1.696   1.634  0.00  0.00    +0.127 A 
ATOM      9  C   UNL     1      -0.906   3.027   1.841  0.00  0.00    +0.100 A 
ATOM     10  N   UNL     1      -1.532   3.268   3.001  0.00  0.00    -0.212 NA
ATOM     11  C   UNL     1      -1.922   2.124   3.514  0.00  0.00    +0.228 A 
ATOM     12  O   UNL     1      -1.552   1.135   2.682  0.00  0.00    -0.440 OA
BRANCH   9  13
ATOM     13  C   UNL     1      -0.297   4.061   0.930  0.00  0.00    +0.164 C 
BRANCH  13  14
ATOM     14  N   UNL     1      -1.343   4.633   0.071  0.00  0.00    -0.323 N 
ATOM     15  C   UNL     1      -1.882   3.616  -0.857  0.00  0.00    +0.110 C 
ATOM     16  C   UNL     1      -2.272   4.458  -2.093  0.00  0.00    +0.056 C 
ATOM     17  C   UNL     1      -1.350   5.657  -1.988  0.00  0.00    -0.025 A 
ATOM     18  C   UNL     1      -0.839   5.691  -0.696  0.00  0.00    +0.033 A 
ATOM     19  C   UNL     1       0.050   6.706  -0.346  0.00  0.00    +0.023 A 
ATOM     20  C   UNL     1       0.411   7.663  -1.272  0.00  0.00    +0.002 A 
ATOM     21  C   UNL     1      -0.108   7.622  -2.554  0.00  0.00    +0.000 A 
ATOM     22  C   UNL     1      -0.989   6.617  -2.909  0.00  0.00    +0.005 A 
ENDBRANCH  13  14
ENDBRANCH   9  13
ENDBRANCH   1  11
BRANCH   4  23
ATOM     23  C   UNL     1      -4.724   1.460   8.466  0.00  0.00    +0.244 C 
ATOM     24  O   UNL     1      -5.035   0.347   8.843  0.00  0.00    -0.270 OA
ATOM     25  N   UNL     1      -5.037   2.537   9.212  0.00  0.00    -0.311 N 
ATOM     26  H   UNL     1      -4.789   3.425   8.911  0.00  0.00    +0.149 HD
BRANCH  25  27
ATOM     27  C   UNL     1      -5.754   2.367  10.479  0.00  0.00    +0.106 C 
BRANCH  27  28
ATOM     28  C   UNL     1      -5.984   3.736  11.122  0.00  0.00    +0.038 C 
BRANCH  28  29
ATOM     29  C   UNL     1      -6.733   3.558  12.445  0.00  0.00    +0.109 C 
BRANCH  29  30
ATOM     30  N   UNL     1      -6.953   4.869  13.061  0.00  0.00    -0.301 N 
ATOM     31  C   UNL     1      -6.023   5.510  13.999  0.00  0.00    +0.108 C 
ATOM     32  C   UNL     1      -6.433   7.001  14.028  0.00  0.00    +0.028 C 
ATOM     33  C   UNL     1      -7.926   6.923  13.633  0.00  0.00    +0.097 C 
ATOM     34  C   UNL     1      -8.035   5.636  12.845  0.00  0.00    +0.216 C 
ATOM     35  O   UNL     1      -8.963   5.340  12.123  0.00  0.00    -0.276 OA
ENDBRANCH  29  30
ENDBRANCH  28  29
ENDBRANCH  27  28
ENDBRANCH  25  27
ENDBRANCH   4  23
TORSDOF 8
