REMARK  Name = ZINC03893846
REMARK  5 active torsions:
REMARK  status: ('A' for Active; 'I' for Inactive)
REMARK    1  A    between atoms: C_1  and  C_2
REMARK    2  A    between atoms: C_7  and  S_8
REMARK    3  A    between atoms: S_8  and  N_11
REMARK    4  A    between atoms: N_11  and  C_12
REMARK    5  A    between atoms: C_23  and  C_26
REMARK                            x       y       z     vdW  Elec       q    Type
REMARK                         _______ _______ _______ _____ _____    ______ ____
ROOT
ATOM      1  C   UNL     1      -4.358   1.843   2.014  0.00  0.00    +0.049 A 
ATOM      2  C   UNL     1      -3.674   3.056   2.057  0.00  0.00    +0.028 A 
ATOM      3  C   UNL     1      -4.298   4.197   2.510  0.00  0.00    +0.049 A 
ATOM      4  C   UNL     1      -5.618   4.146   2.940  0.00  0.00    +0.136 A 
ATOM      5  C   UNL     1      -6.309   2.922   2.904  0.00  0.00    +0.025 A 
ATOM      6  C   UNL     1      -5.672   1.772   2.438  0.00  0.00    +0.036 A 
ATOM      7  C   UNL     1      -7.644   3.220   3.419  0.00  0.00    +0.002 A 
ATOM      8  C   UNL     1      -7.663   4.532   3.710  0.00  0.00    +0.109 A 
ATOM      9  O   UNL     1      -6.468   5.075   3.426  0.00  0.00    -0.459 OA
ATOM     10  C   UNL     1      -8.872   5.245   4.271  0.00  0.00    +0.075 C 
ATOM     11  C   UNL     1     -10.107   4.366   4.041  0.00  0.00    +0.011 C 
ATOM     12  C   UNL     1      -9.825   2.946   4.537  0.00  0.00    -0.009 C 
ATOM     13  C   UNL     1      -8.803   2.278   3.608  0.00  0.00    +0.042 C 
ATOM     14  C   UNL     1     -11.123   2.136   4.535  0.00  0.00    +0.008 C 
ENDROOT
BRANCH   1  15
ATOM     15  N   UNL     1      -3.712   0.694   1.546  0.00  0.00    -0.216 N 
ATOM     16  H   UNL     1      -3.782  -0.138   2.041  0.00  0.00    +0.174 HD
BRANCH  15  17
ATOM     17  S   UNL     1      -2.829   0.751   0.146  0.00  0.00    +0.073 S 
ATOM     18  O   UNL     1      -2.399  -0.577  -0.118  0.00  0.00    -0.150 OA
ATOM     19  O   UNL     1      -1.918   1.833   0.285  0.00  0.00    -0.150 OA
BRANCH  17  26
ATOM     20  C   UNL     1      -5.152  -0.962  -0.757  0.00  0.00    +0.046 C 
ATOM     21  C   UNL     1      -4.971   0.340  -1.494  0.00  0.00    -0.024 A 
ATOM     22  C   UNL     1      -5.838   0.681  -2.516  0.00  0.00    +0.005 A 
ATOM     23  C   UNL     1      -5.672   1.875  -3.192  0.00  0.00    +0.000 A 
ATOM     24  C   UNL     1      -4.641   2.728  -2.846  0.00  0.00    +0.002 A 
ATOM     25  C   UNL     1      -3.775   2.387  -1.824  0.00  0.00    +0.029 A 
ATOM     26  C   UNL     1      -3.937   1.190  -1.152  0.00  0.00    +0.111 A 
ENDBRANCH  17  26
ENDBRANCH  15  17
ENDBRANCH   1  15
TORSDOF 3
