REMARK  Name = ZINC57757826
REMARK  9 active torsions:
REMARK  status: ('A' for Active; 'I' for Inactive)
REMARK    1  A    between atoms: C_1  and  C_2
REMARK    2  A    between atoms: C_2  and  N_3
REMARK    3  A    between atoms: N_3  and  C_4
REMARK    4  A    between atoms: N_3  and  C_6
REMARK    5  A    between atoms: C_4  and  C_5
REMARK    6  A    between atoms: C_6  and  C_8
REMARK    7  A    between atoms: C_6  and  C_21
REMARK    8  A    between atoms: C_8  and  N_9
REMARK    9  A    between atoms: N_12  and  C_13
REMARK                            x       y       z     vdW  Elec       q    Type
REMARK                         _______ _______ _______ _____ _____    ______ ____
ROOT
ATOM      1  N   UNL     1       0.737   1.330  -1.333  0.00  0.00    -0.300 N 
ATOM      2  C   UNL     1       1.289   2.559  -1.375  0.00  0.00    +0.304 C 
ATOM      3  O   UNL     1       2.136   2.817  -2.208  0.00  0.00    -0.253 OA
ATOM      4  N   UNL     1       0.901   3.501  -0.493  0.00  0.00    -0.268 N 
ATOM      5  H   UNL     1       0.061   1.124  -0.668  0.00  0.00    +0.150 HD
ATOM      6  H   UNL     1       0.274   3.278   0.212  0.00  0.00    +0.156 HD
ENDROOT
BRANCH   4   7
ATOM      7  C   UNL     1       1.405   4.805  -0.595  0.00  0.00    +0.049 A 
ATOM      8  C   UNL     1       1.722   5.333  -1.839  0.00  0.00    +0.027 A 
ATOM      9  C   UNL     1       2.218   6.618  -1.937  0.00  0.00    +0.040 A 
ATOM     10  C   UNL     1       2.401   7.380  -0.795  0.00  0.00    +0.125 A 
ATOM     11  C   UNL     1       2.086   6.856   0.447  0.00  0.00    +0.055 A 
ATOM     12  C   UNL     1       1.584   5.573   0.549  0.00  0.00    +0.042 A 
ATOM     13 BR   UNL     1       1.146   4.860   2.245  0.00  0.00    -0.048 Br
ATOM     14  F   UNL     1       2.887   8.637  -0.894  0.00  0.00    -0.205 F 
ENDBRANCH   4   7
BRANCH   1  15
ATOM     15  C   UNL     1       1.158   0.305  -2.292  0.00  0.00    +0.095 C 
BRANCH  15  16
ATOM     16  C   UNL     1       0.294  -0.945  -2.114  0.00  0.00    -0.020 C 
BRANCH  16  17
ATOM     17  C   UNL     1       0.826  -2.052  -2.987  0.00  0.00    -0.052 A 
ATOM     18  C   UNL     1      -0.041  -2.903  -3.647  0.00  0.00    +0.009 A 
ATOM     19  C   UNL     1       0.470  -3.888  -4.425  0.00  0.00    +0.045 A 
ATOM     20  S   UNL     1       2.227  -3.631  -4.240  0.00  0.00    -0.105 S 
ATOM     21  C   UNL     1       2.161  -2.224  -3.142  0.00  0.00    +0.047 A 
ENDBRANCH  16  17
BRANCH  16  22
ATOM     22  N   UNL     1       0.331  -1.371  -0.708  0.00  0.00    +0.385 N 
ATOM     23  H   UNL     1       0.026  -0.610  -0.119  0.00  0.00    -0.081 HD
BRANCH  22  25
ATOM     24  C   UNL     1      -2.011  -2.084  -0.726  0.00  0.00    -0.017 C 
ATOM     25  C   UNL     1      -0.560  -2.523  -0.521  0.00  0.00    -0.081 C 
ENDBRANCH  22  25
BRANCH  22  26
ATOM     26  C   UNL     1       1.704  -1.750  -0.347  0.00  0.00    -0.081 C 
ATOM     27  C   UNL     1       2.455  -0.519   0.166  0.00  0.00    -0.017 C 
ENDBRANCH  22  26
ENDBRANCH  16  22
ENDBRANCH  15  16
ENDBRANCH   1  15
TORSDOF 7
