REMARK  Name = ZINC63667299
REMARK  9 active torsions:
REMARK  status: ('A' for Active; 'I' for Inactive)
REMARK    1  A    between atoms: C_1  and  C_2
REMARK    2  A    between atoms: N_6  and  C_27
REMARK    3  A    between atoms: C_9  and  C_11
REMARK    4  A    between atoms: C_11  and  C_12
REMARK    5  A    between atoms: C_12  and  C_13
REMARK    6  A    between atoms: N_15  and  C_16
REMARK    7  A    between atoms: C_16  and  C_17
REMARK    8  A    between atoms: C_17  and  C_18
REMARK    9  A    between atoms: N_28  and  C_30
REMARK                            x       y       z     vdW  Elec       q    Type
REMARK                         _______ _______ _______ _____ _____    ______ ____
ROOT
ATOM      1  C   UNL     1       0.184   1.632   0.223  0.00  0.00    +0.064 C 
ATOM      2  C   UNL     1       0.202   0.128   0.119  0.00  0.00    +0.044 C 
ATOM      3  C   UNL     1      -0.897  -0.640   0.022  0.00  0.00    +0.100 C 
ATOM      4  C   UNL     1      -0.405  -2.071   0.239  0.00  0.00    +0.233 C 
ATOM      5  N   UNL     1      -1.092  -3.102  -0.548  0.00  0.00    -0.274 N 
ATOM      6  C   UNL     1      -2.325  -2.768  -1.011  0.00  0.00    +0.262 C 
ATOM      7  O   UNL     1      -2.948  -3.557  -1.697  0.00  0.00    -0.269 OA
ATOM      8  C   UNL     1      -2.904  -1.467  -0.688  0.00  0.00    +0.104 C 
ATOM      9  N   UNL     1      -2.201  -0.486  -0.194  0.00  0.00    -0.246 NA
ATOM     10  C   UNL     1      -0.487  -4.408  -0.817  0.00  0.00    +0.134 C 
ATOM     11  N   UNL     1       1.008  -1.980  -0.152  0.00  0.00    -0.227 N 
ATOM     12  N   UNL     1       1.339  -0.633   0.107  0.00  0.00    -0.265 N 
ATOM     13  H   UNL     1       2.237  -0.297   0.256  0.00  0.00    +0.170 HD
ENDROOT
BRANCH  11  14
ATOM     14  C   UNL     1       1.829  -2.988  -0.663  0.00  0.00    +0.050 A 
ATOM     15  C   UNL     1       2.443  -2.825  -1.899  0.00  0.00    +0.025 A 
ATOM     16  C   UNL     1       3.254  -3.823  -2.401  0.00  0.00    +0.002 A 
ATOM     17  C   UNL     1       3.456  -4.983  -1.677  0.00  0.00    +0.000 A 
ATOM     18  C   UNL     1       2.846  -5.149  -0.447  0.00  0.00    +0.002 A 
ATOM     19  C   UNL     1       2.038  -4.152   0.065  0.00  0.00    +0.025 A 
ENDBRANCH  11  14
BRANCH   8  20
ATOM     20  C   UNL     1      -4.372  -1.246  -0.949  0.00  0.00    +0.070 C 
BRANCH  20  21
ATOM     21  C   UNL     1      -4.755   0.177  -0.538  0.00  0.00    +0.102 C 
BRANCH  21  22
ATOM     22  C   UNL     1      -6.222   0.398  -0.799  0.00  0.00    +0.213 C 
ATOM     23  O   UNL     1      -6.896  -0.495  -1.268  0.00  0.00    -0.276 OA
ATOM     24  N   UNL     1      -6.786   1.587  -0.512  0.00  0.00    -0.315 N 
ATOM     25  H   UNL     1      -6.248   2.302  -0.137  0.00  0.00    +0.149 HD
BRANCH  24  26
ATOM     26  C   UNL     1      -8.213   1.802  -0.765  0.00  0.00    +0.108 C 
BRANCH  26  27
ATOM     27  C   UNL     1      -8.596   3.225  -0.354  0.00  0.00    +0.052 C 
BRANCH  27  28
ATOM     28  C   UNL     1     -10.064   3.446  -0.616  0.00  0.00    -0.040 C 
ATOM     29  C   UNL     1     -11.077   3.310   0.270  0.00  0.00    -0.001 A 
ATOM     30  C   UNL     1     -11.114   2.929   1.687  0.00  0.00    +0.010 A 
ATOM     31  C   UNL     1     -12.307   2.879   2.322  0.00  0.00    +0.001 A 
ATOM     32  C   UNL     1     -13.507   3.180   1.661  0.00  0.00    +0.002 A 
ATOM     33  C   UNL     1     -13.553   3.538   0.361  0.00  0.00    +0.026 A 
ATOM     34  C   UNL     1     -12.357   3.623  -0.404  0.00  0.00    +0.043 A 
ATOM     35  N   UNL     1     -12.143   3.941  -1.658  0.00  0.00    -0.380 N 
ATOM     36  C   UNL     1     -10.701   3.870  -1.919  0.00  0.00    +0.144 C 
ATOM     37  H   UNL     1     -12.824   4.186  -2.304  0.00  0.00    +0.160 HD
ENDBRANCH  27  28
ENDBRANCH  26  27
ENDBRANCH  24  26
ENDBRANCH  21  22
ENDBRANCH  20  21
ENDBRANCH   8  20
TORSDOF 7
