REMARK  Name = ZINC37892081
REMARK  6 active torsions:
REMARK  status: ('A' for Active; 'I' for Inactive)
REMARK    1  A    between atoms: C_1  and  C_2
REMARK    2  A    between atoms: C_2  and  N_3
REMARK    3  A    between atoms: C_4  and  C_6
REMARK    4  A    between atoms: C_6  and  N_7
REMARK    5  A    between atoms: N_7  and  C_8
REMARK    6  A    between atoms: C_15  and  O_17
REMARK                            x       y       z     vdW  Elec       q    Type
REMARK                         _______ _______ _______ _____ _____    ______ ____
ROOT
ATOM      1  N   UNL     1       1.552  -3.753  -2.673  0.00  0.00    +0.388 N 
ATOM      2  H   UNL     1       2.040  -4.088  -1.855  0.00  0.00    -0.085 HD
ATOM      3  H   UNL     1       0.606  -4.103  -2.666  0.00  0.00    -0.085 HD
ENDROOT
BRANCH   1   4
ATOM      4  C   UNL     1       2.240  -4.227  -3.882  0.00  0.00    -0.042 C 
ATOM      5  C   UNL     1       1.435  -3.785  -5.119  0.00  0.00    -0.013 C 
ATOM      6  C   UNL     1       1.811  -4.572  -6.389  0.00  0.00    -0.001 C 
ATOM      7  C   UNL     1       3.295  -4.783  -6.517  0.00  0.00    +0.000 C 
ATOM      8  C   UNL     1       3.650  -6.155  -5.908  0.00  0.00    +0.002 C 
ATOM      9  C   UNL     1       3.735  -6.112  -4.456  0.00  0.00    +0.030 C 
ATOM     10  C   UNL     1       2.393  -5.722  -3.800  0.00  0.00    +0.101 C 
BRANCH  10  11
ATOM     11  O   UNL     1       2.391  -6.131  -2.431  0.00  0.00    -0.393 OA
ATOM     12  H   UNL     1       2.486  -7.085  -2.305  0.00  0.00    +0.210 HD
ENDBRANCH  10  11
ENDBRANCH   1   4
BRANCH   1  13
ATOM     13  C   UNL     1       1.532  -2.285  -2.665  0.00  0.00    +0.015 C 
BRANCH  13  15
ATOM     14  N   UNL     1       0.688  -0.476  -1.203  0.00  0.00    -0.317 N 
ATOM     15  C   UNL     1       0.827  -1.799  -1.425  0.00  0.00    +0.196 C 
ATOM     16  O   UNL     1       0.384  -2.597  -0.627  0.00  0.00    -0.278 OA
ATOM     17  H   UNL     1       1.042   0.162  -1.842  0.00  0.00    +0.149 HD
BRANCH  14  19
ATOM     18  C   UNL     1      -0.019   1.526   0.010  0.00  0.00    +0.024 C 
ATOM     19  C   UNL     1       0.002  -0.004   0.002  0.00  0.00    +0.101 C 
ENDBRANCH  14  19
ENDBRANCH  13  15
ENDBRANCH   1  13
TORSDOF 5
