REMARK  Name = ZINC45739454
REMARK  3 active torsions:
REMARK  status: ('A' for Active; 'I' for Inactive)
REMARK    1  A    between atoms: C_1  and  C_2
REMARK    2  A    between atoms: N_14  and  C_15
REMARK    3  A    between atoms: C_21  and  C_23
REMARK                            x       y       z     vdW  Elec       q    Type
REMARK                         _______ _______ _______ _____ _____    ______ ____
ROOT
ATOM      1  C   UNL     1       0.486   0.247  -0.428  0.00  0.00    +0.033 C 
ATOM      2  C   UNL     1       0.809  -1.248  -0.426  0.00  0.00    +0.105 C 
ATOM      3  C   UNL     1      -0.486  -2.057  -0.361  0.00  0.00    -0.017 A 
ATOM      4  C   UNL     1      -1.587  -1.801  -1.176  0.00  0.00    +0.013 A 
ATOM      5  C   UNL     1      -2.701  -2.562  -1.067  0.00  0.00    +0.046 A 
ATOM      6  S   UNL     1      -2.240  -3.705   0.226  0.00  0.00    -0.101 S 
ATOM      7  C   UNL     1      -0.606  -3.084   0.524  0.00  0.00    -0.004 A 
ATOM      8  C   UNL     1       0.405  -3.566   1.513  0.00  0.00    +0.062 C 
ATOM      9  C   UNL     1       1.780  -2.996   1.131  0.00  0.00    +0.115 C 
ATOM     10  N   UNL     1       1.608  -1.583   0.760  0.00  0.00    -0.278 N 
ATOM     11  C   UNL     1       2.176  -0.609   1.499  0.00  0.00    +0.303 C 
ATOM     12  O   UNL     1       1.958   0.558   1.237  0.00  0.00    -0.253 OA
ATOM     13  N   UNL     1       2.986  -0.929   2.528  0.00  0.00    -0.296 N 
ATOM     14  H   UNL     1       3.216  -1.857   2.694  0.00  0.00    +0.151 HD
ENDROOT
BRANCH  13  15
ATOM     15  C   UNL     1       3.517   0.124   3.397  0.00  0.00    +0.077 C 
ATOM     16  C   UNL     1       4.785   0.710   2.771  0.00  0.00    +0.041 C 
ATOM     17  C   UNL     1       5.319   1.834   3.665  0.00  0.00    +0.109 C 
ATOM     18  N   UNL     1       5.504   1.309   5.025  0.00  0.00    -0.301 N 
ATOM     19  C   UNL     1       4.372   0.645   5.686  0.00  0.00    +0.109 C 
ATOM     20  C   UNL     1       3.849  -0.466   4.769  0.00  0.00    +0.041 C 
ATOM     21  C   UNL     1       6.689   1.435   5.654  0.00  0.00    +0.219 C 
ATOM     22  O   UNL     1       7.633   1.930   5.075  0.00  0.00    -0.275 OA
BRANCH  21  23
ATOM     23  C   UNL     1       6.841   0.961   7.076  0.00  0.00    +0.075 C 
ATOM     24  C   UNL     1       6.004   1.847   8.001  0.00  0.00    +0.013 C 
ATOM     25  C   UNL     1       6.158   1.365   9.445  0.00  0.00    +0.001 C 
ATOM     26  C   UNL     1       7.630   1.448   9.855  0.00  0.00    +0.000 C 
ATOM     27  C   UNL     1       8.467   0.562   8.930  0.00  0.00    +0.001 C 
ATOM     28  C   UNL     1       8.313   1.043   7.486  0.00  0.00    +0.013 C 
ENDBRANCH  21  23
ENDBRANCH  13  15
TORSDOF 2
