REMARK  Name = ZINC21237070
REMARK  11 active torsions:
REMARK  status: ('A' for Active; 'I' for Inactive)
REMARK    1  A    between atoms: C_1  and  C_2
REMARK    2  A    between atoms: C_2  and  C_3
REMARK    3  A    between atoms: C_3  and  C_4
REMARK    4  A    between atoms: C_4  and  C_26
REMARK    5  A    between atoms: N_7  and  C_11
REMARK    6  A    between atoms: C_11  and  C_12
REMARK    7  A    between atoms: N_14  and  C_15
REMARK    8  A    between atoms: C_15  and  C_17
REMARK    9  A    between atoms: C_15  and  C_18
REMARK   10  A    between atoms: C_26  and  C_27
REMARK   11  A    between atoms: C_27  and  C_28
REMARK                            x       y       z     vdW  Elec       q    Type
REMARK                         _______ _______ _______ _____ _____    ______ ____
ROOT
ATOM      1  C   UNL     1      -0.273   0.167  -0.721  0.00  0.00    +0.213 C 
ENDROOT
BRANCH   1   5
ATOM      2  C   UNL     1      -3.820  -0.901  -0.460  0.00  0.00    +0.113 C 
ATOM      3  C   UNL     1      -2.462  -0.621   0.153  0.00  0.00    +0.247 C 
ATOM      4  O   UNL     1      -2.147  -0.739   1.318  0.00  0.00    -0.273 OA
ATOM      5  N   UNL     1      -1.680  -0.213  -0.865  0.00  0.00    -0.215 N 
ATOM      6  C   UNL     1      -2.346  -0.203  -2.026  0.00  0.00    +0.310 C 
ATOM      7  O   UNL     1      -1.850   0.124  -3.086  0.00  0.00    -0.252 OA
ATOM      8  N   UNL     1      -3.625  -0.597  -1.888  0.00  0.00    -0.285 N 
ATOM      9  H   UNL     1      -4.459  -0.715  -2.595  0.00  0.00    +0.151 HD
BRANCH   2  10
ATOM     10  C   UNL     1      -4.888   0.013   0.144  0.00  0.00    +0.035 C 
BRANCH  10  12
ATOM     11  C   UNL     1      -5.584   2.389   0.483  0.00  0.00    +0.004 C 
ATOM     12  C   UNL     1      -4.517   1.474  -0.121  0.00  0.00    -0.001 C 
ENDBRANCH  10  12
ENDBRANCH   2  10
BRANCH   2  13
ATOM     13  C   UNL     1      -4.199  -2.372  -0.270  0.00  0.00    +0.035 C 
BRANCH  13  14
ATOM     14  C   UNL     1      -3.089  -3.261  -0.834  0.00  0.00    -0.001 C 
ATOM     15  C   UNL     1      -3.468  -4.731  -0.644  0.00  0.00    +0.004 C 
ENDBRANCH  13  14
ENDBRANCH   2  13
ENDBRANCH   1   5
BRANCH   1  16
ATOM     16  C   UNL     1      -0.178   1.644  -0.436  0.00  0.00    +0.231 C 
ATOM     17  O   UNL     1      -1.187   2.314  -0.367  0.00  0.00    -0.274 OA
ATOM     18  N   UNL     1       1.028   2.221  -0.265  0.00  0.00    -0.307 N 
ATOM     19  H   UNL     1       1.943   1.615  -0.332  0.00  0.00    +0.149 HD
BRANCH  18  20
ATOM     20  C   UNL     1       1.120   3.657   0.011  0.00  0.00    +0.102 C 
ATOM     21  C   UNL     1       1.010   3.895   1.518  0.00  0.00    +0.033 C 
BRANCH  20  22
ATOM     22  C   UNL     1       2.443   4.180  -0.485  0.00  0.00    -0.009 A 
ATOM     23  C   UNL     1       3.535   3.336  -0.563  0.00  0.00    +0.008 A 
ATOM     24  C   UNL     1       4.749   3.814  -1.018  0.00  0.00    +0.020 A 
ATOM     25  C   UNL     1       4.872   5.140  -1.394  0.00  0.00    +0.042 A 
ATOM     26  C   UNL     1       3.781   5.986  -1.316  0.00  0.00    +0.040 A 
ATOM     27  C   UNL     1       2.564   5.505  -0.867  0.00  0.00    +0.047 A 
ATOM     28 CL   UNL     1       1.192   6.563  -0.775  0.00  0.00    -0.083 Cl
ATOM     29 CL   UNL     1       6.398   5.742  -1.965  0.00  0.00    -0.083 Cl
ENDBRANCH  20  22
ENDBRANCH  18  20
ENDBRANCH   1  16
TORSDOF 8
