REMARK  Name = ZINC37282742
REMARK  4 active torsions:
REMARK  status: ('A' for Active; 'I' for Inactive)
REMARK    1  A    between atoms: C_1  and  C_2
REMARK    2  A    between atoms: C_2  and  C_4
REMARK    3  A    between atoms: C_2  and  N_13
REMARK    4  A    between atoms: N_13  and  C_14
REMARK                            x       y       z     vdW  Elec       q    Type
REMARK                         _______ _______ _______ _____ _____    ______ ____
ROOT
ATOM      1  N   UNL     1      -1.370  -0.513   0.133  0.00  0.00    +0.391 N 
ATOM      2  H   UNL     1      -1.091  -1.483   0.145  0.00  0.00    -0.084 HD
ATOM      3  H   UNL     1      -1.956  -0.323   0.932  0.00  0.00    -0.084 HD
ENDROOT
BRANCH   1   4
ATOM      4  C   UNL     1      -2.116  -0.233  -1.101  0.00  0.00    +0.017 C 
ATOM      5  C   UNL     1      -1.597  -1.127  -2.230  0.00  0.00    -0.007 C 
ATOM      6  C   UNL     1      -1.188  -2.487  -1.694  0.00  0.00    +0.000 C 
ATOM      7  C   UNL     1      -2.348  -3.315  -1.173  0.00  0.00    +0.019 C 
ATOM      8  C   UNL     1      -2.953  -2.679   0.080  0.00  0.00    +0.104 C 
ATOM      9  N   UNL     1      -3.960  -1.688  -0.334  0.00  0.00    -0.317 N 
ATOM     10  C   UNL     1      -3.585  -0.529  -0.885  0.00  0.00    +0.199 C 
ATOM     11  O   UNL     1      -4.421   0.284  -1.219  0.00  0.00    -0.278 OA
ATOM     12  H   UNL     1      -4.902  -1.876  -0.203  0.00  0.00    +0.149 HD
ENDBRANCH   1   4
BRANCH   1  14
ATOM     13  C   UNL     1      -0.601   1.804   0.332  0.00  0.00    -0.009 C 
ATOM     14  C   UNL     1      -0.176   0.341   0.188  0.00  0.00    -0.042 C 
BRANCH  14  15
ATOM     15  C   UNL     1       0.671  -0.055   1.370  0.00  0.00    -0.042 A 
ATOM     16  C   UNL     1       0.112  -0.771   2.412  0.00  0.00    +0.005 A 
ATOM     17  C   UNL     1       0.887  -1.135   3.496  0.00  0.00    +0.022 A 
ATOM     18  C   UNL     1       2.224  -0.781   3.541  0.00  0.00    +0.061 A 
ATOM     19  C   UNL     1       2.785  -0.064   2.499  0.00  0.00    +0.078 A 
ATOM     20  C   UNL     1       2.009   0.294   1.410  0.00  0.00    +0.062 A 
ATOM     21 CL   UNL     1       2.713   1.188   0.098  0.00  0.00    -0.082 Cl
ATOM     22 CL   UNL     1       4.463   0.380   2.554  0.00  0.00    -0.081 Cl
ATOM     23 CL   UNL     1       3.198  -1.237   4.904  0.00  0.00    -0.082 Cl
ENDBRANCH  14  15
ENDBRANCH   1  14
TORSDOF 3
