REMARK  Name = ZINC50841099
REMARK  3 active torsions:
REMARK  status: ('A' for Active; 'I' for Inactive)
REMARK    1  A    between atoms: C_4  and  S_8
REMARK    2  A    between atoms: S_8  and  C_9
REMARK    3  A    between atoms: C_9  and  C_10
REMARK                            x       y       z     vdW  Elec       q    Type
REMARK                         _______ _______ _______ _____ _____    ______ ____
ROOT
ATOM      1  C   UNL     1      -3.203  -2.745   0.017  0.00  0.00    +0.153 C 
ENDROOT
BRANCH   1   2
ATOM      2  C   UNL     1      -4.386  -3.679   0.022  0.00  0.00    +0.142 A 
ATOM      3  N   UNL     1      -4.886  -4.081   1.175  0.00  0.00    -0.224 NA
ATOM      4  C   UNL     1      -5.918  -4.896   1.202  0.00  0.00    +0.113 A 
ATOM      5  C   UNL     1      -6.520  -5.362   0.008  0.00  0.00    +0.044 A 
ATOM      6  C   UNL     1      -7.649  -6.255   0.204  0.00  0.00    +0.020 A 
ATOM      7  C   UNL     1      -8.030  -6.565   1.451  0.00  0.00    +0.048 A 
ATOM      8  S   UNL     1      -6.882  -5.665   2.476  0.00  0.00    -0.077 S 
ATOM      9  C   UNL     1      -5.934  -4.892  -1.191  0.00  0.00    +0.141 A 
ATOM     10  N   UNL     1      -4.904  -4.073  -1.127  0.00  0.00    -0.219 NA
ATOM     11 CL   UNL     1      -6.570  -5.384  -2.729  0.00  0.00    -0.061 Cl
ENDBRANCH   1   2
BRANCH   1  12
ATOM     12  S   UNL     1      -3.788  -1.028   0.032  0.00  0.00    -0.080 S 
BRANCH  12  16
ATOM     13  C   UNL     1      -0.016   1.361   0.009  0.00  0.00    +0.090 A 
ATOM     14  C   UNL     1       0.002  -0.004   0.002  0.00  0.00    +0.119 A 
ATOM     15  N   UNL     1      -1.139  -0.688   0.009  0.00  0.00    -0.232 NA
ATOM     16  C   UNL     1      -2.307  -0.073   0.024  0.00  0.00    +0.169 A 
ATOM     17  N   UNL     1      -2.387   1.286   0.032  0.00  0.00    -0.302 N 
ATOM     18  C   UNL     1      -1.256   2.024   0.031  0.00  0.00    +0.252 A 
ATOM     19  O   UNL     1      -1.309   3.243   0.038  0.00  0.00    -0.268 OA
ATOM     20  H   UNL     1      -3.253   1.723   0.042  0.00  0.00    +0.171 HD
ENDBRANCH  12  16
ENDBRANCH   1  12
TORSDOF 3
