REMARK  Name = ZINC59491711
REMARK  6 active torsions:
REMARK  status: ('A' for Active; 'I' for Inactive)
REMARK    1  A    between atoms: C_1  and  C_2
REMARK    2  A    between atoms: C_5  and  C_8
REMARK    3  A    between atoms: C_10  and  C_28
REMARK    4  A    between atoms: C_14  and  C_17
REMARK    5  A    between atoms: N_19  and  C_20
REMARK    6  A    between atoms: C_20  and  C_21
REMARK                            x       y       z     vdW  Elec       q    Type
REMARK                         _______ _______ _______ _____ _____    ______ ____
ROOT
ATOM      1  C   UNL     1       0.060  -4.254  -0.021  0.00  0.00    +0.075 A 
ATOM      2  C   UNL     1       0.070  -4.967   1.196  0.00  0.00    +0.060 A 
ATOM      3  C   UNL     1       0.087  -6.321   1.169  0.00  0.00    +0.149 A 
ATOM      4  N   UNL     1       0.095  -6.965  -0.035  0.00  0.00    -0.209 N 
ATOM      5  C   UNL     1       0.085  -6.242  -1.194  0.00  0.00    +0.169 A 
ATOM      6  N   UNL     1       0.062  -4.911  -1.171  0.00  0.00    -0.227 NA
ATOM      7  C   UNL     1       0.096  -7.173  -2.252  0.00  0.00    +0.100 A 
ATOM      8  C   UNL     1       0.113  -8.453  -1.670  0.00  0.00    +0.150 A 
ATOM      9  N   UNL     1       0.112  -8.324  -0.370  0.00  0.00    -0.172 NA
ENDROOT
BRANCH   1  14
ATOM     10  C   UNL     1      -0.018   1.503   0.010  0.00  0.00    +0.044 C 
ATOM     11  C   UNL     1       0.002  -0.004   0.002  0.00  0.00    -0.050 A 
ATOM     12  C   UNL     1       0.006  -0.686  -1.202  0.00  0.00    +0.004 A 
ATOM     13  C   UNL     1       0.024  -2.066  -1.216  0.00  0.00    +0.010 A 
ATOM     14  C   UNL     1       0.040  -2.773  -0.013  0.00  0.00    +0.000 A 
ATOM     15  C   UNL     1       0.037  -2.079   1.197  0.00  0.00    +0.010 A 
ATOM     16  C   UNL     1       0.023  -0.699   1.198  0.00  0.00    +0.004 A 
ENDBRANCH   1  14
BRANCH   7  17
ATOM     17  C   UNL     1       0.090  -6.866  -3.685  0.00  0.00    +0.249 C 
ATOM     18  O   UNL     1       0.074  -5.707  -4.059  0.00  0.00    -0.270 OA
ATOM     19  N   UNL     1       0.103  -7.866  -4.589  0.00  0.00    -0.307 N 
ATOM     20  H   UNL     1       0.115  -8.789  -4.291  0.00  0.00    +0.149 HD
BRANCH  19  21
ATOM     21  C   UNL     1       0.097  -7.559  -6.021  0.00  0.00    +0.139 C 
BRANCH  21  22
ATOM     22  C   UNL     1       0.114  -8.842  -6.810  0.00  0.00    -0.030 A 
ATOM     23  C   UNL     1       1.318  -9.418  -7.168  0.00  0.00    +0.006 A 
ATOM     24  C   UNL     1       1.334 -10.595  -7.892  0.00  0.00    +0.020 A 
ATOM     25  C   UNL     1       0.144 -11.198  -8.258  0.00  0.00    +0.041 A 
ATOM     26  C   UNL     1      -1.062 -10.621  -7.899  0.00  0.00    +0.020 A 
ATOM     27  C   UNL     1      -1.076  -9.447  -7.171  0.00  0.00    +0.006 A 
ATOM     28 CL   UNL     1       0.162 -12.676  -9.168  0.00  0.00    -0.084 Cl
ENDBRANCH  21  22
ENDBRANCH  19  21
ENDBRANCH   7  17
BRANCH   3  29
ATOM     29  C   UNL     1       0.099  -7.108   2.454  0.00  0.00    +0.434 C 
ATOM     30  F   UNL     1       0.088  -6.227   3.541  0.00  0.00    -0.164 F 
ATOM     31  F   UNL     1      -1.033  -7.928   2.509  0.00  0.00    -0.164 F 
ATOM     32  F   UNL     1       1.251  -7.899   2.506  0.00  0.00    -0.164 F 
ENDBRANCH   3  29
TORSDOF 5
