REMARK  Name = ZINC48843746
REMARK  4 active torsions:
REMARK  status: ('A' for Active; 'I' for Inactive)
REMARK    1  A    between atoms: C_3  and  N_11
REMARK    2  A    between atoms: C_4  and  C_8
REMARK    3  A    between atoms: N_14  and  C_15
REMARK    4  A    between atoms: C_21  and  N_23
REMARK                            x       y       z     vdW  Elec       q    Type
REMARK                         _______ _______ _______ _____ _____    ______ ____
ROOT
ATOM      1  N   UNL     1       3.538   2.114  -0.026  0.00  0.00    -0.269 N 
ATOM      2  C   UNL     1       3.502   3.459  -0.110  0.00  0.00    +0.304 C 
ATOM      3  O   UNL     1       2.435   4.041  -0.084  0.00  0.00    -0.253 OA
ATOM      4  N   UNL     1       4.649   4.158  -0.223  0.00  0.00    -0.298 N 
ATOM      5  H   UNL     1       4.390   1.654   0.018  0.00  0.00    +0.156 HD
ATOM      6  H   UNL     1       5.500   3.693  -0.244  0.00  0.00    +0.150 HD
ENDROOT
BRANCH   1   9
ATOM      7  C   UNL     1       0.057   1.174   0.665  0.00  0.00    +0.040 A 
ATOM      8  C   UNL     1       1.233   1.897   0.642  0.00  0.00    +0.027 A 
ATOM      9  C   UNL     1       2.351   1.386  -0.002  0.00  0.00    +0.049 A 
ATOM     10  C   UNL     1       2.280   0.132  -0.631  0.00  0.00    +0.087 A 
ATOM     11  C   UNL     1       1.082  -0.589  -0.601  0.00  0.00    +0.055 A 
ATOM     12  C   UNL     1      -0.019  -0.065   0.045  0.00  0.00    +0.124 A 
ATOM     13  F   UNL     1      -1.176  -0.762   0.074  0.00  0.00    -0.205 F 
BRANCH  10  14
ATOM     14  C   UNL     1       3.459  -0.419  -1.318  0.00  0.00    +0.388 C 
ATOM     15  O   UNL     1       3.369  -1.468  -1.940  0.00  0.00    -0.241 OA
ATOM     16  O   UNL     1       4.529   0.172  -1.266  0.00  0.00    -0.241 OA
ENDBRANCH  10  14
ENDBRANCH   1   9
BRANCH   4  17
ATOM     17  C   UNL     1       4.610   5.620  -0.314  0.00  0.00    +0.060 C 
ATOM     18  C   UNL     1       4.385   6.034  -1.770  0.00  0.00    +0.021 C 
ATOM     19  C   UNL     1       4.345   7.560  -1.865  0.00  0.00    +0.002 C 
ATOM     20  C   UNL     1       5.672   8.138  -1.370  0.00  0.00    -0.001 C 
ATOM     21  C   UNL     1       5.896   7.724   0.086  0.00  0.00    -0.014 C 
ATOM     22  C   UNL     1       5.937   6.197   0.181  0.00  0.00    -0.054 C 
BRANCH  22  23
ATOM     23  N   UNL     1       6.152   5.800   1.579  0.00  0.00    +0.381 N 
ATOM     24  H   UNL     1       6.179   4.793   1.642  0.00  0.00    -0.090 HD
ATOM     25  H   UNL     1       7.028   6.180   1.906  0.00  0.00    -0.090 HD
ATOM     26  H   UNL     1       5.398   6.152   2.149  0.00  0.00    -0.090 HD
ENDBRANCH  22  23
ENDBRANCH   4  17
TORSDOF 4
