REMARK  Name = ZINC33126926
REMARK  6 active torsions:
REMARK  status: ('A' for Active; 'I' for Inactive)
REMARK    1  A    between atoms: C_1  and  C_2
REMARK    2  A    between atoms: C_2  and  C_3
REMARK    3  A    between atoms: C_8  and  N_9
REMARK    4  A    between atoms: C_10  and  C_12
REMARK    5  A    between atoms: N_16  and  C_19
REMARK    6  A    between atoms: C_22  and  C_25
REMARK                            x       y       z     vdW  Elec       q    Type
REMARK                         _______ _______ _______ _____ _____    ______ ____
ROOT
ATOM      1  C   UNL     1       3.603  -0.930   0.291  0.00  0.00    +0.102 A 
ATOM      2  C   UNL     1       4.746  -0.163   0.470  0.00  0.00    +0.031 A 
ATOM      3  C   UNL     1       4.663   1.236   0.298  0.00  0.00    +0.038 A 
ATOM      4  C   UNL     1       3.465   1.835  -0.050  0.00  0.00    +0.038 A 
ATOM      5  N   UNL     1       2.352   1.090  -0.222  0.00  0.00    -0.280 N 
ATOM      6  C   UNL     1       2.358  -0.244  -0.064  0.00  0.00    +0.268 A 
ATOM      7  O   UNL     1       1.332  -0.882  -0.220  0.00  0.00    -0.266 OA
ATOM      8  C   UNL     1       3.362   3.324  -0.256  0.00  0.00    +0.055 C 
ATOM      9  C   UNL     1       4.469   4.065   0.486  0.00  0.00    +0.014 C 
ATOM     10  C   UNL     1       5.830   3.500   0.059  0.00  0.00    +0.080 C 
ATOM     11  C   UNL     1       5.873   2.052   0.499  0.00  0.00    +0.165 C 
ATOM     12  O   UNL     1       6.871   1.579   1.000  0.00  0.00    -0.292 OA
ENDROOT
BRANCH   5  13
ATOM     13  C   UNL     1       1.154   1.728  -0.568  0.00  0.00    +0.050 A 
ATOM     14  C   UNL     1       0.175   1.940   0.393  0.00  0.00    +0.027 A 
ATOM     15  C   UNL     1      -1.007   2.565   0.047  0.00  0.00    +0.014 A 
ATOM     16  C   UNL     1      -1.212   2.989  -1.253  0.00  0.00    +0.055 A 
ATOM     17  C   UNL     1      -0.239   2.779  -2.213  0.00  0.00    +0.014 A 
ATOM     18  C   UNL     1       0.943   2.150  -1.875  0.00  0.00    +0.027 A 
BRANCH  16  19
ATOM     19  C   UNL     1      -2.500   3.675  -1.626  0.00  0.00    +0.417 C 
ATOM     20  F   UNL     1      -3.438   2.719  -2.032  0.00  0.00    -0.166 F 
ATOM     21  F   UNL     1      -2.995   4.372  -0.519  0.00  0.00    -0.166 F 
ATOM     22  F   UNL     1      -2.265   4.572  -2.674  0.00  0.00    -0.166 F 
ENDBRANCH  16  19
ENDBRANCH   5  13
BRANCH   1  24
ATOM     23  N   UNL     1       2.549  -3.130   0.170  0.00  0.00    -0.281 N 
ATOM     24  C   UNL     1       3.639  -2.391   0.459  0.00  0.00    +0.254 C 
ATOM     25  O   UNL     1       4.652  -2.933   0.859  0.00  0.00    -0.270 OA
ATOM     26  H   UNL     1       1.644  -2.644  -0.223  0.00  0.00    +0.155 HD
BRANCH  23  32
ATOM     27  C   UNL     1       1.379  -5.220   0.477  0.00  0.00    -0.026 A 
ATOM     28  C   UNL     1       1.403  -6.587   0.673  0.00  0.00    +0.005 A 
ATOM     29  C   UNL     1       2.611  -7.253   0.760  0.00  0.00    +0.000 A 
ATOM     30  C   UNL     1       3.800  -6.553   0.652  0.00  0.00    +0.002 A 
ATOM     31  C   UNL     1       3.783  -5.187   0.451  0.00  0.00    +0.023 A 
ATOM     32  C   UNL     1       2.570  -4.514   0.368  0.00  0.00    +0.037 A 
BRANCH  27  34
ATOM     33  C   UNL     1      -0.332  -4.345  -1.090  0.00  0.00    +0.009 C 
ATOM     34  C   UNL     1       0.061  -4.494   0.381  0.00  0.00    +0.033 C 
ENDBRANCH  27  34
ENDBRANCH  23  32
ENDBRANCH   1  24
TORSDOF 5
