REMARK  Name = ZINC08691776
REMARK  9 active torsions:
REMARK  status: ('A' for Active; 'I' for Inactive)
REMARK    1  A    between atoms: C_1  and  O_2
REMARK    2  A    between atoms: O_2  and  C_3
REMARK    3  A    between atoms: C_6  and  C_9
REMARK    4  A    between atoms: C_9  and  C_11
REMARK    5  A    between atoms: C_13  and  C_25
REMARK    6  A    between atoms: C_19  and  C_20
REMARK    7  A    between atoms: C_19  and  O_24
REMARK    8  A    between atoms: C_28  and  C_30
REMARK    9  A    between atoms: C_35  and  N_36
REMARK                            x       y       z     vdW  Elec       q    Type
REMARK                         _______ _______ _______ _____ _____    ______ ____
ROOT
ATOM      1  C   UNL     1      -5.004  -4.116   0.033  0.00  0.00    +0.147 C 
ATOM      2  C   UNL     1      -4.918  -4.633  -1.408  0.00  0.00    +0.156 C 
ATOM      3  N   UNL     1      -6.096  -4.181  -2.151  0.00  0.00    -0.289 N 
ATOM      4  C   UNL     1      -7.267  -3.963  -1.536  0.00  0.00    +0.302 C 
ATOM      5  O   UNL     1      -8.217  -3.599  -2.201  0.00  0.00    -0.253 OA
ATOM      6  N   UNL     1      -7.433  -4.132  -0.215  0.00  0.00    -0.264 N 
ATOM      7  C   UNL     1      -6.330  -4.580   0.643  0.00  0.00    +0.243 C 
ATOM      8  H   UNL     1      -6.027  -4.036  -3.107  0.00  0.00    +0.151 HD
ATOM      9  H   UNL     1      -8.300  -3.952   0.182  0.00  0.00    +0.153 HD
ENDROOT
BRANCH   2  10
ATOM     10  C   UNL     1      -3.671  -4.096  -2.062  0.00  0.00    +0.127 A 
ATOM     11  C   UNL     1      -2.517  -4.771  -2.226  0.00  0.00    +0.047 A 
ATOM     12  C   UNL     1      -1.620  -3.902  -2.879  0.00  0.00    +0.050 A 
ATOM     13  C   UNL     1      -2.283  -2.732  -3.079  0.00  0.00    +0.137 A 
ATOM     14  O   UNL     1      -3.528  -2.866  -2.583  0.00  0.00    -0.458 OA
BRANCH  13  15
ATOM     15  C   UNL     1      -1.734  -1.525  -3.731  0.00  0.00    +0.047 A 
ATOM     16  C   UNL     1      -0.499  -1.012  -3.333  0.00  0.00    +0.014 A 
ATOM     17  C   UNL     1       0.007   0.115  -3.946  0.00  0.00    +0.001 A 
ATOM     18  C   UNL     1      -0.707   0.738  -4.954  0.00  0.00    +0.002 A 
ATOM     19  C   UNL     1      -1.932   0.235  -5.354  0.00  0.00    +0.033 A 
ATOM     20  C   UNL     1      -2.447  -0.895  -4.753  0.00  0.00    +0.137 A 
BRANCH  20  21
ATOM     21  N   UNL     1      -3.755  -1.436  -5.187  0.00  0.00    +0.057 N 
ATOM     22  O   UNL     1      -4.371  -0.890  -6.072  0.00  0.00    -0.126 OA
ATOM     23  O   UNL     1      -4.207  -2.424  -4.656  0.00  0.00    -0.126 OA
ENDBRANCH  20  21
ENDBRANCH  13  15
ENDBRANCH   2  10
BRANCH   7  24
ATOM     24  C   UNL     1      -6.487  -3.981   2.042  0.00  0.00    +0.436 C 
ATOM     25  F   UNL     1      -6.477  -2.585   1.955  0.00  0.00    -0.166 F 
ATOM     26  F   UNL     1      -7.698  -4.405   2.599  0.00  0.00    -0.166 F 
ATOM     27  F   UNL     1      -5.427  -4.405   2.852  0.00  0.00    -0.166 F 
ENDBRANCH   7  24
BRANCH   1  28
ATOM     28  C   UNL     1      -4.945  -2.610   0.034  0.00  0.00    +0.173 C 
ATOM     29  O   UNL     1      -5.971  -1.964   0.043  0.00  0.00    -0.292 OA
BRANCH  28  33
ATOM     30  C   UNL     1      -1.198  -0.636   0.010  0.00  0.00    +0.120 A 
ATOM     31  C   UNL     1      -2.373   0.108   0.019  0.00  0.00    +0.046 A 
ATOM     32  C   UNL     1      -3.589  -0.527   0.027  0.00  0.00    +0.015 A 
ATOM     33  C   UNL     1      -3.646  -1.926   0.026  0.00  0.00    +0.018 A 
ATOM     34  C   UNL     1      -2.460  -2.670   0.016  0.00  0.00    +0.015 A 
ATOM     35  C   UNL     1      -1.249  -2.026   0.003  0.00  0.00    +0.046 A 
BRANCH  30  37
ATOM     36  C   UNL     1      -0.017   1.425   0.010  0.00  0.00    +0.277 C 
ATOM     37  O   UNL     1       0.002  -0.004   0.002  0.00  0.00    -0.495 OA
ENDBRANCH  30  37
ENDBRANCH  28  33
ENDBRANCH   1  28
BRANCH   7  38
ATOM     38  O   UNL     1      -6.343  -6.007   0.729  0.00  0.00    -0.364 OA
ATOM     39  H   UNL     1      -7.155  -6.371   1.108  0.00  0.00    +0.212 HD
ENDBRANCH   7  38
TORSDOF 8
