REMARK  Name = ZINC38684560
REMARK  14 active torsions:
REMARK  status: ('A' for Active; 'I' for Inactive)
REMARK    1  A    between atoms: C_1  and  C_2
REMARK    2  A    between atoms: C_2  and  C_3
REMARK    3  A    between atoms: C_3  and  C_4
REMARK    4  A    between atoms: C_4  and  O_5
REMARK    5  A    between atoms: O_5  and  C_6
REMARK    6  A    between atoms: C_9  and  C_12
REMARK    7  A    between atoms: C_12  and  O_14
REMARK    8  A    between atoms: O_14  and  C_15
REMARK    9  A    between atoms: C_22  and  N_38
REMARK   10  A    between atoms: C_23  and  C_36
REMARK   11  A    between atoms: C_24  and  C_26
REMARK   12  A    between atoms: C_30  and  O_32
REMARK   13  A    between atoms: O_32  and  C_33
REMARK   14  A    between atoms: C_33  and  C_34
REMARK                            x       y       z     vdW  Elec       q    Type
REMARK                         _______ _______ _______ _____ _____    ______ ____
ROOT
ATOM      1  C   UNL     1       2.473  -9.892  -4.247  0.00  0.00    +0.135 A 
ATOM      2  C   UNL     1       1.829 -10.628  -3.262  0.00  0.00    +0.047 A 
ATOM      3  C   UNL     1       1.834 -12.007  -3.317  0.00  0.00    +0.012 A 
ATOM      4  C   UNL     1       2.480 -12.662  -4.351  0.00  0.00    +0.008 A 
ATOM      5  C   UNL     1       3.125 -11.932  -5.337  0.00  0.00    +0.138 A 
ATOM      6  C   UNL     1       3.116 -10.544  -5.286  0.00  0.00    +0.093 A 
ATOM      7  O   UNL     1       3.763 -12.556  -6.358  0.00  0.00    -0.441 OA
ATOM      8  C   UNL     1       4.114 -13.847  -6.241  0.00  0.00    +0.199 C 
ATOM      9  C   UNL     1       3.541 -14.665  -5.327  0.00  0.00    +0.098 C 
ATOM     10  C   UNL     1       2.474 -14.167  -4.392  0.00  0.00    +0.098 C 
ENDROOT
BRANCH  10  11
ATOM     11  C   UNL     1       1.128 -14.648  -4.869  0.00  0.00    -0.031 A 
ATOM     12  C   UNL     1       0.666 -14.280  -6.119  0.00  0.00    +0.005 A 
ATOM     13  C   UNL     1      -0.569 -14.719  -6.560  0.00  0.00    +0.004 A 
ATOM     14  C   UNL     1      -1.344 -15.527  -5.751  0.00  0.00    +0.045 A 
ATOM     15  C   UNL     1      -0.883 -15.898  -4.497  0.00  0.00    +0.121 A 
ATOM     16  C   UNL     1       0.359 -15.461  -4.059  0.00  0.00    +0.050 A 
BRANCH  15  17
ATOM     17  O   UNL     1      -1.644 -16.693  -3.699  0.00  0.00    -0.488 OA
BRANCH  17  18
ATOM     18  C   UNL     1      -2.909 -17.110  -4.217  0.00  0.00    +0.256 C 
BRANCH  18  19
ATOM     19  C   UNL     1      -3.606 -17.978  -3.201  0.00  0.00    +0.006 C 
ATOM     20  C   UNL     1      -4.876 -17.790  -2.940  0.00  0.00    +0.007 C 
ENDBRANCH  18  19
ENDBRANCH  17  18
ENDBRANCH  15  17
ENDBRANCH  10  11
BRANCH   8  21
ATOM     21  N   UNL     1       5.083 -14.352  -7.072  0.00  0.00    -0.328 N 
ATOM     22  H   UNL     1       5.503 -13.778  -7.731  0.00  0.00    +0.145 HD
ATOM     23  H   UNL     1       5.347 -15.282  -6.999  0.00  0.00    +0.145 HD
ENDBRANCH   8  21
BRANCH   9  24
ATOM     24  C   UNL     1       3.959 -16.032  -5.249  0.00  0.00    +0.101 C 
ATOM     25  N   UNL     1       4.290 -17.117  -5.188  0.00  0.00    -0.191 NA
ENDBRANCH   9  24
BRANCH   1  26
ATOM     26  O   UNL     1       2.469  -8.534  -4.195  0.00  0.00    -0.422 OA
BRANCH  26  27
ATOM     27  C   UNL     1       1.630  -7.872  -5.016  0.00  0.00    +0.344 C 
ATOM     28  O   UNL     1       0.974  -8.484  -5.836  0.00  0.00    -0.245 OA
BRANCH  27  32
ATOM     29  C   UNL     1       1.282  -3.650  -4.742  0.00  0.00    +0.121 A 
ATOM     30  C   UNL     1       0.530  -4.348  -5.680  0.00  0.00    +0.046 A 
ATOM     31  C   UNL     1       0.640  -5.717  -5.773  0.00  0.00    +0.018 A 
ATOM     32  C   UNL     1       1.510  -6.406  -4.921  0.00  0.00    +0.060 A 
ATOM     33  C   UNL     1       2.264  -5.700  -3.979  0.00  0.00    +0.018 A 
ATOM     34  C   UNL     1       2.152  -4.330  -3.897  0.00  0.00    +0.046 A 
BRANCH  29  35
ATOM     35  O   UNL     1       1.171  -2.300  -4.654  0.00  0.00    -0.492 OA
BRANCH  35  36
ATOM     36  C   UNL     1       0.259  -1.665  -5.552  0.00  0.00    +0.229 C 
BRANCH  36  37
ATOM     37  C   UNL     1       0.270  -0.155  -5.306  0.00  0.00    +0.041 C 
BRANCH  37  39
ATOM     38  C   UNL     1      -0.696   2.036  -6.021  0.00  0.00    +0.004 C 
ATOM     39  C   UNL     1      -0.707   0.526  -6.267  0.00  0.00    -0.000 C 
ENDBRANCH  37  39
ENDBRANCH  36  37
ENDBRANCH  35  36
ENDBRANCH  29  35
ENDBRANCH  27  32
ENDBRANCH  26  27
ENDBRANCH   1  26
TORSDOF 13
