REMARK  Name = ZINC21256357
REMARK  10 active torsions:
REMARK  status: ('A' for Active; 'I' for Inactive)
REMARK    1  A    between atoms: C_1  and  O_2
REMARK    2  A    between atoms: O_2  and  C_3
REMARK    3  A    between atoms: C_7  and  C_9
REMARK    4  A    between atoms: C_14  and  C_24
REMARK    5  A    between atoms: C_27  and  O_34
REMARK    6  A    between atoms: C_28  and  O_32
REMARK    7  A    between atoms: C_29  and  O_30
REMARK    8  A    between atoms: O_30  and  C_31
REMARK    9  A    between atoms: O_32  and  C_33
REMARK   10  A    between atoms: O_34  and  C_35
REMARK                            x       y       z     vdW  Elec       q    Type
REMARK                         _______ _______ _______ _____ _____    ______ ____
ROOT
ATOM      1  C   UNL     1       0.218   5.453   1.129  0.00  0.00    +0.032 C 
ATOM      2  C   UNL     1       0.968   6.234   2.208  0.00  0.00    +0.059 C 
ATOM      3  C   UNL     1       0.889   7.723   1.916  0.00  0.00    +0.017 C 
ATOM      4  C   UNL     1       0.854   8.167   0.649  0.00  0.00    +0.037 C 
ATOM      5  C   UNL     1       0.812   9.614   0.217  0.00  0.00    +0.140 C 
ATOM      6  N   UNL     1       0.544  10.550   1.288  0.00  0.00    -0.331 N 
ATOM      7  C   UNL     1       1.441  10.716   2.342  0.00  0.00    +0.049 A 
ATOM      8  C   UNL     1       2.110  11.912   2.542  0.00  0.00    +0.025 A 
ATOM      9  C   UNL     1       3.025  12.015   3.576  0.00  0.00    +0.002 A 
ATOM     10  C   UNL     1       3.273  10.934   4.402  0.00  0.00    +0.002 A 
ATOM     11  C   UNL     1       2.594   9.742   4.215  0.00  0.00    +0.025 A 
ATOM     12  C   UNL     1       1.664   9.645   3.194  0.00  0.00    +0.052 A 
ATOM     13  N   UNL     1       0.872   8.515   3.018  0.00  0.00    -0.316 N 
ATOM     14  C   UNL     1       0.857   7.250  -0.428  0.00  0.00    +0.163 C 
ATOM     15  O   UNL     1       0.844   7.681  -1.565  0.00  0.00    -0.292 OA
ATOM     16  C   UNL     1       0.877   5.766  -0.219  0.00  0.00    +0.088 C 
ATOM     17  H   UNL     1      -0.380  11.147   1.279  0.00  0.00    +0.147 HD
ATOM     18  H   UNL     1       0.197   8.280   3.854  0.00  0.00    +0.152 HD
ENDROOT
BRANCH   1  23
ATOM     19  C   UNL     1      -0.758   1.875   1.854  0.00  0.00    +0.120 A 
ATOM     20  C   UNL     1       0.485   1.262   1.931  0.00  0.00    +0.045 A 
ATOM     21  C   UNL     1       1.633   2.006   1.743  0.00  0.00    +0.004 A 
ATOM     22  C   UNL     1       1.546   3.361   1.484  0.00  0.00    +0.004 A 
ATOM     23  C   UNL     1       0.309   3.975   1.412  0.00  0.00    -0.040 A 
ATOM     24  C   UNL     1      -0.842   3.236   1.599  0.00  0.00    +0.049 A 
BRANCH  19  26
ATOM     25  C   UNL     1      -1.726  -0.251   2.298  0.00  0.00    +0.277 C 
ATOM     26  O   UNL     1      -1.889   1.144   2.033  0.00  0.00    -0.495 OA
ENDBRANCH  19  26
ENDBRANCH   1  23
BRANCH   5  27
ATOM     27  C   UNL     1       2.139   9.966  -0.405  0.00  0.00    +0.023 A 
ATOM     28  C   UNL     1       3.241   9.160  -0.182  0.00  0.00    +0.013 A 
ATOM     29  C   UNL     1       4.459   9.476  -0.754  0.00  0.00    +0.050 A 
ATOM     30  C   UNL     1       4.583  10.608  -1.545  0.00  0.00    +0.165 A 
ATOM     31  C   UNL     1       3.480  11.423  -1.767  0.00  0.00    +0.204 A 
ATOM     32  C   UNL     1       2.255  11.099  -1.194  0.00  0.00    +0.170 A 
BRANCH  32  33
ATOM     33  O   UNL     1       1.172  11.894  -1.408  0.00  0.00    -0.491 OA
ATOM     34  C   UNL     1       0.420  11.659  -2.600  0.00  0.00    +0.277 C 
ENDBRANCH  32  33
BRANCH  31  35
ATOM     35  O   UNL     1       3.598  12.535  -2.542  0.00  0.00    -0.488 OA
ATOM     36  C   UNL     1       3.971  13.748  -1.884  0.00  0.00    +0.277 C 
ENDBRANCH  31  35
BRANCH  30  37
ATOM     37  O   UNL     1       5.783  10.921  -2.103  0.00  0.00    -0.491 OA
ATOM     38  C   UNL     1       6.874  10.038  -1.833  0.00  0.00    +0.277 C 
ENDBRANCH  30  37
ENDBRANCH   5  27
TORSDOF 6
