REMARK  Name = ZINC32779801
REMARK  9 active torsions:
REMARK  status: ('A' for Active; 'I' for Inactive)
REMARK    1  A    between atoms: C_1  and  N_2
REMARK    2  A    between atoms: N_2  and  C_3
REMARK    3  A    between atoms: N_2  and  C_4
REMARK    4  A    between atoms: C_4  and  C_10
REMARK    5  A    between atoms: C_10  and  N_11
REMARK    6  A    between atoms: C_12  and  C_14
REMARK    7  A    between atoms: C_18  and  S_20
REMARK    8  A    between atoms: S_20  and  N_23
REMARK    9  A    between atoms: N_23  and  C_24
REMARK                            x       y       z     vdW  Elec       q    Type
REMARK                         _______ _______ _______ _____ _____    ______ ____
ROOT
ATOM      1  C   UNL     1      -2.187   3.245  -2.963  0.00  0.00    +0.039 A 
ATOM      2  C   UNL     1      -1.726   4.045  -1.916  0.00  0.00    +0.013 A 
ATOM      3  C   UNL     1      -1.662   5.414  -2.075  0.00  0.00    +0.003 A 
ATOM      4  C   UNL     1      -2.065   5.995  -3.264  0.00  0.00    +0.028 A 
ATOM      5  C   UNL     1      -2.529   5.209  -4.303  0.00  0.00    +0.106 A 
ATOM      6  C   UNL     1      -2.592   3.838  -4.160  0.00  0.00    +0.041 A 
ENDROOT
BRANCH   1   8
ATOM      7  N   UNL     1      -1.862   1.207  -1.646  0.00  0.00    -0.313 N 
ATOM      8  C   UNL     1      -2.253   1.777  -2.803  0.00  0.00    +0.244 C 
ATOM      9  O   UNL     1      -2.660   1.084  -3.715  0.00  0.00    -0.270 OA
ATOM     10  H   UNL     1      -1.493   1.835  -0.821  0.00  0.00    +0.149 HD
BRANCH   7  11
ATOM     11  C   UNL     1      -1.927  -0.248  -1.487  0.00  0.00    +0.092 C 
BRANCH  11  12
ATOM     12  C   UNL     1      -1.355  -0.638  -0.122  0.00  0.00    -0.050 C 
ATOM     13  C   UNL     1      -2.249  -0.076   0.985  0.00  0.00    -0.010 C 
ATOM     14  C   UNL     1      -3.661  -0.650   0.840  0.00  0.00    -0.001 C 
ATOM     15  C   UNL     1      -3.606  -2.175   0.953  0.00  0.00    -0.000 C 
ATOM     16  C   UNL     1      -2.711  -2.736  -0.154  0.00  0.00    -0.001 C 
ATOM     17  C   UNL     1      -1.300  -2.163  -0.010  0.00  0.00    -0.010 C 
BRANCH  12  19
ATOM     18  C   UNL     1       0.560  -0.394   1.339  0.00  0.00    -0.096 C 
ATOM     19  N   UNL     1      -0.000  -0.087   0.016  0.00  0.00    +0.381 N 
ATOM     20  C   UNL     1       0.879  -0.576  -1.054  0.00  0.00    -0.096 C 
ATOM     21  H   UNL     1      -0.069   1.007  -0.076  0.00  0.00    -0.082 HD
ENDBRANCH  12  19
ENDBRANCH  11  12
ENDBRANCH   7  11
ENDBRANCH   1   8
BRANCH   5  22
ATOM     22  S   UNL     1      -3.039   5.960  -5.813  0.00  0.00    +0.059 S 
ATOM     23  O   UNL     1      -2.370   7.211  -5.891  0.00  0.00    -0.153 OA
ATOM     24  O   UNL     1      -2.917   4.967  -6.822  0.00  0.00    -0.153 OA
BRANCH  22  25
ATOM     25  N   UNL     1      -4.654   6.295  -5.672  0.00  0.00    -0.187 NA
ATOM     26  H   UNL     1      -5.383   5.665  -6.203  0.00  0.00    +0.148 HD
BRANCH  25  27
ATOM     27  C   UNL     1      -5.116   7.274  -4.684  0.00  0.00    +0.077 C 
ATOM     28  C   UNL     1      -5.600   6.552  -3.410  0.00  0.00    +0.020 C 
ATOM     29  C   UNL     1      -6.820   7.384  -2.942  0.00  0.00    +0.002 C 
ATOM     30  C   UNL     1      -7.501   7.773  -4.278  0.00  0.00    +0.002 C 
ATOM     31  C   UNL     1      -6.324   8.051  -5.236  0.00  0.00    +0.020 C 
ENDBRANCH  25  27
ENDBRANCH  22  25
ENDBRANCH   5  22
TORSDOF 7
