REMARK  Name = ZINC35129724
REMARK  9 active torsions:
REMARK  status: ('A' for Active; 'I' for Inactive)
REMARK    1  A    between atoms: C_1  and  C_2
REMARK    2  A    between atoms: C_2  and  N_3
REMARK    3  A    between atoms: N_3  and  C_4
REMARK    4  A    between atoms: C_4  and  C_5
REMARK    5  A    between atoms: N_7  and  C_8
REMARK    6  A    between atoms: C_10  and  C_19
REMARK    7  A    between atoms: N_12  and  C_13
REMARK    8  A    between atoms: N_27  and  C_28
REMARK    9  A    between atoms: C_33  and  C_34
REMARK                            x       y       z     vdW  Elec       q    Type
REMARK                         _______ _______ _______ _____ _____    ______ ____
ROOT
ATOM      1  C   UNL     1       2.425  -2.099  -0.763  0.00  0.00    +0.236 C 
ATOM      2  O   UNL     1       1.509  -2.850  -0.503  0.00  0.00    -0.274 OA
ATOM      3  N   UNL     1       3.698  -2.530  -0.672  0.00  0.00    -0.269 N 
ATOM      4  H   UNL     1       4.430  -1.929  -0.880  0.00  0.00    +0.156 HD
ENDROOT
BRANCH   3   5
ATOM      5  C   UNL     1       3.963  -3.842  -0.279  0.00  0.00    +0.129 A 
ATOM      6  C   UNL     1       3.039  -4.787   0.034  0.00  0.00    +0.074 A 
ATOM      7  C   UNL     1       3.728  -5.967   0.374  0.00  0.00    +0.095 A 
ATOM      8  N   UNL     1       5.019  -5.734   0.268  0.00  0.00    -0.165 NA
ATOM      9  N   UNL     1       5.195  -4.408  -0.146  0.00  0.00    -0.218 N 
BRANCH   9  10
ATOM     10  C   UNL     1       6.422  -3.773  -0.380  0.00  0.00    +0.067 A 
ATOM     11  C   UNL     1       6.535  -2.826  -1.389  0.00  0.00    +0.028 A 
ATOM     12  C   UNL     1       7.746  -2.203  -1.616  0.00  0.00    +0.002 A 
ATOM     13  C   UNL     1       8.845  -2.521  -0.841  0.00  0.00    +0.000 A 
ATOM     14  C   UNL     1       8.736  -3.464   0.165  0.00  0.00    +0.002 A 
ATOM     15  C   UNL     1       7.527  -4.086   0.401  0.00  0.00    +0.028 A 
ENDBRANCH   9  10
BRANCH   7  16
ATOM     16  C   UNL     1       3.106  -7.251   0.782  0.00  0.00    +0.002 A 
ATOM     17  C   UNL     1       1.719  -7.366   0.850  0.00  0.00    +0.010 A 
ATOM     18  C   UNL     1       1.146  -8.562   1.230  0.00  0.00    +0.001 A 
ATOM     19  C   UNL     1       1.946  -9.646   1.544  0.00  0.00    +0.000 A 
ATOM     20  C   UNL     1       3.323  -9.538   1.479  0.00  0.00    +0.001 A 
ATOM     21  C   UNL     1       3.907  -8.348   1.094  0.00  0.00    +0.010 A 
ENDBRANCH   7  16
ENDBRANCH   3   5
BRANCH   1  22
ATOM     22  C   UNL     1       2.138  -0.681  -1.187  0.00  0.00    +0.205 C 
BRANCH  22  23
ATOM     23  N   UNL     1       0.690  -0.461  -1.208  0.00  0.00    -0.277 N 
ATOM     24  C   UNL     1      -0.012  -0.701  -2.333  0.00  0.00    +0.307 C 
ATOM     25  O   UNL     1       0.556  -1.100  -3.330  0.00  0.00    -0.252 OA
ATOM     26  N   UNL     1      -1.345  -0.498  -2.351  0.00  0.00    -0.269 N 
ATOM     27  H   UNL     1      -1.810  -0.258  -1.535  0.00  0.00    +0.156 HD
BRANCH  26  28
ATOM     28  C   UNL     1      -2.056  -0.633  -3.549  0.00  0.00    +0.046 A 
ATOM     29  C   UNL     1      -1.409  -0.463  -4.766  0.00  0.00    +0.024 A 
ATOM     30  C   UNL     1      -2.114  -0.598  -5.946  0.00  0.00    +0.002 A 
ATOM     31  C   UNL     1      -3.463  -0.901  -5.916  0.00  0.00    +0.001 A 
ATOM     32  C   UNL     1      -4.110  -1.071  -4.706  0.00  0.00    +0.014 A 
ATOM     33  C   UNL     1      -3.409  -0.944  -3.522  0.00  0.00    +0.076 A 
BRANCH  33  34
ATOM     34  C   UNL     1      -4.114  -1.135  -2.204  0.00  0.00    +0.419 C 
ATOM     35  F   UNL     1      -5.460  -1.439  -2.435  0.00  0.00    -0.166 F 
ATOM     36  F   UNL     1      -3.513  -2.186  -1.502  0.00  0.00    -0.166 F 
ATOM     37  F   UNL     1      -4.023   0.041  -1.452  0.00  0.00    -0.166 F 
ENDBRANCH  33  34
ENDBRANCH  26  28
BRANCH  23  39
ATOM     38  C   UNL     1      -0.020   1.550  -0.010  0.00  0.00    +0.024 C 
ATOM     39  C   UNL     1       0.005   0.021  -0.005  0.00  0.00    +0.106 C 
ENDBRANCH  23  39
ENDBRANCH  22  23
ENDBRANCH   1  22
TORSDOF 8
