REMARK  Name = ZINC39637518
REMARK  7 active torsions:
REMARK  status: ('A' for Active; 'I' for Inactive)
REMARK    1  A    between atoms: C_1  and  C_2
REMARK    2  A    between atoms: C_5  and  C_12
REMARK    3  A    between atoms: N_9  and  C_11
REMARK    4  A    between atoms: C_16  and  C_25
REMARK    5  A    between atoms: N_27  and  C_28
REMARK    6  A    between atoms: C_33  and  C_38
REMARK    7  A    between atoms: C_35  and  C_37
REMARK                            x       y       z     vdW  Elec       q    Type
REMARK                         _______ _______ _______ _____ _____    ______ ____
ROOT
ATOM      1  C   UNL     1      -0.102  -1.393  -5.144  0.00  0.00    +0.250 C 
ATOM      2  O   UNL     1      -0.233  -0.321  -5.702  0.00  0.00    -0.270 OA
ATOM      3  N   UNL     1       0.048  -2.517  -5.872  0.00  0.00    -0.296 N 
ATOM      4  C   UNL     1       0.114  -3.914  -5.382  0.00  0.00    +0.121 C 
ATOM      5  C   UNL     1      -0.686  -4.731  -6.421  0.00  0.00    +0.100 C 
ATOM      6  C   UNL     1      -0.636  -3.888  -7.706  0.00  0.00    -0.004 C 
ATOM      7  C   UNL     1       0.177  -2.636  -7.344  0.00  0.00    +0.115 C 
ATOM      8  C   UNL     1      -2.046  -3.489  -8.132  0.00  0.00    -0.010 C 
ATOM      9  C   UNL     1      -1.974  -2.699  -9.443  0.00  0.00    -0.082 C 
ATOM     10  N   UNL     1      -1.343  -3.526 -10.479  0.00  0.00    +0.379 N 
ATOM     11  C   UNL     1       0.043  -3.828 -10.104  0.00  0.00    -0.082 C 
ATOM     12  C   UNL     1       0.057  -4.664  -8.822  0.00  0.00    -0.010 C 
ATOM     13  H   UNL     1      -1.858  -4.387 -10.580  0.00  0.00    -0.086 HD
ATOM     14  H   UNL     1      -1.352  -3.027 -11.356  0.00  0.00    -0.086 HD
ENDROOT
BRANCH   1  19
ATOM     15  C   UNL     1      -2.569   1.082  -0.575  0.00  0.00    +0.068 C 
ATOM     16  C   UNL     1      -1.563  -0.031  -0.437  0.00  0.00    +0.071 A 
ATOM     17  C   UNL     1      -0.884  -0.721  -1.530  0.00  0.00    +0.060 A 
ATOM     18  C   UNL     1      -0.921  -0.608  -2.923  0.00  0.00    +0.067 A 
ATOM     19  C   UNL     1      -0.107  -1.464  -3.670  0.00  0.00    +0.074 A 
ATOM     20  C   UNL     1       0.705  -2.390  -3.001  0.00  0.00    +0.127 A 
ATOM     21  N   UNL     1       0.715  -2.470  -1.691  0.00  0.00    -0.235 NA
ATOM     22  C   UNL     1      -0.040  -1.679  -0.934  0.00  0.00    +0.160 A 
ATOM     23  N   UNL     1      -0.210  -1.562   0.417  0.00  0.00    -0.249 N 
ATOM     24  N   UNL     1      -1.137  -0.549   0.679  0.00  0.00    -0.174 NA
ATOM     25  C   UNL     1       0.475  -2.368   1.431  0.00  0.00    +0.174 C 
ATOM     26 CL   UNL     1      -1.945   0.558  -3.701  0.00  0.00    -0.082 Cl
ENDBRANCH   1  19
BRANCH   5  27
ATOM     27  C   UNL     1      -2.111  -4.909  -5.963  0.00  0.00    +0.218 C 
ATOM     28  O   UNL     1      -2.635  -4.064  -5.269  0.00  0.00    -0.275 OA
ATOM     29  N   UNL     1      -2.803  -6.008  -6.325  0.00  0.00    -0.312 N 
ATOM     30  H   UNL     1      -2.384  -6.684  -6.881  0.00  0.00    +0.149 HD
BRANCH  29  31
ATOM     31  C   UNL     1      -4.188  -6.181  -5.880  0.00  0.00    +0.076 C 
ATOM     32  C   UNL     1      -4.200  -6.812  -4.487  0.00  0.00    +0.022 C 
ATOM     33  C   UNL     1      -5.647  -6.993  -4.022  0.00  0.00    +0.002 C 
ATOM     34  C   UNL     1      -6.387  -7.906  -5.001  0.00  0.00    +0.003 C 
ATOM     35  C   UNL     1      -6.374  -7.275  -6.395  0.00  0.00    -0.009 C 
ATOM     36  C   UNL     1      -4.928  -7.094  -6.860  0.00  0.00    +0.009 C 
ATOM     37  C   UNL     1      -4.234  -8.457  -6.911  0.00  0.00    +0.009 C 
ATOM     38  C   UNL     1      -7.114  -8.188  -7.375  0.00  0.00    +0.008 C 
ENDBRANCH  29  31
ENDBRANCH   5  27
TORSDOF 3
