REMARK  Name = ZINC62848989
REMARK  6 active torsions:
REMARK  status: ('A' for Active; 'I' for Inactive)
REMARK    1  A    between atoms: C_1  and  C_2
REMARK    2  A    between atoms: C_2  and  C_3
REMARK    3  A    between atoms: C_3  and  C_9
REMARK    4  A    between atoms: C_14  and  N_17
REMARK    5  A    between atoms: N_17  and  S_18
REMARK    6  A    between atoms: S_18  and  C_21
REMARK                            x       y       z     vdW  Elec       q    Type
REMARK                         _______ _______ _______ _____ _____    ______ ____
ROOT
ATOM      1  C   UNL     1      -2.282   0.053   1.247  0.00  0.00    +0.222 C 
ATOM      2  O   UNL     1      -2.635  -0.730   2.103  0.00  0.00    -0.275 OA
ATOM      3  N   UNL     1      -2.615   1.355   1.347  0.00  0.00    -0.301 N 
ATOM      4  C   UNL     1      -2.109   2.334   0.375  0.00  0.00    +0.109 C 
ATOM      5  C   UNL     1      -1.428   3.477   1.135  0.00  0.00    +0.039 C 
ATOM      6  C   UNL     1      -2.405   4.056   2.160  0.00  0.00    +0.079 C 
ATOM      7  C   UNL     1      -2.795   2.971   3.167  0.00  0.00    +0.039 C 
ATOM      8  C   UNL     1      -3.496   1.822   2.426  0.00  0.00    +0.109 C 
ENDROOT
BRANCH   1   9
ATOM      9  C   UNL     1      -1.472  -0.429   0.071  0.00  0.00    +0.044 C 
ATOM     10  C   UNL     1      -1.364  -1.956   0.114  0.00  0.00    -0.003 C 
ATOM     11  C   UNL     1      -0.611  -2.373   1.379  0.00  0.00    -0.082 C 
ATOM     12  N   UNL     1       0.734  -1.786   1.368  0.00  0.00    +0.379 N 
ATOM     13  C   UNL     1       0.638  -0.322   1.400  0.00  0.00    -0.082 C 
ATOM     14  C   UNL     1      -0.066   0.175   0.136  0.00  0.00    -0.003 C 
ATOM     15  H   UNL     1       1.246  -2.106   2.177  0.00  0.00    -0.086 HD
ATOM     16  H   UNL     1       1.219  -2.072   0.531  0.00  0.00    -0.086 HD
BRANCH   9  18
ATOM     17  C   UNL     1      -3.599  -0.502  -1.238  0.00  0.00    +0.005 C 
ATOM     18  C   UNL     1      -2.154  -0.001  -1.230  0.00  0.00    +0.012 C 
ENDBRANCH   9  18
ENDBRANCH   1   9
BRANCH   6  19
ATOM     19  N   UNL     1      -1.768   5.171   2.866  0.00  0.00    -0.192 NA
ATOM     20  H   UNL     1      -0.819   5.142   3.060  0.00  0.00    +0.148 HD
BRANCH  19  21
ATOM     21  S   UNL     1      -2.670   6.479   3.332  0.00  0.00    +0.027 S 
ATOM     22  O   UNL     1      -1.741   7.357   3.954  0.00  0.00    -0.158 OA
ATOM     23  O   UNL     1      -3.368   6.875   2.159  0.00  0.00    -0.158 OA
ATOM     24  C   UNL     1      -3.835   5.829   4.562  0.00  0.00    +0.214 C 
ENDBRANCH  19  21
ENDBRANCH   6  19
TORSDOF 4
