REMARK  Name = ZINC19772418
REMARK  8 active torsions:
REMARK  status: ('A' for Active; 'I' for Inactive)
REMARK    1  A    between atoms: C_1  and  C_2
REMARK    2  A    between atoms: C_3  and  C_26
REMARK    3  A    between atoms: C_4  and  C_16
REMARK    4  A    between atoms: C_10  and  C_14
REMARK    5  A    between atoms: C_10  and  C_15
REMARK    6  A    between atoms: C_18  and  N_23
REMARK    7  A    between atoms: C_26  and  O_28
REMARK    8  A    between atoms: O_28  and  C_29
REMARK                            x       y       z     vdW  Elec       q    Type
REMARK                         _______ _______ _______ _____ _____    ______ ____
ROOT
ATOM      1  C   UNL     1      -0.021   1.051   0.017  0.00  0.00    +0.061 C 
ATOM      2  C   UNL     1      -0.722   1.555   1.252  0.00  0.00    +0.016 C 
ATOM      3  C   UNL     1      -0.034   1.701   2.398  0.00  0.00    +0.065 C 
ATOM      4  C   UNL     1      -0.697   2.208   3.645  0.00  0.00    +0.094 C 
ATOM      5  C   UNL     1      -2.197   2.093   3.545  0.00  0.00    +0.024 C 
ATOM      6  C   UNL     1      -2.798   1.935   2.347  0.00  0.00    +0.016 C 
ATOM      7  N   UNL     1      -2.052   1.867   1.199  0.00  0.00    -0.321 N 
ATOM      8  C   UNL     1      -4.299   1.831   2.238  0.00  0.00    +0.058 C 
ATOM      9  C   UNL     1      -4.863   1.182   3.504  0.00  0.00    -0.023 C 
ATOM     10  C   UNL     1      -4.448   2.031   4.711  0.00  0.00    +0.086 C 
ATOM     11  C   UNL     1      -2.949   2.153   4.731  0.00  0.00    +0.162 C 
ATOM     12  O   UNL     1      -2.378   2.307   5.793  0.00  0.00    -0.292 OA
ATOM     13  C   UNL     1      -4.298  -0.232   3.652  0.00  0.00    +0.011 C 
ATOM     14  C   UNL     1      -6.389   1.120   3.419  0.00  0.00    +0.011 C 
ATOM     15  H   UNL     1      -2.532   2.065   0.229  0.00  0.00    +0.152 HD
ENDROOT
BRANCH   4  16
ATOM     16  C   UNL     1      -0.324   3.654   3.851  0.00  0.00    -0.015 A 
ATOM     17  C   UNL     1      -0.646   4.594   2.891  0.00  0.00    +0.038 A 
ATOM     18  C   UNL     1      -0.305   5.920   3.080  0.00  0.00    +0.127 A 
ATOM     19  C   UNL     1       0.358   6.307   4.230  0.00  0.00    +0.034 A 
ATOM     20  C   UNL     1       0.681   5.367   5.191  0.00  0.00    +0.022 A 
ATOM     21  C   UNL     1       0.335   4.040   5.004  0.00  0.00    +0.045 A 
ATOM     22 CL   UNL     1       0.734   2.861   6.214  0.00  0.00    -0.083 Cl
BRANCH  18  23
ATOM     23  N   UNL     1      -0.650   6.927   2.051  0.00  0.00    +0.056 N 
ATOM     24  O   UNL     1      -1.234   6.587   1.038  0.00  0.00    -0.126 OA
ATOM     25  O   UNL     1      -0.349   8.095   2.218  0.00  0.00    -0.126 OA
ENDBRANCH  18  23
ENDBRANCH   4  16
BRANCH   3  26
ATOM     26  C   UNL     1       1.341   1.371   2.428  0.00  0.00    +0.337 C 
ATOM     27  O   UNL     1       1.915   1.061   1.401  0.00  0.00    -0.245 OA
BRANCH  26  28
ATOM     28  O   UNL     1       2.016   1.399   3.596  0.00  0.00    -0.465 OA
ATOM     29  C   UNL     1       3.402   1.054   3.553  0.00  0.00    +0.280 C 
ENDBRANCH  26  28
ENDBRANCH   3  26
TORSDOF 4
