REMARK  Name = ZINC63393625
REMARK  6 active torsions:
REMARK  status: ('A' for Active; 'I' for Inactive)
REMARK    1  A    between atoms: C_4  and  C_7
REMARK    2  A    between atoms: C_9  and  C_17
REMARK    3  A    between atoms: C_17  and  C_19
REMARK    4  A    between atoms: N_21  and  C_22
REMARK    5  A    between atoms: C_27  and  C_28
REMARK    6  A    between atoms: N_30  and  C_31
REMARK                            x       y       z     vdW  Elec       q    Type
REMARK                         _______ _______ _______ _____ _____    ______ ____
ROOT
ATOM      1  C   UNL     1       4.167  -0.392  -2.604  0.00  0.00    +0.247 C 
ATOM      2  O   UNL     1       3.969   0.808  -2.560  0.00  0.00    -0.282 OA
ENDROOT
BRANCH   1   4
ATOM      3  C   UNL     1       4.999  -1.426  -0.345  0.00  0.00    +0.144 C 
ATOM      4  C   UNL     1       3.991  -1.179  -1.446  0.00  0.00    +0.040 C 
ATOM      5  C   UNL     1       2.858  -1.889  -1.077  0.00  0.00    +0.007 A 
ATOM      6  C   UNL     1       1.592  -2.058  -1.679  0.00  0.00    +0.010 A 
ATOM      7  C   UNL     1       0.649  -2.825  -1.084  0.00  0.00    +0.001 A 
ATOM      8  C   UNL     1       0.873  -3.481   0.137  0.00  0.00    +0.002 A 
ATOM      9  C   UNL     1       2.049  -3.384   0.794  0.00  0.00    +0.026 A 
ATOM     10  C   UNL     1       3.128  -2.567   0.214  0.00  0.00    +0.044 A 
ATOM     11  N   UNL     1       4.338  -2.305   0.624  0.00  0.00    -0.373 N 
ATOM     12  H   UNL     1       4.737  -2.639   1.443  0.00  0.00    +0.161 HD
BRANCH   3  16
ATOM     13  C   UNL     1       6.077   2.265   1.514  0.00  0.00    +0.000 A 
ATOM     14  C   UNL     1       6.920   1.689   0.582  0.00  0.00    +0.000 A 
ATOM     15  C   UNL     1       6.571   0.495  -0.020  0.00  0.00    +0.006 A 
ATOM     16  C   UNL     1       5.380  -0.124   0.312  0.00  0.00    -0.021 A 
ATOM     17  C   UNL     1       4.538   0.451   1.245  0.00  0.00    +0.006 A 
ATOM     18  C   UNL     1       4.887   1.647   1.846  0.00  0.00    +0.000 A 
ENDBRANCH   3  16
ENDBRANCH   1   4
BRANCH   1  19
ATOM     19  C   UNL     1       4.594  -1.030  -3.880  0.00  0.00    +0.288 C 
ATOM     20  O   UNL     1       4.703  -2.237  -3.948  0.00  0.00    -0.266 OA
ATOM     21  N   UNL     1       4.860  -0.267  -4.958  0.00  0.00    -0.278 N 
ATOM     22  H   UNL     1       4.852   0.700  -4.883  0.00  0.00    +0.155 HD
BRANCH  21  23
ATOM     23  C   UNL     1       5.146  -0.867  -6.181  0.00  0.00    +0.046 A 
ATOM     24  C   UNL     1       4.673  -2.143  -6.460  0.00  0.00    +0.024 A 
ATOM     25  C   UNL     1       4.958  -2.736  -7.673  0.00  0.00    +0.002 A 
ATOM     26  C   UNL     1       5.716  -2.066  -8.621  0.00  0.00    +0.001 A 
ATOM     27  C   UNL     1       6.193  -0.799  -8.361  0.00  0.00    +0.015 A 
ATOM     28  C   UNL     1       5.908  -0.183  -7.140  0.00  0.00    +0.058 A 
BRANCH  28  29
ATOM     29  C   UNL     1       6.411   1.175  -6.859  0.00  0.00    +0.246 C 
ATOM     30  O   UNL     1       6.247   1.668  -5.759  0.00  0.00    -0.270 OA
ATOM     31  N   UNL     1       7.051   1.869  -7.820  0.00  0.00    -0.308 N 
ATOM     32  H   UNL     1       7.181   1.476  -8.697  0.00  0.00    +0.149 HD
BRANCH  31  33
ATOM     33  C   UNL     1       7.550   3.218  -7.541  0.00  0.00    +0.073 C 
ATOM     34  C   UNL     1       8.953   3.570  -8.040  0.00  0.00    +0.024 C 
ATOM     35  C   UNL     1       7.723   4.167  -8.728  0.00  0.00    +0.024 C 
ENDBRANCH  31  33
ENDBRANCH  28  29
ENDBRANCH  21  23
ENDBRANCH   1  19
TORSDOF 6
