REMARK  Name = ZINC32126848
REMARK  8 active torsions:
REMARK  status: ('A' for Active; 'I' for Inactive)
REMARK    1  A    between atoms: C_1  and  C_2
REMARK    2  A    between atoms: C_2  and  C_3
REMARK    3  A    between atoms: C_3  and  O_4
REMARK    4  A    between atoms: O_4  and  C_5
REMARK    5  A    between atoms: C_8  and  C_11
REMARK    6  A    between atoms: N_13  and  C_14
REMARK    7  A    between atoms: C_14  and  N_16
REMARK    8  A    between atoms: C_22  and  N_26
REMARK                            x       y       z     vdW  Elec       q    Type
REMARK                         _______ _______ _______ _____ _____    ______ ____
ROOT
ATOM      1  N   UNL     1       3.905  -7.700  -6.827  0.00  0.00    -0.276 N 
ATOM      2  C   UNL     1       4.523  -8.315  -7.904  0.00  0.00    +0.165 A 
ATOM      3  N   UNL     1       5.125  -7.764  -8.931  0.00  0.00    -0.225 NA
ATOM      4  C   UNL     1       5.690  -8.494  -9.919  0.00  0.00    +0.080 A 
ATOM      5  C   UNL     1       6.363  -8.028 -11.072  0.00  0.00    +0.031 A 
ATOM      6  C   UNL     1       6.879  -8.899 -11.980  0.00  0.00    +0.025 A 
ATOM      7  C   UNL     1       6.768 -10.278 -11.814  0.00  0.00    +0.031 A 
ATOM      8  C   UNL     1       6.114 -10.774 -10.694  0.00  0.00    +0.040 A 
ATOM      9  C   UNL     1       5.592  -9.897  -9.776  0.00  0.00    +0.043 A 
ATOM     10  S   UNL     1       4.710 -10.060  -8.242  0.00  0.00    -0.052 S 
ATOM     11  H   UNL     1       3.500  -8.238  -6.129  0.00  0.00    +0.156 HD
ENDROOT
BRANCH   7  12
ATOM     12  N   UNL     1       7.308 -11.152 -12.764  0.00  0.00    -0.325 N 
ATOM     13  C   UNL     1       7.302 -12.607 -12.545  0.00  0.00    +0.133 C 
ATOM     14  C   UNL     1       6.717 -13.281 -13.790  0.00  0.00    +0.178 C 
ATOM     15  O   UNL     1       7.415 -12.817 -14.949  0.00  0.00    -0.377 OA
ATOM     16  C   UNL     1       7.284 -11.413 -15.187  0.00  0.00    +0.178 C 
ATOM     17  C   UNL     1       7.894 -10.643 -14.015  0.00  0.00    +0.133 C 
ENDBRANCH   7  12
BRANCH   1  18
ATOM     18  C   UNL     1       3.867  -6.356  -6.750  0.00  0.00    +0.143 C 
ATOM     19  S   UNL     1       4.582  -5.407  -7.982  0.00  0.00    -0.018 S 
BRANCH  18  22
ATOM     20  C   UNL     1       3.228  -4.412  -5.625  0.00  0.00    +0.250 C 
ATOM     21  O   UNL     1       3.735  -3.739  -6.500  0.00  0.00    -0.270 OA
ATOM     22  N   UNL     1       3.266  -5.757  -5.702  0.00  0.00    -0.264 N 
ATOM     23  H   UNL     1       2.861  -6.295  -5.004  0.00  0.00    +0.157 HD
BRANCH  20  27
ATOM     24  C   UNL     1       1.333  -2.528  -2.325  0.00  0.00    +0.121 A 
ATOM     25  C   UNL     1       1.913  -1.756  -3.325  0.00  0.00    +0.046 A 
ATOM     26  C   UNL     1       2.529  -2.363  -4.397  0.00  0.00    +0.016 A 
ATOM     27  C   UNL     1       2.570  -3.758  -4.479  0.00  0.00    +0.037 A 
ATOM     28  C   UNL     1       1.985  -4.531  -3.471  0.00  0.00    +0.016 A 
ATOM     29  C   UNL     1       1.376  -3.916  -2.400  0.00  0.00    +0.046 A 
BRANCH  24  30
ATOM     30  O   UNL     1       0.727  -1.926  -1.271  0.00  0.00    -0.492 OA
BRANCH  30  31
ATOM     31  C   UNL     1       0.719  -0.497  -1.257  0.00  0.00    +0.229 C 
BRANCH  31  33
ATOM     32  C   UNL     1      -0.011   1.526   0.014  0.00  0.00    +0.007 C 
ATOM     33  C   UNL     1      -0.003  -0.004  -0.001  0.00  0.00    +0.038 C 
ENDBRANCH  31  33
ENDBRANCH  30  31
ENDBRANCH  24  30
ENDBRANCH  20  27
ENDBRANCH  18  22
ENDBRANCH   1  18
TORSDOF 7
