REMARK  Name = ZINC14978550
REMARK  13 active torsions:
REMARK  status: ('A' for Active; 'I' for Inactive)
REMARK    1  A    between atoms: C_1  and  O_2
REMARK    2  A    between atoms: O_2  and  C_3
REMARK    3  A    between atoms: C_7  and  O_9
REMARK    4  A    between atoms: O_9  and  C_10
REMARK    5  A    between atoms: C_10  and  C_11
REMARK    6  A    between atoms: C_11  and  C_13
REMARK    7  A    between atoms: C_11  and  O_34
REMARK    8  A    between atoms: C_13  and  N_14
REMARK    9  A    between atoms: C_15  and  C_21
REMARK   10  A    between atoms: C_21  and  C_22
REMARK   11  A    between atoms: C_22  and  N_61
REMARK   12  A    between atoms: C_23  and  C_24
REMARK   13  A    between atoms: C_23  and  N_61
REMARK                            x       y       z     vdW  Elec       q    Type
REMARK                         _______ _______ _______ _____ _____    ______ ____
ROOT
ATOM      1  N   UNL     1      -2.167   1.044  -1.175  0.00  0.00    -0.296 N 
ATOM      2  C   UNL     1      -0.892   1.764  -1.066  0.00  0.00    +0.075 C 
ATOM      3  C   UNL     1      -0.214   1.613  -2.445  0.00  0.00    +0.031 C 
ATOM      4  C   UNL     1      -1.431   1.395  -3.373  0.00  0.00    +0.098 C 
ATOM      5  C   UNL     1      -2.497   0.828  -2.460  0.00  0.00    +0.216 C 
ATOM      6  O   UNL     1      -3.502   0.262  -2.833  0.00  0.00    -0.276 OA
ENDROOT
BRANCH   1   7
ATOM      7  C   UNL     1      -2.975   0.617  -0.031  0.00  0.00    +0.142 C 
BRANCH   7   8
ATOM      8  C   UNL     1      -4.026   1.685   0.278  0.00  0.00    +0.169 C 
BRANCH   8   9
ATOM      9  O   UNL     1      -3.375   2.918   0.590  0.00  0.00    -0.387 OA
ATOM     10  H   UNL     1      -2.785   2.869   1.354  0.00  0.00    +0.210 HD
ENDBRANCH   8   9
BRANCH   8  11
ATOM     11  C   UNL     1      -4.871   1.238   1.473  0.00  0.00    +0.261 C 
BRANCH  11  12
ATOM     12  O   UNL     1      -5.925   2.178   1.689  0.00  0.00    -0.489 OA
BRANCH  12  17
ATOM     13  C   UNL     1      -8.682   2.542   4.041  0.00  0.00    +0.124 A 
ATOM     14  C   UNL     1      -8.498   1.412   4.826  0.00  0.00    +0.046 A 
ATOM     15  C   UNL     1      -7.457   0.545   4.558  0.00  0.00    +0.007 A 
ATOM     16  C   UNL     1      -6.595   0.800   3.509  0.00  0.00    +0.046 A 
ATOM     17  C   UNL     1      -6.774   1.928   2.721  0.00  0.00    +0.124 A 
ATOM     18  C   UNL     1      -7.815   2.802   2.991  0.00  0.00    +0.091 A 
BRANCH  13  20
ATOM     19  C   UNL     1     -10.556   3.066   5.406  0.00  0.00    +0.277 C 
ATOM     20  O   UNL     1      -9.706   3.394   4.305  0.00  0.00    -0.495 OA
ENDBRANCH  13  20
ENDBRANCH  12  17
ENDBRANCH  11  12
ENDBRANCH   8  11
ENDBRANCH   7   8
ENDBRANCH   1   7
BRANCH   2  21
ATOM     21  C   UNL     1      -0.021   1.135   0.024  0.00  0.00    +0.003 C 
BRANCH  21  22
ATOM     22  C   UNL     1       1.247   1.971   0.209  0.00  0.00    -0.080 C 
BRANCH  22  23
ATOM     23  N   UNL     1       2.022   1.430   1.341  0.00  0.00    +0.382 N 
ATOM     24  H   UNL     1       2.273   0.454   1.145  0.00  0.00    -0.085 HD
ATOM     25  H   UNL     1       1.450   1.472   2.193  0.00  0.00    -0.085 HD
BRANCH  23  26
ATOM     26  C   UNL     1       3.252   2.218   1.543  0.00  0.00    -0.045 C 
BRANCH  26  27
ATOM     27  C   UNL     1       4.022   1.644   2.704  0.00  0.00    -0.042 A 
ATOM     28  C   UNL     1       5.158   0.890   2.474  0.00  0.00    +0.052 A 
ATOM     29  C   UNL     1       5.870   0.365   3.540  0.00  0.00    +0.167 A 
ATOM     30  C   UNL     1       5.432   0.589   4.843  0.00  0.00    +0.168 A 
ATOM     31  C   UNL     1       4.291   1.340   5.067  0.00  0.00    +0.069 A 
ATOM     32  C   UNL     1       3.587   1.867   3.998  0.00  0.00    +0.046 A 
ATOM     33 CL   UNL     1       2.157   2.808   4.282  0.00  0.00    -0.083 Cl
ATOM     34  O   UNL     1       6.291  -0.032   5.704  0.00  0.00    -0.453 OA
ATOM     35  C   UNL     1       7.024  -0.976   4.902  0.00  0.00    +0.466 C 
ATOM     36  O   UNL     1       7.003  -0.396   3.584  0.00  0.00    -0.453 OA
ENDBRANCH  26  27
ENDBRANCH  23  26
ENDBRANCH  22  23
ENDBRANCH  21  22
ENDBRANCH   2  21
TORSDOF 12
