REMARK  Name = ZINC45342680
REMARK  7 active torsions:
REMARK  status: ('A' for Active; 'I' for Inactive)
REMARK    1  A    between atoms: C_1  and  C_2
REMARK    2  A    between atoms: C_2  and  C_4
REMARK    3  A    between atoms: C_2  and  O_15
REMARK    4  A    between atoms: N_6  and  C_7
REMARK    5  A    between atoms: O_15  and  C_16
REMARK    6  A    between atoms: C_16  and  C_18
REMARK    7  A    between atoms: C_22  and  N_27
REMARK                            x       y       z     vdW  Elec       q    Type
REMARK                         _______ _______ _______ _____ _____    ______ ____
ROOT
ATOM      1  O   UNL     1       0.683  -0.446  -1.173  0.00  0.00    -0.448 OA
ENDROOT
BRANCH   1   3
ATOM      2  C   UNL     1      -0.003   1.541   0.020  0.00  0.00    +0.062 C 
ATOM      3  C   UNL     1       0.012   0.011   0.003  0.00  0.00    +0.259 C 
BRANCH   3   4
ATOM      4  C   UNL     1       0.735  -0.498   1.224  0.00  0.00    +0.258 C 
ATOM      5  O   UNL     1       1.776  -1.107   1.101  0.00  0.00    -0.271 OA
ATOM      6  N   UNL     1       0.223  -0.277   2.451  0.00  0.00    -0.281 N 
ATOM      7  H   UNL     1      -0.575   0.266   2.553  0.00  0.00    +0.155 HD
BRANCH   6   8
ATOM      8  C   UNL     1       0.843  -0.829   3.577  0.00  0.00    +0.053 A 
ATOM      9  C   UNL     1       2.225  -0.957   3.619  0.00  0.00    +0.044 A 
ATOM     10  C   UNL     1       2.834  -1.502   4.733  0.00  0.00    +0.043 A 
ATOM     11  C   UNL     1       2.068  -1.921   5.807  0.00  0.00    +0.021 A 
ATOM     12  C   UNL     1       0.692  -1.795   5.769  0.00  0.00    +0.023 A 
ATOM     13  C   UNL     1       0.077  -1.245   4.660  0.00  0.00    +0.062 A 
ATOM     14 CL   UNL     1      -1.651  -1.082   4.615  0.00  0.00    -0.082 Cl
ATOM     15 CL   UNL     1       4.562  -1.663   4.785  0.00  0.00    -0.083 Cl
ENDBRANCH   6   8
ENDBRANCH   3   4
ENDBRANCH   1   3
BRANCH   1  16
ATOM     16  C   UNL     1      -0.073  -0.645  -2.272  0.00  0.00    +0.347 C 
ATOM     17  O   UNL     1      -1.270  -0.436  -2.231  0.00  0.00    -0.244 OA
BRANCH  16  18
ATOM     18  C   UNL     1       0.549  -1.113  -3.516  0.00  0.00    +0.097 A 
ATOM     19  C   UNL     1      -0.040  -1.364  -4.716  0.00  0.00    +0.031 A 
ATOM     20  C   UNL     1       0.737  -1.811  -5.800  0.00  0.00    -0.008 A 
ATOM     21  C   UNL     1       0.311  -2.124  -7.117  0.00  0.00    +0.041 A 
ATOM     22  C   UNL     1       1.199  -2.548  -8.052  0.00  0.00    +0.127 A 
ATOM     23  C   UNL     1       2.550  -2.692  -7.761  0.00  0.00    +0.034 A 
ATOM     24  C   UNL     1       3.008  -2.398  -6.493  0.00  0.00    +0.018 A 
ATOM     25  C   UNL     1       2.118  -1.967  -5.532  0.00  0.00    +0.020 A 
ATOM     26  S   UNL     1       2.266  -1.487  -3.829  0.00  0.00    -0.082 S 
BRANCH  22  27
ATOM     27  N   UNL     1       0.716  -2.865  -9.415  0.00  0.00    +0.056 N 
ATOM     28  O   UNL     1      -0.456  -2.745  -9.684  0.00  0.00    -0.126 OA
ATOM     29  O   UNL     1       1.494  -3.244 -10.259  0.00  0.00    -0.126 OA
ENDBRANCH  22  27
ENDBRANCH  16  18
ENDBRANCH   1  16
TORSDOF 6
