REMARK  Name = ZINC13100431
REMARK  11 active torsions:
REMARK  status: ('A' for Active; 'I' for Inactive)
REMARK    1  A    between atoms: C_1  and  O_2
REMARK    2  A    between atoms: O_2  and  C_3
REMARK    3  A    between atoms: C_8  and  C_9
REMARK    4  A    between atoms: C_10  and  C_21
REMARK    5  A    between atoms: N_12  and  C_14
REMARK    6  A    between atoms: C_14  and  C_15
REMARK    7  A    between atoms: C_21  and  N_22
REMARK    8  A    between atoms: N_22  and  C_23
REMARK    9  A    between atoms: C_23  and  C_24
REMARK   10  A    between atoms: N_27  and  C_31
REMARK   11  A    between atoms: C_31  and  C_32
REMARK                            x       y       z     vdW  Elec       q    Type
REMARK                         _______ _______ _______ _____ _____    ______ ____
ROOT
ATOM      1  C   UNL     1       4.419   2.019  -3.502  0.00  0.00    +0.098 A 
ATOM      2  C   UNL     1       4.523   3.414  -3.334  0.00  0.00    -0.019 A 
ATOM      3  C   UNL     1       4.432   3.679  -2.013  0.00  0.00    +0.111 A 
ATOM      4  N   UNL     1       4.284   2.506  -1.361  0.00  0.00    -0.266 N 
ATOM      5  N   UNL     1       4.276   1.477  -2.311  0.00  0.00    -0.171 NA
ENDROOT
BRANCH   1  11
ATOM      6  C   UNL     1       3.504   0.316  -5.084  0.00  0.00    +0.129 A 
ATOM      7  C   UNL     1       3.554  -0.360  -6.293  0.00  0.00    +0.046 A 
ATOM      8  C   UNL     1       4.550  -0.073  -7.206  0.00  0.00    +0.004 A 
ATOM      9  C   UNL     1       5.502   0.890  -6.922  0.00  0.00    +0.001 A 
ATOM     10  C   UNL     1       5.461   1.575  -5.724  0.00  0.00    +0.014 A 
ATOM     11  C   UNL     1       4.465   1.289  -4.794  0.00  0.00    +0.044 A 
BRANCH   6  13
ATOM     12  C   UNL     1       1.578  -0.971  -4.550  0.00  0.00    +0.277 C 
ATOM     13  O   UNL     1       2.525   0.035  -4.185  0.00  0.00    -0.494 OA
ENDBRANCH   6  13
ENDBRANCH   1  11
BRANCH   4  14
ATOM     14  C   UNL     1       4.150   2.339   0.088  0.00  0.00    +0.178 C 
BRANCH  14  15
ATOM     15  C   UNL     1       2.889   1.573   0.391  0.00  0.00    -0.026 A 
ATOM     16  C   UNL     1       1.701   2.249   0.594  0.00  0.00    +0.005 A 
ATOM     17  C   UNL     1       0.543   1.546   0.871  0.00  0.00    +0.000 A 
ATOM     18  C   UNL     1       0.574   0.166   0.947  0.00  0.00    +0.000 A 
ATOM     19  C   UNL     1       1.763  -0.511   0.745  0.00  0.00    +0.000 A 
ATOM     20  C   UNL     1       2.920   0.193   0.468  0.00  0.00    +0.005 A 
ENDBRANCH  14  15
ENDBRANCH   4  14
BRANCH   2  21
ATOM     21  C   UNL     1       4.700   4.429  -4.434  0.00  0.00    -0.043 C 
BRANCH  21  22
ATOM     22  N   UNL     1       3.427   4.610  -5.143  0.00  0.00    +0.383 N 
ATOM     23  H   UNL     1       3.110   3.650  -5.578  0.00  0.00    -0.085 HD
ATOM     24  H   UNL     1       2.661   4.963  -4.438  0.00  0.00    -0.085 HD
BRANCH  22  25
ATOM     25  C   UNL     1       3.562   5.595  -6.225  0.00  0.00    -0.049 C 
BRANCH  25  26
ATOM     26  C   UNL     1       2.218   5.755  -6.939  0.00  0.00    +0.115 C 
ATOM     27  C   UNL     1       2.358   6.781  -8.067  0.00  0.00    +0.114 C 
ATOM     28  N   UNL     1       1.087   6.873  -8.799  0.00  0.00    -0.294 NA
ATOM     29  C   UNL     1       0.705   5.564  -9.350  0.00  0.00    +0.113 C 
ATOM     30  C   UNL     1       0.581   4.552  -8.208  0.00  0.00    +0.175 C 
ATOM     31  O   UNL     1       1.817   4.498  -7.490  0.00  0.00    -0.376 OA
BRANCH  28  32
ATOM     32  C   UNL     1       1.161   7.889  -9.858  0.00  0.00    +0.119 C 
BRANCH  32  33
ATOM     33  C   UNL     1       2.290   7.553 -10.798  0.00  0.00    -0.033 A 
ATOM     34  C   UNL     1       3.558   8.049 -10.560  0.00  0.00    +0.005 A 
ATOM     35  C   UNL     1       4.595   7.737 -11.419  0.00  0.00    +0.000 A 
ATOM     36  C   UNL     1       4.361   6.937 -12.522  0.00  0.00    +0.000 A 
ATOM     37  C   UNL     1       3.092   6.445 -12.763  0.00  0.00    +0.000 A 
ATOM     38  C   UNL     1       2.057   6.753 -11.901  0.00  0.00    +0.005 A 
ENDBRANCH  32  33
ENDBRANCH  28  32
ENDBRANCH  25  26
ENDBRANCH  22  25
ENDBRANCH  21  22
ENDBRANCH   2  21
TORSDOF 10
