REMARK  Name = ZINC39762619
REMARK  15 active torsions:
REMARK  status: ('A' for Active; 'I' for Inactive)
REMARK    1  A    between atoms: C_1  and  C_2
REMARK    2  A    between atoms: C_2  and  C_4
REMARK    3  A    between atoms: C_2  and  N_27
REMARK    4  A    between atoms: C_7  and  S_13
REMARK    5  A    between atoms: N_8  and  C_9
REMARK    6  A    between atoms: C_9  and  C_10
REMARK    7  A    between atoms: C_10  and  C_11
REMARK    8  A    between atoms: C_10  and  C_12
REMARK    9  A    between atoms: S_13  and  C_14
REMARK   10  A    between atoms: C_14  and  C_15
REMARK   11  A    between atoms: N_17  and  C_18
REMARK   12  A    between atoms: C_23  and  C_24
REMARK   13  A    between atoms: C_24  and  C_25
REMARK   14  A    between atoms: C_24  and  C_26
REMARK   15  A    between atoms: C_28  and  C_30
REMARK                            x       y       z     vdW  Elec       q    Type
REMARK                         _______ _______ _______ _____ _____    ______ ____
ROOT
ATOM      1  C   UNL     1       0.716  -0.536  -1.216  0.00  0.00    +0.154 A 
ATOM      2  N   UNL     1       2.002  -0.525  -1.428  0.00  0.00    -0.132 NA
ATOM      3  N   UNL     1       2.261  -1.004  -2.592  0.00  0.00    -0.122 NA
ATOM      4  C   UNL     1       1.145  -1.349  -3.191  0.00  0.00    +0.192 A 
ATOM      5  N   UNL     1       0.124  -1.066  -2.329  0.00  0.00    -0.304 N 
ENDROOT
BRANCH   1   7
ATOM      6  C   UNL     1      -0.005   1.471   0.050  0.00  0.00    +0.036 C 
ATOM      7  C   UNL     1       0.012  -0.059   0.028  0.00  0.00    +0.138 C 
BRANCH   7   8
ATOM      8  N   UNL     1       0.720  -0.555   1.211  0.00  0.00    -0.302 N 
ATOM      9  C   UNL     1       0.060  -0.708   2.376  0.00  0.00    +0.245 C 
ATOM     10  O   UNL     1      -1.121  -0.433   2.446  0.00  0.00    -0.270 OA
ATOM     11  H   UNL     1       1.663  -0.775   1.155  0.00  0.00    +0.150 HD
BRANCH   9  12
ATOM     12  C   UNL     1       0.774  -1.209   3.569  0.00  0.00    +0.037 A 
ATOM     13  C   UNL     1       2.133  -1.520   3.494  0.00  0.00    +0.014 A 
ATOM     14  C   UNL     1       2.794  -1.987   4.610  0.00  0.00    +0.021 A 
ATOM     15  C   UNL     1       2.112  -2.148   5.805  0.00  0.00    +0.041 A 
ATOM     16  C   UNL     1       0.764  -1.841   5.886  0.00  0.00    +0.021 A 
ATOM     17  C   UNL     1       0.094  -1.368   4.778  0.00  0.00    +0.014 A 
ATOM     18 CL   UNL     1       2.951  -2.737   7.206  0.00  0.00    -0.084 Cl
ENDBRANCH   9  12
ENDBRANCH   7   8
ENDBRANCH   1   7
BRANCH   5  19
ATOM     19  C   UNL     1      -1.307  -1.282  -2.551  0.00  0.00    +0.128 C 
BRANCH  19  20
ATOM     20  C   UNL     1      -1.917  -0.037  -3.199  0.00  0.00    +0.003 C 
ATOM     21  C   UNL     1      -1.315   0.159  -4.592  0.00  0.00    +0.009 C 
ATOM     22  C   UNL     1      -3.432  -0.213  -3.318  0.00  0.00    +0.009 C 
ENDBRANCH  19  20
ENDBRANCH   5  19
BRANCH   4  23
ATOM     23  S   UNL     1       0.993  -2.052  -4.799  0.00  0.00    -0.077 S 
BRANCH  23  24
ATOM     24  C   UNL     1       2.704  -2.171  -5.390  0.00  0.00    +0.173 C 
BRANCH  24  25
ATOM     25  C   UNL     1       2.717  -2.764  -6.775  0.00  0.00    +0.227 C 
ATOM     26  O   UNL     1       1.675  -3.076  -7.311  0.00  0.00    -0.275 OA
ATOM     27  N   UNL     1       3.887  -2.948  -7.418  0.00  0.00    -0.285 N 
ATOM     28  H   UNL     1       4.713  -2.626  -7.024  0.00  0.00    +0.155 HD
BRANCH  27  29
ATOM     29  C   UNL     1       3.911  -3.603  -8.654  0.00  0.00    +0.037 A 
ATOM     30  C   UNL     1       2.900  -4.496  -8.988  0.00  0.00    +0.023 A 
ATOM     31  C   UNL     1       2.926  -5.141 -10.209  0.00  0.00    +0.002 A 
ATOM     32  C   UNL     1       3.958  -4.900 -11.098  0.00  0.00    +0.000 A 
ATOM     33  C   UNL     1       4.965  -4.013 -10.769  0.00  0.00    +0.006 A 
ATOM     34  C   UNL     1       4.941  -3.359  -9.552  0.00  0.00    -0.024 A 
BRANCH  34  35
ATOM     35  C   UNL     1       6.036  -2.386  -9.197  0.00  0.00    +0.015 C 
ATOM     36  C   UNL     1       7.395  -3.078  -9.327  0.00  0.00    +0.012 C 
ATOM     37  C   UNL     1       5.981  -1.187 -10.146  0.00  0.00    +0.012 C 
ENDBRANCH  34  35
ENDBRANCH  27  29
ENDBRANCH  24  25
ENDBRANCH  23  24
ENDBRANCH   4  23
TORSDOF 10
