REMARK  Name = ZINC43222788
REMARK  13 active torsions:
REMARK  status: ('A' for Active; 'I' for Inactive)
REMARK    1  A    between atoms: C_1  and  C_2
REMARK    2  A    between atoms: C_2  and  C_4
REMARK    3  A    between atoms: C_2  and  N_12
REMARK    4  A    between atoms: C_4  and  C_5
REMARK    5  A    between atoms: C_5  and  C_6
REMARK    6  A    between atoms: C_13  and  C_15
REMARK    7  A    between atoms: C_20  and  C_22
REMARK    8  A    between atoms: N_24  and  C_25
REMARK    9  A    between atoms: C_25  and  C_27
REMARK   10  A    between atoms: C_25  and  C_28
REMARK   11  A    between atoms: C_28  and  C_29
REMARK   12  A    between atoms: C_29  and  C_30
REMARK   13  A    between atoms: C_29  and  C_31
REMARK                            x       y       z     vdW  Elec       q    Type
REMARK                         _______ _______ _______ _____ _____    ______ ____
ROOT
ATOM      1  C   UNL     1      -3.465  -1.164  -1.134  0.00  0.00    +0.068 C 
ATOM      2  C   UNL     1      -4.384  -0.204  -0.349  0.00  0.00    -0.069 C 
ATOM      3  N   UNL     1      -4.981   0.674  -1.387  0.00  0.00    +0.380 N 
ATOM      4  C   UNL     1      -5.256  -0.240  -2.526  0.00  0.00    -0.069 C 
ATOM      5  C   UNL     1      -4.037  -1.190  -2.566  0.00  0.00    +0.068 C 
ATOM      6  H   UNL     1      -5.839   1.086  -1.051  0.00  0.00    -0.086 HD
ATOM      7  H   UNL     1      -4.327   1.392  -1.661  0.00  0.00    -0.086 HD
ENDROOT
BRANCH   1   9
ATOM      8  N   UNL     1      -1.372  -0.511   0.012  0.00  0.00    -0.313 N 
ATOM      9  C   UNL     1      -2.051  -0.643  -1.145  0.00  0.00    +0.215 C 
ATOM     10  O   UNL     1      -1.524  -0.341  -2.194  0.00  0.00    -0.276 OA
ATOM     11  H   UNL     1      -1.794  -0.752   0.852  0.00  0.00    +0.149 HD
BRANCH   8  13
ATOM     12  C   UNL     1      -0.019   1.526   0.010  0.00  0.00    +0.028 C 
ATOM     13  C   UNL     1       0.002  -0.004   0.002  0.00  0.00    +0.070 C 
BRANCH  13  14
ATOM     14  C   UNL     1       0.742  -0.511   1.242  0.00  0.00    +0.026 C 
BRANCH  14  15
ATOM     15  C   UNL     1       0.872  -2.034   1.171  0.00  0.00    +0.037 C 
BRANCH  15  16
ATOM     16  C   UNL     1       1.601  -2.533   2.392  0.00  0.00    -0.047 A 
ATOM     17  C   UNL     1       2.979  -2.641   2.378  0.00  0.00    +0.003 A 
ATOM     18  C   UNL     1       3.647  -3.099   3.498  0.00  0.00    +0.000 A 
ATOM     19  C   UNL     1       2.938  -3.448   4.632  0.00  0.00    +0.000 A 
ATOM     20  C   UNL     1       1.560  -3.340   4.646  0.00  0.00    +0.000 A 
ATOM     21  C   UNL     1       0.892  -2.878   3.527  0.00  0.00    +0.003 A 
ENDBRANCH  15  16
ENDBRANCH  14  15
ENDBRANCH  13  14
ENDBRANCH   8  13
ENDBRANCH   1   9
BRANCH   5  22
ATOM     22  C   UNL     1      -4.471  -2.586  -2.931  0.00  0.00    +0.215 C 
ATOM     23  O   UNL     1      -4.343  -3.490  -2.132  0.00  0.00    -0.276 OA
ATOM     24  N   UNL     1      -5.003  -2.831  -4.145  0.00  0.00    -0.313 N 
ATOM     25  H   UNL     1      -5.106  -2.108  -4.784  0.00  0.00    +0.149 HD
BRANCH  24  26
ATOM     26  C   UNL     1      -5.425  -4.188  -4.500  0.00  0.00    +0.070 C 
ATOM     27  C   UNL     1      -4.224  -4.974  -5.030  0.00  0.00    +0.028 C 
BRANCH  26  28
ATOM     28  C   UNL     1      -6.506  -4.120  -5.580  0.00  0.00    +0.025 C 
BRANCH  28  29
ATOM     29  C   UNL     1      -7.755  -3.444  -5.010  0.00  0.00    -0.015 C 
ATOM     30  C   UNL     1      -8.790  -3.263  -6.123  0.00  0.00    +0.007 C 
ATOM     31  C   UNL     1      -8.346  -4.316  -3.901  0.00  0.00    +0.007 C 
ENDBRANCH  28  29
ENDBRANCH  26  28
ENDBRANCH  24  26
ENDBRANCH   5  22
TORSDOF 9
