REMARK  Name = ZINC59370343
REMARK  2 active torsions:
REMARK  status: ('A' for Active; 'I' for Inactive)
REMARK    1  A    between atoms: C_13  and  C_15
REMARK    2  A    between atoms: C_15  and  C_17
REMARK                            x       y       z     vdW  Elec       q    Type
REMARK                         _______ _______ _______ _____ _____    ______ ____
ROOT
ATOM      1  C   UNL     1      -0.017   1.377   0.010  0.00  0.00    +0.001 A 
ATOM      2  C   UNL     1       1.167   2.094   0.002  0.00  0.00    +0.001 A 
ATOM      3  C   UNL     1       2.382   1.438  -0.013  0.00  0.00    +0.012 A 
ATOM      4  C   UNL     1       2.424   0.042  -0.021  0.00  0.00    +0.029 A 
ATOM      5  C   UNL     1       1.220  -0.688  -0.013  0.00  0.00    +0.029 A 
ATOM      6  C   UNL     1       0.002  -0.004   0.002  0.00  0.00    +0.012 A 
ATOM      7  C   UNL     1       1.511  -2.134  -0.024  0.00  0.00    +0.178 C 
ATOM      8  O   UNL     1       0.697  -3.032  -0.021  0.00  0.00    -0.291 OA
ATOM      9  C   UNL     1       3.010  -2.284  -0.040  0.00  0.00    +0.106 C 
ATOM     10  C   UNL     1       3.571  -0.886  -0.038  0.00  0.00    +0.178 C 
ATOM     11  O   UNL     1       4.744  -0.581  -0.048  0.00  0.00    -0.291 OA
ATOM     12  C   UNL     1       3.686  -3.409  -0.819  0.00  0.00    +0.036 C 
ATOM     13  C   UNL     1       3.702  -3.418   0.712  0.00  0.00    +0.083 C 
ENDROOT
BRANCH  13  14
ATOM     14  C   UNL     1       2.826  -4.426   1.411  0.00  0.00    +0.168 C 
ATOM     15  O   UNL     1       1.724  -4.680   0.972  0.00  0.00    -0.292 OA
BRANCH  14  16
ATOM     16  C   UNL     1       3.307  -5.101   2.626  0.00  0.00    +0.018 A 
ATOM     17  C   UNL     1       4.575  -4.806   3.139  0.00  0.00    +0.013 A 
ATOM     18  C   UNL     1       5.019  -5.442   4.277  0.00  0.00    +0.020 A 
ATOM     19  C   UNL     1       4.213  -6.372   4.914  0.00  0.00    +0.041 A 
ATOM     20  C   UNL     1       2.957  -6.670   4.412  0.00  0.00    +0.020 A 
ATOM     21  C   UNL     1       2.497  -6.037   3.277  0.00  0.00    +0.013 A 
ATOM     22 CL   UNL     1       4.782  -7.170   6.348  0.00  0.00    -0.084 Cl
ENDBRANCH  14  16
ENDBRANCH  13  14
TORSDOF 2
