REMARK  Name = ZINC04052531
REMARK  5 active torsions:
REMARK  status: ('A' for Active; 'I' for Inactive)
REMARK    1  A    between atoms: C_1  and  C_2
REMARK    2  A    between atoms: C_4  and  N_21
REMARK    3  A    between atoms: C_5  and  N_20
REMARK    4  A    between atoms: C_7  and  N_8
REMARK    5  A    between atoms: N_11  and  C_14
REMARK                            x       y       z     vdW  Elec       q    Type
REMARK                         _______ _______ _______ _____ _____    ______ ____
ROOT
ATOM      1  C   UNL     1      -2.196   9.189   3.165  0.00  0.00    +0.046 C 
ATOM      2  C   UNL     1      -1.416   9.920   2.103  0.00  0.00    -0.027 A 
ATOM      3  C   UNL     1      -1.411  11.301   2.077  0.00  0.00    +0.039 A 
ATOM      4  C   UNL     1      -0.698  11.975   1.105  0.00  0.00    +0.147 A 
ATOM      5  C   UNL     1       0.018  11.264   0.148  0.00  0.00    +0.057 A 
ATOM      6  C   UNL     1       0.020   9.877   0.174  0.00  0.00    +0.048 A 
ATOM      7  C   UNL     1      -0.703   9.204   1.149  0.00  0.00    +0.035 A 
ENDROOT
BRANCH   7   8
ATOM      8  N   UNL     1      -0.709   7.807   1.175  0.00  0.00    -0.327 N 
ATOM      9  C   UNL     1      -1.348   7.260  -0.030  0.00  0.00    +0.124 C 
ATOM     10  C   UNL     1      -1.405   5.734   0.074  0.00  0.00    +0.124 C 
ATOM     11  N   UNL     1      -0.044   5.205   0.231  0.00  0.00    -0.327 N 
ATOM     12  C   UNL     1       0.596   5.752   1.436  0.00  0.00    +0.124 C 
ATOM     13  C   UNL     1       0.653   7.277   1.332  0.00  0.00    +0.124 C 
BRANCH  11  14
ATOM     14  C   UNL     1      -0.049   3.808   0.257  0.00  0.00    +0.030 A 
ATOM     15  C   UNL     1       1.143   3.110   0.398  0.00  0.00    +0.023 A 
ATOM     16  C   UNL     1       1.134   1.729   0.423  0.00  0.00    +0.002 A 
ATOM     17  C   UNL     1      -0.061   1.042   0.308  0.00  0.00    +0.000 A 
ATOM     18  C   UNL     1      -1.249   1.734   0.161  0.00  0.00    +0.002 A 
ATOM     19  C   UNL     1      -1.247   3.115   0.141  0.00  0.00    +0.023 A 
ENDBRANCH  11  14
ENDBRANCH   7   8
BRANCH   5  20
ATOM     20  N   UNL     1       0.738  11.946  -0.835  0.00  0.00    -0.356 N 
ATOM     21  H   UNL     1       1.047  12.851  -0.671  0.00  0.00    +0.142 HD
ATOM     22  H   UNL     1       0.929  11.515  -1.683  0.00  0.00    +0.142 HD
ENDBRANCH   5  20
BRANCH   4  23
ATOM     23  N   UNL     1      -0.696  13.455   1.081  0.00  0.00    +0.058 N 
ATOM     24  O   UNL     1      -1.229  14.079   1.981  0.00  0.00    -0.126 OA
ATOM     25  O   UNL     1      -0.162  14.048   0.161  0.00  0.00    -0.126 OA
ENDBRANCH   4  23
TORSDOF 4
