REMARK  Name = ZINC14123690
REMARK  9 active torsions:
REMARK  status: ('A' for Active; 'I' for Inactive)
REMARK    1  A    between atoms: C_1  and  N_2
REMARK    2  A    between atoms: C_3  and  C_21
REMARK    3  A    between atoms: C_6  and  S_7
REMARK    4  A    between atoms: S_7  and  C_8
REMARK    5  A    between atoms: C_8  and  C_9
REMARK    6  A    between atoms: C_13  and  S_15
REMARK    7  A    between atoms: S_15  and  N_18
REMARK    8  A    between atoms: N_18  and  C_19
REMARK    9  A    between atoms: N_18  and  C_20
REMARK                            x       y       z     vdW  Elec       q    Type
REMARK                         _______ _______ _______ _____ _____    ______ ____
ROOT
ATOM      1  S   UNL     1       3.781   0.851   0.371  0.00  0.00    -0.081 S 
ENDROOT
BRANCH   1   7
ATOM      2  C   UNL     1       1.826  -1.761  -0.163  0.00  0.00    +0.153 C 
ATOM      3  N   UNL     1       1.314  -0.391  -0.073  0.00  0.00    -0.305 N 
ATOM      4  C   UNL     1       0.005   0.017  -0.190  0.00  0.00    +0.167 A 
ATOM      5  N   UNL     1      -0.006   1.322  -0.046  0.00  0.00    -0.128 NA
ATOM      6  N   UNL     1       1.190   1.752   0.150  0.00  0.00    -0.122 NA
ATOM      7  C   UNL     1       2.037   0.748   0.143  0.00  0.00    +0.192 A 
BRANCH   4   8
ATOM      8  C   UNL     1      -1.167  -0.850  -0.432  0.00  0.00    +0.054 A 
ATOM      9  C   UNL     1      -1.123  -1.826  -1.429  0.00  0.00    +0.014 A 
ATOM     10  C   UNL     1      -2.220  -2.632  -1.650  0.00  0.00    +0.001 A 
ATOM     11  C   UNL     1      -3.364  -2.476  -0.887  0.00  0.00    +0.003 A 
ATOM     12  C   UNL     1      -3.417  -1.511   0.102  0.00  0.00    +0.039 A 
ATOM     13  C   UNL     1      -2.323  -0.700   0.339  0.00  0.00    +0.134 A 
ATOM     14  F   UNL     1      -2.373   0.239   1.309  0.00  0.00    -0.205 F 
ENDBRANCH   4   8
ENDBRANCH   1   7
BRANCH   1  15
ATOM     15  C   UNL     1       3.964   2.638   0.593  0.00  0.00    +0.112 C 
BRANCH  15  16
ATOM     16  C   UNL     1       5.418   2.971   0.810  0.00  0.00    -0.035 A 
ATOM     17  C   UNL     1       6.231   3.255  -0.272  0.00  0.00    +0.004 A 
ATOM     18  C   UNL     1       7.564   3.561  -0.072  0.00  0.00    +0.002 A 
ATOM     19  C   UNL     1       8.085   3.583   1.208  0.00  0.00    +0.028 A 
ATOM     20  C   UNL     1       7.272   3.299   2.289  0.00  0.00    +0.106 A 
ATOM     21  C   UNL     1       5.937   2.998   2.091  0.00  0.00    +0.033 A 
BRANCH  20  22
ATOM     22  S   UNL     1       7.935   3.327   3.922  0.00  0.00    +0.060 S 
ATOM     23  O   UNL     1       7.100   2.492   4.713  0.00  0.00    -0.153 OA
ATOM     24  O   UNL     1       9.333   3.107   3.796  0.00  0.00    -0.153 OA
BRANCH  22  25
ATOM     25  N   UNL     1       7.748   4.867   4.500  0.00  0.00    -0.183 NA
ATOM     26  C   UNL     1       6.528   5.236   5.223  0.00  0.00    +0.131 C 
ATOM     27  C   UNL     1       8.803   5.862   4.288  0.00  0.00    +0.131 C 
ENDBRANCH  22  25
ENDBRANCH  20  22
ENDBRANCH  15  16
ENDBRANCH   1  15
TORSDOF 6
