REMARK  Name = ZINC00929672
REMARK  8 active torsions:
REMARK  status: ('A' for Active; 'I' for Inactive)
REMARK    1  A    between atoms: C_1  and  C_2
REMARK    2  A    between atoms: C_14  and  S_18
REMARK    3  A    between atoms: S_18  and  C_19
REMARK    4  A    between atoms: C_19  and  C_20
REMARK    5  A    between atoms: N_22  and  C_23
REMARK    6  A    between atoms: C_26  and  N_29
REMARK    7  A    between atoms: N_29  and  C_30
REMARK    8  A    between atoms: N_29  and  C_31
REMARK                            x       y       z     vdW  Elec       q    Type
REMARK                         _______ _______ _______ _____ _____    ______ ____
ROOT
ATOM      1  C   UNL     1       3.945 -15.489  -1.173  0.00  0.00    +0.008 C 
ATOM      2  C   UNL     1       4.243 -14.042  -0.777  0.00  0.00    -0.009 C 
ATOM      3  C   UNL     1       3.269 -13.100  -1.491  0.00  0.00    +0.008 C 
ATOM      4  C   UNL     1       3.393 -11.689  -0.914  0.00  0.00    +0.037 C 
ATOM      5  C   UNL     1       4.860 -11.266  -0.956  0.00  0.00    -0.024 A 
ATOM      6  C   UNL     1       5.837 -12.194  -1.083  0.00  0.00    -0.004 A 
ATOM      7  S   UNL     1       7.343 -11.258  -1.087  0.00  0.00    -0.073 S 
ATOM      8  C   UNL     1       6.628  -9.641  -0.917  0.00  0.00    +0.114 A 
ATOM      9  C   UNL     1       5.251  -9.907  -0.866  0.00  0.00    +0.056 A 
ATOM     10  C   UNL     1       4.394  -8.710  -0.723  0.00  0.00    +0.173 A 
ATOM     11  N   UNL     1       3.100  -8.521  -0.638  0.00  0.00    -0.128 NA
ATOM     12  N   UNL     1       2.853  -7.262  -0.524  0.00  0.00    -0.122 NA
ATOM     13  C   UNL     1       3.973  -6.575  -0.529  0.00  0.00    +0.198 A 
ATOM     14  N   UNL     1       4.997  -7.472  -0.661  0.00  0.00    -0.260 N 
ATOM     15  C   UNL     1       6.355  -7.359  -0.719  0.00  0.00    +0.208 A 
ATOM     16  N   UNL     1       7.119  -8.407  -0.844  0.00  0.00    -0.230 NA
ATOM     17  C   UNL     1       5.675 -13.678  -1.195  0.00  0.00    +0.046 C 
ENDROOT
BRANCH  13  18
ATOM     18  S   UNL     1       4.127  -4.825  -0.396  0.00  0.00    -0.076 S 
BRANCH  18  19
ATOM     19  C   UNL     1       2.415  -4.243  -0.257  0.00  0.00    +0.173 C 
BRANCH  19  20
ATOM     20  C   UNL     1       2.403  -2.741  -0.136  0.00  0.00    +0.227 C 
ATOM     21  O   UNL     1       3.447  -2.124  -0.143  0.00  0.00    -0.275 OA
ATOM     22  N   UNL     1       1.233  -2.083  -0.020  0.00  0.00    -0.285 N 
ATOM     23  H   UNL     1       0.403  -2.580   0.062  0.00  0.00    +0.155 HD
BRANCH  22  24
ATOM     24  C   UNL     1       1.213  -0.682  -0.018  0.00  0.00    +0.034 A 
ATOM     25  C   UNL     1       2.138   0.026  -0.774  0.00  0.00    +0.025 A 
ATOM     26  C   UNL     1       2.119   1.406  -0.773  0.00  0.00    +0.025 A 
ATOM     27  C   UNL     1       1.175   2.087  -0.016  0.00  0.00    +0.029 A 
ATOM     28  C   UNL     1       0.249   1.379   0.740  0.00  0.00    +0.025 A 
ATOM     29  C   UNL     1       0.269  -0.002   0.738  0.00  0.00    +0.025 A 
BRANCH  27  30
ATOM     30  N   UNL     1       1.155   3.486  -0.015  0.00  0.00    -0.336 N 
ATOM     31  C   UNL     1       2.131   4.233  -0.812  0.00  0.00    +0.129 C 
ATOM     32  C   UNL     1       0.159   4.204   0.784  0.00  0.00    +0.129 C 
ENDBRANCH  27  30
ENDBRANCH  22  24
ENDBRANCH  19  20
ENDBRANCH  18  19
ENDBRANCH  13  18
TORSDOF 5
