REMARK  Name = ZINC41068240
REMARK  7 active torsions:
REMARK  status: ('A' for Active; 'I' for Inactive)
REMARK    1  A    between atoms: C_1  and  C_2
REMARK    2  A    between atoms: C_2  and  C_3
REMARK    3  A    between atoms: C_3  and  C_4
REMARK    4  A    between atoms: N_6  and  C_7
REMARK    5  A    between atoms: N_10  and  S_13
REMARK    6  A    between atoms: S_13  and  C_16
REMARK    7  A    between atoms: C_18  and  N_21
REMARK                            x       y       z     vdW  Elec       q    Type
REMARK                         _______ _______ _______ _____ _____    ______ ____
ROOT
ATOM      1  C   UNL     1      -2.551  -4.195   0.004  0.00  0.00    +0.075 C 
ATOM      2  C   UNL     1      -2.430  -4.695  -1.437  0.00  0.00    +0.039 C 
ATOM      3  C   UNL     1      -2.375  -6.226  -1.439  0.00  0.00    +0.111 C 
ATOM      4  N   UNL     1      -3.546  -6.743  -0.717  0.00  0.00    -0.176 NA
ATOM      5  C   UNL     1      -3.807  -6.257   0.645  0.00  0.00    +0.111 C 
ATOM      6  C   UNL     1      -3.846  -4.726   0.623  0.00  0.00    +0.039 C 
ENDROOT
BRANCH   1   9
ATOM      7  C   UNL     1      -1.413  -2.041   0.005  0.00  0.00    +0.213 C 
ATOM      8  O   UNL     1      -0.354  -2.632  -0.009  0.00  0.00    -0.276 OA
ATOM      9  N   UNL     1      -2.571  -2.730   0.012  0.00  0.00    -0.312 N 
ATOM     10  H   UNL     1      -3.417  -2.257   0.023  0.00  0.00    +0.149 HD
BRANCH   7  11
ATOM     11  C   UNL     1      -1.433  -0.534   0.013  0.00  0.00    +0.095 C 
BRANCH  11  13
ATOM     12  C   UNL     1      -0.019   1.526   0.010  0.00  0.00    +0.004 C 
ATOM     13  C   UNL     1       0.002  -0.004   0.002  0.00  0.00    +0.006 C 
ENDBRANCH  11  13
ENDBRANCH   7  11
ENDBRANCH   1   9
BRANCH   4  14
ATOM     14  S   UNL     1      -4.553  -7.851  -1.425  0.00  0.00    +0.067 S 
ATOM     15  O   UNL     1      -5.811  -7.728  -0.777  0.00  0.00    -0.152 OA
ATOM     16  O   UNL     1      -4.401  -7.697  -2.830  0.00  0.00    -0.152 OA
BRANCH  14  17
ATOM     17  C   UNL     1      -3.932  -9.450  -1.023  0.00  0.00    +0.144 A 
ATOM     18  C   UNL     1      -4.233 -10.239   0.037  0.00  0.00    +0.059 A 
ATOM     19  C   UNL     1      -3.615 -11.475   0.150  0.00  0.00    +0.034 A 
ATOM     20  C   UNL     1      -2.728 -11.854  -0.806  0.00  0.00    +0.069 A 
ATOM     21  S   UNL     1      -2.752 -10.453  -1.911  0.00  0.00    -0.075 S 
BRANCH  19  22
ATOM     22  N   UNL     1      -3.902 -12.322   1.238  0.00  0.00    -0.358 N 
ATOM     23  H   UNL     1      -4.536 -12.042   1.916  0.00  0.00    +0.142 HD
ATOM     24  H   UNL     1      -3.464 -13.184   1.309  0.00  0.00    +0.142 HD
ENDBRANCH  19  22
ENDBRANCH  14  17
ENDBRANCH   4  14
TORSDOF 6
