REMARK  Name = ZINC39710469
REMARK  12 active torsions:
REMARK  status: ('A' for Active; 'I' for Inactive)
REMARK    1  A    between atoms: C_1  and  C_2
REMARK    2  A    between atoms: C_2  and  C_3
REMARK    3  A    between atoms: C_10  and  C_15
REMARK    4  A    between atoms: C_15  and  C_17
REMARK    5  A    between atoms: C_15  and  N_26
REMARK    6  A    between atoms: N_21  and  C_22
REMARK    7  A    between atoms: C_22  and  C_23
REMARK    8  A    between atoms: C_23  and  O_24
REMARK    9  A    between atoms: O_24  and  C_25
REMARK   10  A    between atoms: N_29  and  C_32
REMARK   11  A    between atoms: C_37  and  O_38
REMARK   12  A    between atoms: O_38  and  C_39
REMARK                            x       y       z     vdW  Elec       q    Type
REMARK                         _______ _______ _______ _____ _____    ______ ____
ROOT
ATOM      1  C   UNL     1       5.460  -1.172  -4.461  0.00  0.00    +0.142 C 
ENDROOT
BRANCH   1   9
ATOM      2  C   UNL     1       0.740  -1.519  -1.047  0.00  0.00    -0.047 A 
ATOM      3  C   UNL     1      -0.111  -1.592  -2.150  0.00  0.00    +0.005 A 
ATOM      4  C   UNL     1       0.341  -1.808  -3.412  0.00  0.00    +0.024 A 
ATOM      5  C   UNL     1       1.717  -1.968  -3.660  0.00  0.00    +0.040 A 
ATOM      6  N   UNL     1       2.150  -2.179  -4.903  0.00  0.00    -0.284 N 
ATOM      7  C   UNL     1       3.427  -2.338  -5.206  0.00  0.00    +0.226 C 
ATOM      8  O   UNL     1       3.762  -2.528  -6.360  0.00  0.00    -0.275 OA
ATOM      9  C   UNL     1       4.470  -2.284  -4.112  0.00  0.00    +0.123 C 
ATOM     10  C   UNL     1       3.983  -2.045  -2.696  0.00  0.00    -0.003 C 
ATOM     11  C   UNL     1       2.640  -1.896  -2.514  0.00  0.00    -0.007 A 
ATOM     12  C   UNL     1       2.085  -1.656  -1.181  0.00  0.00    +0.013 A 
ATOM     13  H   UNL     1       1.497  -2.217  -5.620  0.00  0.00    +0.155 HD
BRANCH   2  15
ATOM     14  C   UNL     1      -0.019   0.227   0.541  0.00  0.00    +0.009 C 
ATOM     15  C   UNL     1       0.157  -1.276   0.321  0.00  0.00    +0.032 C 
ENDBRANCH   2  15
ENDBRANCH   1   9
BRANCH   1  16
ATOM     16  N   UNL     1       6.055  -1.441  -5.777  0.00  0.00    -0.289 NA
ATOM     17  C   UNL     1       6.783  -2.717  -5.774  0.00  0.00    +0.104 C 
ATOM     18  C   UNL     1       7.232  -3.048  -7.202  0.00  0.00    +0.120 C 
ATOM     19  N   UNL     1       7.986  -1.903  -7.732  0.00  0.00    -0.325 N 
ATOM     20  C   UNL     1       7.377  -0.567  -7.644  0.00  0.00    +0.120 C 
ATOM     21  C   UNL     1       6.922  -0.333  -6.200  0.00  0.00    +0.104 C 
BRANCH  19  22
ATOM     22  C   UNL     1       9.251  -2.079  -8.306  0.00  0.00    +0.072 A 
ATOM     23  C   UNL     1       9.370  -2.322  -9.666  0.00  0.00    +0.027 A 
ATOM     24  C   UNL     1      10.620  -2.496 -10.230  0.00  0.00    +0.002 A 
ATOM     25  C   UNL     1      11.753  -2.427  -9.441  0.00  0.00    +0.004 A 
ATOM     26  C   UNL     1      11.642  -2.184  -8.085  0.00  0.00    +0.047 A 
ATOM     27  C   UNL     1      10.394  -2.004  -7.513  0.00  0.00    +0.141 A 
BRANCH  27  28
ATOM     28  O   UNL     1      10.284  -1.761  -6.179  0.00  0.00    -0.493 OA
ATOM     29  C   UNL     1      11.498  -1.698  -5.428  0.00  0.00    +0.277 C 
ENDBRANCH  27  28
ENDBRANCH  19  22
ENDBRANCH   1  16
BRANCH   1  30
ATOM     30  C   UNL     1       6.547  -1.121  -3.419  0.00  0.00    +0.170 A 
ATOM     31  N   UNL     1       7.392  -2.078  -3.122  0.00  0.00    -0.112 NA
ATOM     32  N   UNL     1       8.163  -1.651  -2.183  0.00  0.00    -0.023 NA
ATOM     33  N   UNL     1       7.832  -0.447  -1.873  0.00  0.00    -0.044 NA
ATOM     34  N   UNL     1       6.843  -0.082  -2.617  0.00  0.00    -0.225 N 
BRANCH  34  35
ATOM     35  C   UNL     1       6.168   1.218  -2.591  0.00  0.00    +0.175 C 
BRANCH  35  36
ATOM     36  C   UNL     1       5.088   1.209  -1.507  0.00  0.00    +0.183 C 
BRANCH  36  37
ATOM     37  O   UNL     1       4.372   2.445  -1.538  0.00  0.00    -0.381 OA
ATOM     38  C   UNL     1       3.410   2.587  -0.491  0.00  0.00    +0.194 C 
ENDBRANCH  36  37
ENDBRANCH  35  36
ENDBRANCH  34  35
ENDBRANCH   1  30
TORSDOF 9
