REMARK  Name = ZINC64884324
REMARK  8 active torsions:
REMARK  status: ('A' for Active; 'I' for Inactive)
REMARK    1  A    between atoms: C_1  and  C_2
REMARK    2  A    between atoms: C_2  and  C_3
REMARK    3  A    between atoms: C_3  and  C_4
REMARK    4  A    between atoms: C_4  and  N_5
REMARK    5  A    between atoms: N_8  and  N_9
REMARK    6  A    between atoms: C_10  and  C_12
REMARK    7  A    between atoms: C_19  and  N_22
REMARK    8  A    between atoms: C_23  and  C_25
REMARK                            x       y       z     vdW  Elec       q    Type
REMARK                         _______ _______ _______ _____ _____    ______ ____
ROOT
ATOM      1  C   UNL     1       3.886  -2.776  -6.824  0.00  0.00    +0.051 C 
ATOM      2  C   UNL     1       2.747  -1.909  -7.363  0.00  0.00    +0.020 C 
ATOM      3  C   UNL     1       3.305  -0.902  -8.370  0.00  0.00    -0.008 C 
ATOM      4  C   UNL     1       4.341  -0.012  -7.680  0.00  0.00    +0.007 C 
ATOM      5  C   UNL     1       5.481  -0.879  -7.141  0.00  0.00    -0.008 C 
ATOM      6  C   UNL     1       4.922  -1.886  -6.134  0.00  0.00    +0.020 C 
ATOM      7  C   UNL     1       6.143  -1.629  -8.299  0.00  0.00    +0.029 C 
ATOM      8  C   UNL     1       5.107  -2.519  -8.989  0.00  0.00    +0.036 C 
ATOM      9  C   UNL     1       3.967  -1.651  -9.528  0.00  0.00    +0.029 C 
ATOM     10  C   UNL     1       4.548  -3.526  -7.982  0.00  0.00    +0.042 C 
ENDROOT
BRANCH   8  11
ATOM     11  N   UNL     1       5.740  -3.236 -10.098  0.00  0.00    -0.310 N 
ATOM     12  C   UNL     1       6.305  -2.549 -11.111  0.00  0.00    +0.210 C 
ATOM     13  O   UNL     1       6.289  -1.337 -11.104  0.00  0.00    -0.276 OA
ATOM     14  C   UNL     1       6.957  -3.288 -12.251  0.00  0.00    +0.109 C 
ATOM     15  H   UNL     1       5.753  -4.206 -10.103  0.00  0.00    +0.149 HD
ENDBRANCH   8  11
BRANCH   1  17
ATOM     16  N   UNL     1       2.706  -3.334  -4.723  0.00  0.00    -0.233 N 
ATOM     17  C   UNL     1       3.337  -3.769  -5.832  0.00  0.00    +0.235 C 
ATOM     18  O   UNL     1       3.462  -4.958  -6.032  0.00  0.00    -0.274 OA
ATOM     19  H   UNL     1       2.606  -2.382  -4.564  0.00  0.00    +0.173 HD
BRANCH  16  23
ATOM     20  N   UNL     1       1.425  -2.500  -2.470  0.00  0.00    -0.298 N 
ATOM     21  C   UNL     1       1.564  -3.822  -2.692  0.00  0.00    +0.316 C 
ATOM     22  O   UNL     1       1.120  -4.622  -1.892  0.00  0.00    -0.251 OA
ATOM     23  N   UNL     1       2.195  -4.256  -3.801  0.00  0.00    -0.218 N 
ATOM     24  H   UNL     1       1.779  -1.861  -3.109  0.00  0.00    +0.150 HD
ATOM     25  H   UNL     1       2.295  -5.208  -3.961  0.00  0.00    +0.174 HD
BRANCH  20  26
ATOM     26  C   UNL     1       0.739  -2.027  -1.265  0.00  0.00    +0.106 C 
BRANCH  26  27
ATOM     27  C   UNL     1       0.718  -0.497  -1.257  0.00  0.00    +0.018 C 
BRANCH  27  29
ATOM     28  C   UNL     1      -0.019   1.526   0.010  0.00  0.00    +0.004 C 
ATOM     29  C   UNL     1       0.002  -0.004   0.002  0.00  0.00    -0.002 C 
ENDBRANCH  27  29
ENDBRANCH  26  27
ENDBRANCH  20  26
ENDBRANCH  16  23
ENDBRANCH   1  17
TORSDOF 6
