REMARK  Name = ZINC41108341
REMARK  8 active torsions:
REMARK  status: ('A' for Active; 'I' for Inactive)
REMARK    1  A    between atoms: C_1  and  C_2
REMARK    2  A    between atoms: C_4  and  C_24
REMARK    3  A    between atoms: C_5  and  C_9
REMARK    4  A    between atoms: C_6  and  C_8
REMARK    5  A    between atoms: N_13  and  C_21
REMARK    6  A    between atoms: C_15  and  C_16
REMARK    7  A    between atoms: C_15  and  C_18
REMARK    8  A    between atoms: C_21  and  C_22
REMARK                            x       y       z     vdW  Elec       q    Type
REMARK                         _______ _______ _______ _____ _____    ______ ____
ROOT
ATOM      1  C   UNL     1      -0.207  -4.157  -0.028  0.00  0.00    +0.029 C 
ATOM      2  C   UNL     1       0.820  -4.792   0.591  0.00  0.00    +0.079 A 
ATOM      3  C   UNL     1       1.180  -6.224   0.581  0.00  0.00    +0.266 A 
ATOM      4  O   UNL     1       0.527  -7.040  -0.042  0.00  0.00    -0.266 OA
ATOM      5  N   UNL     1       2.245  -6.577   1.280  0.00  0.00    -0.297 N 
ATOM      6  C   UNL     1       2.970  -5.644   1.976  0.00  0.00    +0.112 A 
ATOM      7  C   UNL     1       4.110  -5.838   2.760  0.00  0.00    +0.158 C 
ATOM      8  S   UNL     1       2.107  -4.119   1.632  0.00  0.00    -0.064 S 
ENDROOT
BRANCH   1  13
ATOM      9  C   UNL     1      -0.554   1.578   0.127  0.00  0.00    +0.044 C 
ATOM     10  C   UNL     1      -0.463   0.074   0.086  0.00  0.00    -0.050 A 
ATOM     11  C   UNL     1       0.646  -0.533  -0.476  0.00  0.00    +0.007 A 
ATOM     12  C   UNL     1       0.737  -1.908  -0.517  0.00  0.00    -0.043 A 
ATOM     13  C   UNL     1      -0.296  -2.690   0.012  0.00  0.00    -0.018 A 
ATOM     14  C   UNL     1      -1.414  -2.068   0.579  0.00  0.00    -0.043 A 
ATOM     15  C   UNL     1      -1.487  -0.692   0.617  0.00  0.00    +0.007 A 
ATOM     16  C   UNL     1      -2.533  -2.900   1.151  0.00  0.00    +0.044 C 
ATOM     17  C   UNL     1       1.946  -2.568  -1.130  0.00  0.00    +0.044 C 
ENDBRANCH   1  13
BRANCH   7  18
ATOM     18  C   UNL     1       4.690  -4.736   3.466  0.00  0.00    +0.113 C 
ATOM     19  N   UNL     1       5.150  -3.862   4.027  0.00  0.00    -0.190 NA
ENDBRANCH   7  18
BRANCH   7  20
ATOM     20  C   UNL     1       4.699  -7.140   2.856  0.00  0.00    +0.113 C 
ATOM     21  N   UNL     1       5.167  -8.173   2.932  0.00  0.00    -0.190 NA
ENDBRANCH   7  20
BRANCH   5  22
ATOM     22  C   UNL     1       2.656  -7.983   1.311  0.00  0.00    +0.152 C 
BRANCH  22  23
ATOM     23  C   UNL     1       2.092  -8.644   2.543  0.00  0.00    -0.013 C 
ATOM     24  C   UNL     1       1.374  -9.734   2.431  0.00  0.00    +0.005 C 
ENDBRANCH  22  23
ENDBRANCH   5  22
TORSDOF 5
