REMARK  Name = ZINC39677758
REMARK  7 active torsions:
REMARK  status: ('A' for Active; 'I' for Inactive)
REMARK    1  A    between atoms: C_1  and  C_2
REMARK    2  A    between atoms: C_4  and  C_8
REMARK    3  A    between atoms: N_6  and  C_7
REMARK    4  A    between atoms: C_12  and  C_21
REMARK    5  A    between atoms: N_23  and  C_24
REMARK    6  A    between atoms: C_24  and  C_25
REMARK    7  A    between atoms: C_28  and  C_30
REMARK                            x       y       z     vdW  Elec       q    Type
REMARK                         _______ _______ _______ _____ _____    ______ ____
ROOT
ATOM      1  C   UNL     1       0.078  -3.478  -1.513  0.00  0.00    +0.267 C 
ATOM      2  O   UNL     1       0.017  -3.448  -2.727  0.00  0.00    -0.268 OA
ATOM      3  N   UNL     1       0.063  -4.661  -0.867  0.00  0.00    -0.295 N 
ATOM      4  C   UNL     1       0.122  -4.898   0.595  0.00  0.00    +0.121 C 
ATOM      5  C   UNL     1      -0.860  -6.066   0.841  0.00  0.00    +0.100 C 
ATOM      6  C   UNL     1      -0.946  -6.797  -0.509  0.00  0.00    -0.004 C 
ATOM      7  C   UNL     1      -0.023  -6.018  -1.458  0.00  0.00    +0.115 C 
ATOM      8  C   UNL     1      -2.378  -6.770  -1.035  0.00  0.00    -0.010 C 
ATOM      9  C   UNL     1      -2.448  -7.553  -2.350  0.00  0.00    -0.082 C 
ATOM     10  N   UNL     1      -2.016  -8.937  -2.121  0.00  0.00    +0.379 N 
ATOM     11  C   UNL     1      -0.609  -8.960  -1.704  0.00  0.00    -0.082 C 
ATOM     12  C   UNL     1      -0.460  -8.236  -0.362  0.00  0.00    -0.010 C 
ATOM     13  H   UNL     1      -2.586  -9.351  -1.399  0.00  0.00    -0.086 HD
ATOM     14  H   UNL     1      -2.121  -9.466  -2.974  0.00  0.00    -0.086 HD
ENDROOT
BRANCH   1  18
ATOM     15  C   UNL     1       0.345   1.421  -0.243  0.00  0.00    +0.065 C 
ATOM     16  C   UNL     1       0.285  -0.084  -0.209  0.00  0.00    +0.037 A 
ATOM     17  C   UNL     1       0.196  -0.909  -1.279  0.00  0.00    +0.057 A 
ATOM     18  C   UNL     1       0.170  -2.219  -0.746  0.00  0.00    +0.147 A 
ATOM     19  N   UNL     1       0.241  -2.102   0.565  0.00  0.00    -0.167 NA
ATOM     20  N   UNL     1       0.314  -0.863   0.894  0.00  0.00    -0.271 N 
ATOM     21  C   UNL     1       0.411  -0.365   2.268  0.00  0.00    +0.172 C 
ENDBRANCH   1  18
BRANCH   5  22
ATOM     22  C   UNL     1      -0.325  -6.986   1.906  0.00  0.00    +0.218 C 
ATOM     23  O   UNL     1       0.873  -7.123   2.045  0.00  0.00    -0.275 OA
ATOM     24  N   UNL     1      -1.176  -7.659   2.706  0.00  0.00    -0.310 N 
ATOM     25  H   UNL     1      -2.134  -7.550   2.596  0.00  0.00    +0.149 HD
BRANCH  24  26
ATOM     26  C   UNL     1      -0.655  -8.554   3.742  0.00  0.00    +0.146 C 
BRANCH  26  27
ATOM     27  C   UNL     1      -1.805  -9.178   4.491  0.00  0.00    +0.007 A 
ATOM     28  C   UNL     1      -2.465 -10.337   4.231  0.00  0.00    +0.013 A 
ATOM     29  C   UNL     1      -3.498 -10.720   5.056  0.00  0.00    +0.018 A 
ATOM     30  C   UNL     1      -3.827  -9.917   6.116  0.00  0.00    +0.038 A 
ATOM     31  S   UNL     1      -2.645  -8.589   5.952  0.00  0.00    -0.090 S 
BRANCH  30  32
ATOM     32  C   UNL     1      -4.881 -10.104   7.134  0.00  0.00    +0.078 A 
ATOM     33  C   UNL     1      -5.052  -9.149   8.138  0.00  0.00    +0.029 A 
ATOM     34  C   UNL     1      -6.043  -9.339   9.083  0.00  0.00    +0.004 A 
ATOM     35  C   UNL     1      -6.834 -10.478   8.996  0.00  0.00    +0.020 A 
ATOM     36  C   UNL     1      -6.610 -11.383   7.976  0.00  0.00    +0.111 A 
ATOM     37  N   UNL     1      -5.662 -11.178   7.083  0.00  0.00    -0.254 NA
ENDBRANCH  30  32
ENDBRANCH  26  27
ENDBRANCH  24  26
ENDBRANCH   5  22
TORSDOF 5
