REMARK  Name = ZINC02287330
REMARK  2 active torsions:
REMARK  status: ('A' for Active; 'I' for Inactive)
REMARK    1  A    between atoms: C_6  and  C_7
REMARK    2  A    between atoms: C_7  and  N_8
REMARK                            x       y       z     vdW  Elec       q    Type
REMARK                         _______ _______ _______ _____ _____    ______ ____
ROOT
ATOM      1  N   UNL     1      -0.018   1.461   0.010  0.00  0.00    -0.293 N 
ATOM      2  C   UNL     1       1.151   2.151   0.003  0.00  0.00    +0.203 A 
ATOM      3  N   UNL     1       1.182   3.453   0.009  0.00  0.00    -0.235 NA
ATOM      4  C   UNL     1       0.049   4.177   0.023  0.00  0.00    +0.103 A 
ATOM      5  C   UNL     1      -0.237   5.618   0.032  0.00  0.00    +0.027 A 
ATOM      6  C   UNL     1       0.568   6.758   0.030  0.00  0.00    +0.027 A 
ATOM      7  C   UNL     1      -0.015   8.006   0.042  0.00  0.00    +0.019 A 
ATOM      8  C   UNL     1      -1.398   8.134   0.056  0.00  0.00    +0.017 A 
ATOM      9  C   UNL     1      -2.205   7.019   0.058  0.00  0.00    +0.027 A 
ATOM     10  C   UNL     1      -1.637   5.747   0.046  0.00  0.00    +0.049 A 
ATOM     11  N   UNL     1      -2.186   4.482   0.045  0.00  0.00    -0.349 N 
ATOM     12  H   UNL     1      -3.136   4.289   0.053  0.00  0.00    +0.166 HD
ATOM     13  C   UNL     1      -1.185   3.530   0.031  0.00  0.00    +0.131 A 
ATOM     14  C   UNL     1      -1.199   2.116   0.019  0.00  0.00    +0.278 A 
ATOM     15  O   UNL     1      -2.253   1.502   0.021  0.00  0.00    -0.265 OA
ATOM     16 BR   UNL     1       1.073   9.553   0.040  0.00  0.00    -0.050 Br
ENDROOT
BRANCH   1  17
ATOM     17  C   UNL     1       0.002  -0.004   0.002  0.00  0.00    +0.161 C 
BRANCH  17  23
ATOM     18  C   UNL     1       1.229  -0.737   2.057  0.00  0.00    +0.008 A 
ATOM     19  C   UNL     1       1.249  -1.200   3.358  0.00  0.00    +0.038 A 
ATOM     20  C   UNL     1       0.060  -1.451   4.022  0.00  0.00    +0.123 A 
ATOM     21  C   UNL     1      -1.148  -1.232   3.381  0.00  0.00    +0.038 A 
ATOM     22  C   UNL     1      -1.166  -0.764   2.081  0.00  0.00    +0.008 A 
ATOM     23  C   UNL     1       0.022  -0.514   1.420  0.00  0.00    -0.027 A 
ATOM     24  F   UNL     1       0.078  -1.908   5.293  0.00  0.00    -0.205 F 
ENDBRANCH  17  23
ENDBRANCH   1  17
TORSDOF 2
