REMARK  Name = ZINC13505756
REMARK  10 active torsions:
REMARK  status: ('A' for Active; 'I' for Inactive)
REMARK    1  A    between atoms: C_1  and  C_2
REMARK    2  A    between atoms: C_8  and  C_10
REMARK    3  A    between atoms: C_10  and  C_11
REMARK    4  A    between atoms: C_11  and  C_12
REMARK    5  A    between atoms: N_14  and  C_15
REMARK    6  A    between atoms: N_14  and  C_21
REMARK    7  A    between atoms: C_15  and  C_16
REMARK    8  A    between atoms: C_21  and  C_23
REMARK    9  A    between atoms: C_21  and  C_30
REMARK   10  A    between atoms: N_32  and  C_33
REMARK                            x       y       z     vdW  Elec       q    Type
REMARK                         _______ _______ _______ _____ _____    ______ ____
ROOT
ATOM      1  C   UNL     1      -5.951  -5.415   0.436  0.00  0.00    +0.217 C 
ATOM      2  O   UNL     1      -5.620  -6.550   0.710  0.00  0.00    -0.276 OA
ATOM      3  N   UNL     1      -7.220  -5.156   0.061  0.00  0.00    -0.278 N 
ENDROOT
BRANCH   1   4
ATOM      4  C   UNL     1      -4.944  -4.297   0.513  0.00  0.00    +0.105 C 
BRANCH   4   5
ATOM      5  C   UNL     1      -3.592  -4.857   0.959  0.00  0.00    +0.105 C 
BRANCH   5  13
ATOM      6  C   UNL     1       0.706   0.559   1.183  0.00  0.00    +0.089 C 
ATOM      7  C   UNL     1       0.515  -0.923   1.380  0.00  0.00    +0.136 A 
ATOM      8  C   UNL     1      -0.630  -1.602   1.193  0.00  0.00    +0.091 A 
ATOM      9  C   UNL     1      -0.385  -2.963   1.482  0.00  0.00    +0.168 A 
ATOM     10  N   UNL     1       0.871  -3.080   1.830  0.00  0.00    -0.063 NA
ATOM     11  O   UNL     1       1.460  -1.794   1.765  0.00  0.00    -0.358 OA
ATOM     12  N   UNL     1      -1.317  -3.998   1.411  0.00  0.00    -0.268 N 
ATOM     13  C   UNL     1      -2.586  -3.739   1.036  0.00  0.00    +0.219 C 
ATOM     14  O   UNL     1      -2.917  -2.605   0.762  0.00  0.00    -0.275 OA
ATOM     15  H   UNL     1      -1.052  -4.905   1.630  0.00  0.00    +0.156 HD
ENDBRANCH   5  13
ENDBRANCH   4   5
ENDBRANCH   1   4
BRANCH   3  16
ATOM     16  C   UNL     1      -7.647  -3.774  -0.169  0.00  0.00    +0.183 C 
BRANCH  16  17
ATOM     17  C   UNL     1      -7.527  -3.449  -1.636  0.00  0.00    +0.122 A 
ATOM     18  C   UNL     1      -8.454  -3.703  -2.576  0.00  0.00    +0.046 A 
ATOM     19  C   UNL     1      -7.931  -3.236  -3.804  0.00  0.00    +0.041 A 
ATOM     20  C   UNL     1      -6.715  -2.724  -3.540  0.00  0.00    +0.195 A 
ATOM     21  O   UNL     1      -6.478  -2.851  -2.224  0.00  0.00    -0.466 OA
ENDBRANCH  16  17
ENDBRANCH   3  16
BRANCH   3  22
ATOM     22  C   UNL     1      -8.171  -6.256  -0.115  0.00  0.00    +0.195 C 
BRANCH  22  23
ATOM     23  C   UNL     1      -7.741  -7.110  -1.280  0.00  0.00    +0.017 A 
ATOM     24  C   UNL     1      -6.424  -7.097  -1.697  0.00  0.00    +0.009 A 
ATOM     25  C   UNL     1      -6.029  -7.881  -2.765  0.00  0.00    +0.001 A 
ATOM     26  C   UNL     1      -6.952  -8.678  -3.417  0.00  0.00    +0.003 A 
ATOM     27  C   UNL     1      -8.269  -8.693  -3.001  0.00  0.00    +0.039 A 
ATOM     28  C   UNL     1      -8.665  -7.913  -1.928  0.00  0.00    +0.129 A 
ATOM     29  F   UNL     1      -9.952  -7.930  -1.517  0.00  0.00    -0.205 F 
ENDBRANCH  22  23
BRANCH  22  30
ATOM     30  C   UNL     1      -8.207  -7.094   1.137  0.00  0.00    +0.238 C 
ATOM     31  O   UNL     1      -7.559  -6.763   2.107  0.00  0.00    -0.273 OA
ATOM     32  N   UNL     1      -8.960  -8.211   1.178  0.00  0.00    -0.311 N 
ATOM     33  H   UNL     1      -9.478  -8.476   0.402  0.00  0.00    +0.149 HD
BRANCH  32  34
ATOM     34  C   UNL     1      -8.995  -9.026   2.395  0.00  0.00    +0.073 C 
ATOM     35  C   UNL     1      -7.850 -10.060   2.372  0.00  0.00    +0.022 C 
ATOM     36  C   UNL     1      -8.467 -11.325   3.018  0.00  0.00    +0.002 C 
ATOM     37  C   UNL     1      -9.915 -11.318   2.468  0.00  0.00    +0.002 C 
ATOM     38  C   UNL     1     -10.308  -9.826   2.456  0.00  0.00    +0.022 C 
ENDBRANCH  32  34
ENDBRANCH  22  30
ENDBRANCH   3  22
TORSDOF 9
