REMARK  Name = ZINC02865520
REMARK  10 active torsions:
REMARK  status: ('A' for Active; 'I' for Inactive)
REMARK    1  A    between atoms: C_1  and  C_2
REMARK    2  A    between atoms: C_7  and  C_8
REMARK    3  A    between atoms: C_11  and  S_19
REMARK    4  A    between atoms: N_12  and  C_13
REMARK    5  A    between atoms: C_13  and  C_14
REMARK    6  A    between atoms: S_19  and  C_20
REMARK    7  A    between atoms: C_20  and  C_21
REMARK    8  A    between atoms: N_23  and  C_24
REMARK    9  A    between atoms: C_27  and  S_30
REMARK   10  A    between atoms: S_30  and  N_33
REMARK                            x       y       z     vdW  Elec       q    Type
REMARK                         _______ _______ _______ _____ _____    ______ ____
ROOT
ATOM      1  C   UNL     1      -1.222  -2.066   1.623  0.00  0.00    +0.166 A 
ATOM      2  N   UNL     1      -1.721  -2.013   2.836  0.00  0.00    -0.128 NA
ATOM      3  N   UNL     1      -2.418  -0.943   2.977  0.00  0.00    -0.122 NA
ATOM      4  C   UNL     1      -2.401  -0.243   1.865  0.00  0.00    +0.193 A 
ATOM      5  N   UNL     1      -1.637  -0.930   0.966  0.00  0.00    -0.295 N 
ENDROOT
BRANCH   1  12
ATOM      6  C   UNL     1       1.095  -2.963   3.106  0.00  0.00    +0.044 C 
ATOM      7  C   UNL     1       0.750  -3.581   1.775  0.00  0.00    -0.040 A 
ATOM      8  C   UNL     1       1.537  -4.588   1.255  0.00  0.00    +0.004 A 
ATOM      9  C   UNL     1       1.225  -5.152   0.031  0.00  0.00    +0.000 A 
ATOM     10  C   UNL     1       0.119  -4.715  -0.677  0.00  0.00    +0.001 A 
ATOM     11  C   UNL     1      -0.680  -3.713  -0.166  0.00  0.00    +0.012 A 
ATOM     12  C   UNL     1      -0.370  -3.140   1.069  0.00  0.00    +0.022 A 
ENDBRANCH   1  12
BRANCH   5  13
ATOM     13  C   UNL     1      -1.328  -0.543  -0.413  0.00  0.00    +0.200 C 
BRANCH  13  14
ATOM     14  C   UNL     1      -0.138   0.382  -0.420  0.00  0.00    +0.125 A 
ATOM     15  C   UNL     1       1.150   0.006  -0.517  0.00  0.00    +0.046 A 
ATOM     16  C   UNL     1       1.925   1.188  -0.485  0.00  0.00    +0.041 A 
ATOM     17  C   UNL     1       1.065   2.215  -0.371  0.00  0.00    +0.195 A 
ATOM     18  O   UNL     1      -0.184   1.721  -0.333  0.00  0.00    -0.466 OA
ENDBRANCH  13  14
ENDBRANCH   5  13
BRANCH   4  19
ATOM     19  S   UNL     1      -3.214   1.295   1.585  0.00  0.00    -0.077 S 
BRANCH  19  20
ATOM     20  C   UNL     1      -3.993   1.538   3.201  0.00  0.00    +0.173 C 
BRANCH  20  21
ATOM     21  C   UNL     1      -4.766   2.831   3.197  0.00  0.00    +0.227 C 
ATOM     22  O   UNL     1      -4.789   3.521   2.200  0.00  0.00    -0.275 OA
ATOM     23  N   UNL     1      -5.433   3.221   4.302  0.00  0.00    -0.285 N 
ATOM     24  H   UNL     1      -5.352   2.710   5.123  0.00  0.00    +0.155 HD
BRANCH  23  25
ATOM     25  C   UNL     1      -6.242   4.362   4.264  0.00  0.00    +0.034 A 
ATOM     26  C   UNL     1      -6.348   5.176   5.384  0.00  0.00    +0.025 A 
ATOM     27  C   UNL     1      -7.143   6.306   5.342  0.00  0.00    +0.030 A 
ATOM     28  C   UNL     1      -7.841   6.618   4.190  0.00  0.00    +0.105 A 
ATOM     29  C   UNL     1      -7.743   5.806   3.076  0.00  0.00    +0.030 A 
ATOM     30  C   UNL     1      -6.945   4.679   3.109  0.00  0.00    +0.025 A 
BRANCH  28  31
ATOM     31  S   UNL     1      -8.860   8.056   4.143  0.00  0.00    +0.056 S 
ATOM     32  O   UNL     1      -8.355   8.944   5.131  0.00  0.00    -0.153 OA
ATOM     33  O   UNL     1      -8.978   8.425   2.776  0.00  0.00    -0.153 OA
BRANCH  31  34
ATOM     34  N   UNL     1     -10.372   7.601   4.643  0.00  0.00    -0.204 NA
ATOM     35  H   UNL     1     -10.944   8.238   5.098  0.00  0.00    +0.144 HD
ATOM     36  H   UNL     1     -10.685   6.697   4.481  0.00  0.00    +0.144 HD
ENDBRANCH  31  34
ENDBRANCH  28  31
ENDBRANCH  23  25
ENDBRANCH  20  21
ENDBRANCH  19  20
ENDBRANCH   4  19
TORSDOF 9
