REMARK  Name = ZINC63514819
REMARK  10 active torsions:
REMARK  status: ('A' for Active; 'I' for Inactive)
REMARK    1  A    between atoms: C_1  and  C_2
REMARK    2  A    between atoms: C_7  and  C_33
REMARK    3  A    between atoms: C_9  and  C_12
REMARK    4  A    between atoms: C_12  and  C_13
REMARK    5  A    between atoms: C_13  and  N_14
REMARK    6  A    between atoms: C_15  and  C_17
REMARK    7  A    between atoms: C_23  and  C_25
REMARK    8  A    between atoms: C_25  and  O_27
REMARK    9  A    between atoms: O_27  and  C_28
REMARK   10  A    between atoms: C_28  and  C_29
REMARK                            x       y       z     vdW  Elec       q    Type
REMARK                         _______ _______ _______ _____ _____    ______ ____
ROOT
ATOM      1  N   UNL     1       0.039  -1.037   5.336  0.00  0.00    -0.315 N 
ATOM      2  C   UNL     1       0.025   0.229   5.798  0.00  0.00    +0.217 C 
ATOM      3  O   UNL     1       0.010   1.159   5.019  0.00  0.00    -0.275 OA
ATOM      4  H   UNL     1       0.051  -1.780   5.959  0.00  0.00    +0.149 HD
ENDROOT
BRANCH   2   5
ATOM      5  C   UNL     1       0.028   0.490   7.282  0.00  0.00    +0.089 C 
ATOM      6  C   UNL     1      -1.211  -0.148   7.914  0.00  0.00    +0.013 C 
ATOM      7  C   UNL     1      -2.471   0.458   7.292  0.00  0.00    +0.001 C 
ATOM      8  C   UNL     1      -2.489   1.967   7.545  0.00  0.00    +0.001 C 
ATOM      9  C   UNL     1      -1.250   2.605   6.913  0.00  0.00    +0.015 C 
ATOM     10  C   UNL     1       0.009   1.999   7.535  0.00  0.00    +0.110 C 
BRANCH  10  11
ATOM     11  C   UNL     1       1.230   2.627   6.912  0.00  0.00    +0.311 C 
ATOM     12  O   UNL     1       2.031   1.939   6.327  0.00  0.00    -0.251 OA
BRANCH  11  13
ATOM     13  O   UNL     1       1.426   3.951   7.009  0.00  0.00    -0.455 OA
BRANCH  13  14
ATOM     14  C   UNL     1       2.603   4.479   6.395  0.00  0.00    +0.345 C 
BRANCH  14  15
ATOM     15  C   UNL     1       2.655   5.994   6.608  0.00  0.00    +0.424 C 
ATOM     16  F   UNL     1       2.678   6.271   7.979  0.00  0.00    -0.167 F 
ATOM     17  F   UNL     1       3.808   6.510   6.007  0.00  0.00    -0.167 F 
ATOM     18  F   UNL     1       1.524   6.584   6.032  0.00  0.00    -0.167 F 
ENDBRANCH  14  15
ENDBRANCH  13  14
ENDBRANCH  11  13
ENDBRANCH  10  11
ENDBRANCH   2   5
BRANCH   1  19
ATOM     19  C   UNL     1       0.037  -1.291   3.893  0.00  0.00    +0.108 C 
BRANCH  19  20
ATOM     20  C   UNL     1       0.055  -2.799   3.641  0.00  0.00    +0.052 C 
BRANCH  20  28
ATOM     21  C   UNL     1      -0.018   1.503   0.010  0.00  0.00    +0.044 C 
ATOM     22  C   UNL     1       0.002  -0.004   0.002  0.00  0.00    -0.050 A 
ATOM     23  C   UNL     1       0.005  -0.680  -1.226  0.00  0.00    +0.005 A 
ATOM     24  C   UNL     1       0.023  -2.026  -1.317  0.00  0.00    +0.026 A 
ATOM     25  C   UNL     1       0.039  -2.826  -0.141  0.00  0.00    +0.043 A 
ATOM     26  N   UNL     1       0.057  -4.126   0.030  0.00  0.00    -0.378 N 
ATOM     27  C   UNL     1       0.067  -4.408   1.470  0.00  0.00    +0.103 C 
ATOM     28  C   UNL     1       0.052  -3.060   2.156  0.00  0.00    -0.037 C 
ATOM     29  C   UNL     1       0.036  -2.137   1.168  0.00  0.00    -0.001 A 
ATOM     30  C   UNL     1       0.022  -0.669   1.180  0.00  0.00    +0.013 A 
ATOM     31  C   UNL     1       1.333  -5.180   1.847  0.00  0.00    +0.035 C 
ATOM     32  H   UNL     1       0.062  -4.790  -0.677  0.00  0.00    +0.160 HD
ENDBRANCH  20  28
ENDBRANCH  19  20
ENDBRANCH   1  19
TORSDOF 8
