REMARK  Name = ZINC39723717
REMARK  12 active torsions:
REMARK  status: ('A' for Active; 'I' for Inactive)
REMARK    1  A    between atoms: C_1  and  C_2
REMARK    2  A    between atoms: C_2  and  C_3
REMARK    3  A    between atoms: C_3  and  C_4
REMARK    4  A    between atoms: C_3  and  C_6
REMARK    5  A    between atoms: C_4  and  C_5
REMARK    6  A    between atoms: C_12  and  S_14
REMARK    7  A    between atoms: S_14  and  C_15
REMARK    8  A    between atoms: C_15  and  C_16
REMARK    9  A    between atoms: C_20  and  O_24
REMARK   10  A    between atoms: O_24  and  C_25
REMARK   11  A    between atoms: C_25  and  C_27
REMARK   12  A    between atoms: C_27  and  C_28
REMARK                            x       y       z     vdW  Elec       q    Type
REMARK                         _______ _______ _______ _____ _____    ______ ____
ROOT
ATOM      1  C   UNL     1       3.246 -10.446  -0.218  0.00  0.00    +0.111 C 
ATOM      2  C   UNL     1       4.298 -11.003   0.415  0.00  0.00    +0.092 C 
ATOM      3  C   UNL     1       4.705 -12.313   0.102  0.00  0.00    +0.203 C 
ATOM      4  O   UNL     1       5.647 -12.818   0.680  0.00  0.00    -0.288 OA
ATOM      5  C   UNL     1       3.957 -13.084  -0.960  0.00  0.00    +0.283 C 
ATOM      6  C   UNL     1       2.520 -12.552  -1.022  0.00  0.00    +0.281 C 
ATOM      7  O   UNL     1       2.564 -11.130  -1.155  0.00  0.00    -0.491 OA
ENDROOT
BRANCH   1   8
ATOM      8  C   UNL     1       2.824  -9.043   0.133  0.00  0.00    +0.150 C 
BRANCH   8   9
ATOM      9  S   UNL     1       3.334  -7.910  -1.189  0.00  0.00    -0.089 S 
BRANCH   9  16
ATOM     10  C   UNL     1       1.153  -1.977   1.065  0.00  0.00    +0.222 C 
ATOM     11  O   UNL     1       0.817  -2.733   1.952  0.00  0.00    -0.275 OA
ATOM     12  N   UNL     1       1.799  -2.454  -0.018  0.00  0.00    -0.263 N 
ATOM     13  C   UNL     1       2.080  -3.815  -0.118  0.00  0.00    +0.189 A 
ATOM     14  N   UNL     1       1.804  -4.803   0.717  0.00  0.00    -0.125 NA
ATOM     15  N   UNL     1       2.133  -5.996   0.472  0.00  0.00    -0.133 NA
ATOM     16  C   UNL     1       2.776  -6.332  -0.636  0.00  0.00    +0.160 A 
ATOM     17  S   UNL     1       2.911  -4.726  -1.416  0.00  0.00    -0.024 S 
ATOM     18  H   UNL     1       2.068  -1.850  -0.727  0.00  0.00    +0.157 HD
BRANCH  10  19
ATOM     19  C   UNL     1       0.849  -0.505   1.173  0.00  0.00    +0.075 C 
BRANCH  19  21
ATOM     20  C   UNL     1      -0.225   1.438   0.027  0.00  0.00    +0.004 C 
ATOM     21  C   UNL     1      -0.034  -0.079  -0.002  0.00  0.00    +0.009 C 
ENDBRANCH  19  21
BRANCH  19  22
ATOM     22  C   UNL     1       0.116  -0.231   2.488  0.00  0.00    +0.009 C 
ATOM     23  C   UNL     1       1.057  -0.504   3.663  0.00  0.00    +0.004 C 
ENDBRANCH  19  22
ENDBRANCH  10  19
ENDBRANCH   9  16
ENDBRANCH   8   9
ENDBRANCH   1   8
BRANCH   5  24
ATOM     24  O   UNL     1       4.594 -12.902  -2.226  0.00  0.00    -0.450 OA
BRANCH  24  25
ATOM     25  C   UNL     1       5.555 -13.779  -2.557  0.00  0.00    +0.312 C 
ATOM     26  O   UNL     1       5.845 -14.673  -1.797  0.00  0.00    -0.250 OA
BRANCH  25  27
ATOM     27  C   UNL     1       6.271 -13.650  -3.877  0.00  0.00    +0.157 C 
BRANCH  27  28
ATOM     28  C   UNL     1       7.293 -14.750  -4.003  0.00  0.00    -0.012 A 
ATOM     29  C   UNL     1       7.054 -16.111  -4.487  0.00  0.00    +0.003 A 
ATOM     30  C   UNL     1       5.926 -16.792  -4.950  0.00  0.00    +0.010 A 
ATOM     31  C   UNL     1       6.035 -18.097  -5.341  0.00  0.00    +0.001 A 
ATOM     32  C   UNL     1       7.257 -18.752  -5.282  0.00  0.00    +0.002 A 
ATOM     33  C   UNL     1       8.383 -18.099  -4.829  0.00  0.00    +0.026 A 
ATOM     34  C   UNL     1       8.295 -16.770  -4.426  0.00  0.00    +0.047 A 
ATOM     35  N   UNL     1       9.212 -15.865  -3.939  0.00  0.00    -0.360 N 
ATOM     36  C   UNL     1       8.598 -14.666  -3.698  0.00  0.00    +0.087 A 
ATOM     37  H   UNL     1      10.153 -16.049  -3.792  0.00  0.00    +0.165 HD
ENDBRANCH  27  28
ENDBRANCH  25  27
ENDBRANCH  24  25
ENDBRANCH   5  24
TORSDOF 10
