REMARK  Name = ZINC12393363
REMARK  8 active torsions:
REMARK  status: ('A' for Active; 'I' for Inactive)
REMARK    1  A    between atoms: C_1  and  C_2
REMARK    2  A    between atoms: C_2  and  O_3
REMARK    3  A    between atoms: O_3  and  C_4
REMARK    4  A    between atoms: C_10  and  C_26
REMARK    5  A    between atoms: C_11  and  C_13
REMARK    6  A    between atoms: N_15  and  N_16
REMARK    7  A    between atoms: C_17  and  C_19
REMARK    8  A    between atoms: N_23  and  C_24
REMARK                            x       y       z     vdW  Elec       q    Type
REMARK                         _______ _______ _______ _____ _____    ______ ____
ROOT
ATOM      1  C   UNL     1       6.062   0.931   1.035  0.00  0.00    +0.296 C 
ATOM      2  O   UNL     1       6.742  -0.074   0.960  0.00  0.00    -0.265 OA
ATOM      3  N   UNL     1       6.626   2.142   0.856  0.00  0.00    -0.228 N 
ATOM      4  H   UNL     1       6.083   2.944   0.916  0.00  0.00    +0.173 HD
ENDROOT
BRANCH   1  12
ATOM      5  C   UNL     1       0.203  -0.001   2.227  0.00  0.00    +0.121 A 
ATOM      6  C   UNL     1       0.171   1.389   2.155  0.00  0.00    +0.049 A 
ATOM      7  C   UNL     1       1.317   2.106   1.891  0.00  0.00    +0.050 A 
ATOM      8  C   UNL     1       2.523   1.444   1.694  0.00  0.00    +0.136 A 
ATOM      9  C   UNL     1       2.558   0.039   1.766  0.00  0.00    +0.027 A 
ATOM     10  C   UNL     1       1.390  -0.679   2.034  0.00  0.00    +0.057 A 
ATOM     11  C   UNL     1       3.950  -0.337   1.517  0.00  0.00    +0.008 A 
ATOM     12  C   UNL     1       4.624   0.825   1.320  0.00  0.00    +0.195 A 
ATOM     13  O   UNL     1       3.775   1.869   1.426  0.00  0.00    -0.450 OA
ATOM     14  C   UNL     1       4.519  -1.732   1.484  0.00  0.00    +0.048 C 
BRANCH   5  15
ATOM     15  O   UNL     1      -0.938  -0.693   2.488  0.00  0.00    -0.492 OA
BRANCH  15  17
ATOM     16  C   UNL     1      -3.302  -0.873   2.958  0.00  0.00    +0.048 C 
ATOM     17  C   UNL     1      -2.131   0.071   2.677  0.00  0.00    +0.225 C 
ENDBRANCH  15  17
ENDBRANCH   5  15
ENDBRANCH   1  12
BRANCH   3  18
ATOM     18  N   UNL     1       7.997   2.243   0.585  0.00  0.00    -0.229 N 
ATOM     19  C   UNL     1       8.561   3.453   0.406  0.00  0.00    +0.277 C 
ATOM     20  O   UNL     1       7.865   4.451   0.379  0.00  0.00    -0.267 OA
ATOM     21  H   UNL     1       8.540   1.441   0.525  0.00  0.00    +0.173 HD
BRANCH  19  22
ATOM     22  C   UNL     1      10.015   3.568   0.245  0.00  0.00    +0.107 A 
ATOM     23  C   UNL     1      10.911   2.524   0.165  0.00  0.00    +0.047 A 
ATOM     24  C   UNL     1      12.183   3.084   0.012  0.00  0.00    +0.036 A 
ATOM     25  C   UNL     1      12.046   4.432   0.011  0.00  0.00    +0.101 A 
ATOM     26  N   UNL     1      10.733   4.739   0.152  0.00  0.00    -0.345 N 
ATOM     27  C   UNL     1      10.171   6.092   0.199  0.00  0.00    +0.149 C 
ATOM     28 BR   UNL     1      13.807   2.131  -0.157  0.00  0.00    -0.049 Br
ENDBRANCH  19  22
ENDBRANCH   3  18
TORSDOF 5
