REMARK  Name = ZINC20516196
REMARK  12 active torsions:
REMARK  status: ('A' for Active; 'I' for Inactive)
REMARK    1  A    between atoms: C_1  and  C_2
REMARK    2  A    between atoms: C_2  and  C_31
REMARK    3  A    between atoms: C_5  and  S_13
REMARK    4  A    between atoms: N_9  and  C_12
REMARK    5  A    between atoms: S_13  and  N_16
REMARK    6  A    between atoms: N_16  and  C_17
REMARK    7  A    between atoms: C_17  and  C_18
REMARK    8  A    between atoms: C_21  and  C_24
REMARK    9  A    between atoms: N_26  and  C_27
REMARK   10  A    between atoms: C_27  and  C_28
REMARK   11  A    between atoms: C_27  and  C_29
REMARK   12  A    between atoms: C_27  and  C_30
REMARK                            x       y       z     vdW  Elec       q    Type
REMARK                         _______ _______ _______ _____ _____    ______ ____
ROOT
ATOM      1  N   UNL     1      -1.562   5.629   7.508  0.00  0.00    -0.190 NA
ATOM      2  H   UNL     1      -0.740   6.157   7.002  0.00  0.00    +0.148 HD
ENDROOT
BRANCH   1   3
ATOM      3  S   UNL     1      -2.547   6.468   8.541  0.00  0.00    +0.058 S 
ATOM      4  O   UNL     1      -2.212   7.841   8.398  0.00  0.00    -0.153 OA
ATOM      5  O   UNL     1      -3.865   5.979   8.332  0.00  0.00    -0.153 OA
BRANCH   3  10
ATOM      6  C   UNL     1       1.648   6.827  12.563  0.00  0.00    +0.025 C 
ATOM      7  C   UNL     1       0.229   6.917  13.127  0.00  0.00    +0.068 C 
ATOM      8  C   UNL     1      -0.770   6.359  12.139  0.00  0.00    -0.010 A 
ATOM      9  C   UNL     1      -1.121   6.722  10.858  0.00  0.00    +0.035 A 
ATOM     10  C   UNL     1      -2.094   6.008  10.181  0.00  0.00    +0.106 A 
ATOM     11  C   UNL     1      -2.714   4.936  10.797  0.00  0.00    +0.030 A 
ATOM     12  C   UNL     1      -2.360   4.567  12.078  0.00  0.00    +0.026 A 
ATOM     13  C   UNL     1      -1.381   5.281  12.766  0.00  0.00    +0.040 A 
ATOM     14  N   UNL     1      -0.861   5.112  14.050  0.00  0.00    -0.273 N 
ATOM     15  C   UNL     1       0.083   6.023  14.341  0.00  0.00    +0.230 C 
ATOM     16  O   UNL     1       0.702   6.112  15.380  0.00  0.00    -0.274 OA
ATOM     17  C   UNL     1      -1.294   4.061  14.974  0.00  0.00    +0.138 C 
ATOM     18  C   UNL     1      -0.119   8.364  13.483  0.00  0.00    +0.025 C 
ENDBRANCH   3  10
ENDBRANCH   1   3
BRANCH   1  19
ATOM     19  C   UNL     1      -1.646   4.168   7.439  0.00  0.00    +0.109 C 
BRANCH  19  20
ATOM     20  C   UNL     1      -0.930   3.675   6.180  0.00  0.00    +0.005 C 
ATOM     21  C   UNL     1      -0.909   2.145   6.172  0.00  0.00    +0.005 C 
ATOM     22  C   UNL     1      -0.193   1.651   4.913  0.00  0.00    +0.013 C 
ATOM     23  C   UNL     1      -0.933   2.158   3.674  0.00  0.00    +0.075 C 
ATOM     24  C   UNL     1      -0.954   3.688   3.682  0.00  0.00    +0.013 C 
ATOM     25  C   UNL     1      -1.670   4.182   4.941  0.00  0.00    +0.005 C 
BRANCH  23  26
ATOM     26  C   UNL     1      -0.228   1.672   2.434  0.00  0.00    +0.217 C 
ATOM     27  O   UNL     1       0.769   0.988   2.532  0.00  0.00    -0.276 OA
ATOM     28  N   UNL     1      -0.704   1.998   1.216  0.00  0.00    -0.310 N 
ATOM     29  H   UNL     1      -1.608   2.619   1.127  0.00  0.00    +0.149 HD
BRANCH  28  30
ATOM     30  C   UNL     1      -0.019   1.526   0.010  0.00  0.00    +0.026 C 
ATOM     31  C   UNL     1       0.002  -0.004   0.002  0.00  0.00    +0.031 C 
ATOM     32  C   UNL     1       1.417   2.055  -0.000  0.00  0.00    +0.031 C 
ATOM     33  C   UNL     1      -0.759   2.033  -1.229  0.00  0.00    +0.031 C 
ENDBRANCH  28  30
ENDBRANCH  23  26
ENDBRANCH  19  20
ENDBRANCH   1  19
TORSDOF 6
