REMARK  Name = ZINC08932032
REMARK  12 active torsions:
REMARK  status: ('A' for Active; 'I' for Inactive)
REMARK    1  A    between atoms: C_1  and  C_2
REMARK    2  A    between atoms: C_2  and  O_3
REMARK    3  A    between atoms: O_3  and  C_4
REMARK    4  A    between atoms: C_4  and  C_6
REMARK    5  A    between atoms: C_7  and  C_30
REMARK    6  A    between atoms: C_11  and  N_17
REMARK    7  A    between atoms: C_12  and  C_16
REMARK    8  A    between atoms: C_18  and  C_20
REMARK    9  A    between atoms: C_23  and  C_26
REMARK   10  A    between atoms: C_26  and  C_27
REMARK   11  A    between atoms: C_26  and  C_28
REMARK   12  A    between atoms: C_26  and  C_29
REMARK                            x       y       z     vdW  Elec       q    Type
REMARK                         _______ _______ _______ _____ _____    ______ ____
ROOT
ATOM      1  C   UNL     1       0.905  -2.083  -0.984  0.00  0.00    +0.119 A 
ATOM      2  C   UNL     1       1.394  -2.866  -1.973  0.00  0.00    +0.047 A 
ATOM      3  N   UNL     1       1.238  -4.221  -1.931  0.00  0.00    -0.257 N 
ATOM      4  C   UNL     1       1.683  -5.119  -2.861  0.00  0.00    +0.281 A 
ATOM      5  O   UNL     1       2.285  -4.728  -3.848  0.00  0.00    -0.265 OA
ATOM      6  C   UNL     1       1.447  -6.487  -2.678  0.00  0.00    +0.121 A 
ATOM      7  C   UNL     1       0.765  -6.920  -1.557  0.00  0.00    +0.068 A 
ATOM      8  N   UNL     1       0.346  -6.016  -0.672  0.00  0.00    -0.226 NA
ATOM      9  C   UNL     1       0.570  -4.739  -0.849  0.00  0.00    +0.181 A 
ATOM     10  S   UNL     1       0.173  -3.292   0.108  0.00  0.00    -0.042 S 
ATOM     11  C   UNL     1       0.499  -8.387  -1.339  0.00  0.00    +0.068 C 
ATOM     12  C   UNL     1       2.118  -2.236  -3.134  0.00  0.00    +0.065 C 
ENDROOT
BRANCH   6  13
ATOM     13  N   UNL     1       1.902  -7.415  -3.630  0.00  0.00    -0.276 N 
ATOM     14  C   UNL     1       1.503  -7.314  -4.913  0.00  0.00    +0.248 C 
ATOM     15  O   UNL     1       0.682  -6.475  -5.231  0.00  0.00    -0.270 OA
ATOM     16  H   UNL     1       2.502  -8.129  -3.363  0.00  0.00    +0.155 HD
BRANCH  14  17
ATOM     17  C   UNL     1       2.063  -8.224  -5.935  0.00  0.00    +0.037 A 
ATOM     18  C   UNL     1       3.010  -9.184  -5.575  0.00  0.00    +0.013 A 
ATOM     19  C   UNL     1       3.524 -10.034  -6.533  0.00  0.00    +0.005 A 
ATOM     20  C   UNL     1       3.113  -9.927  -7.849  0.00  0.00    -0.042 A 
ATOM     21  C   UNL     1       2.179  -8.974  -8.214  0.00  0.00    +0.005 A 
ATOM     22  C   UNL     1       1.652  -8.122  -7.265  0.00  0.00    +0.013 A 
BRANCH  20  23
ATOM     23  C   UNL     1       3.685 -10.854  -8.891  0.00  0.00    -0.013 C 
ATOM     24  C   UNL     1       4.393 -10.033  -9.971  0.00  0.00    +0.015 C 
ATOM     25  C   UNL     1       4.687 -11.804  -8.234  0.00  0.00    +0.015 C 
ATOM     26  C   UNL     1       2.554 -11.665  -9.528  0.00  0.00    +0.015 C 
ENDBRANCH  20  23
ENDBRANCH  14  17
ENDBRANCH   6  13
BRANCH   1  27
ATOM     27  C   UNL     1       0.966  -0.623  -0.843  0.00  0.00    +0.348 C 
ATOM     28  O   UNL     1       1.601   0.039  -1.641  0.00  0.00    -0.244 OA
BRANCH  27  29
ATOM     29  O   UNL     1       0.318  -0.016   0.172  0.00  0.00    -0.461 OA
BRANCH  29  31
ATOM     30  C   UNL     1      -0.373   1.935   1.456  0.00  0.00    +0.048 C 
ATOM     31  C   UNL     1       0.422   1.430   0.249  0.00  0.00    +0.229 C 
ENDBRANCH  29  31
ENDBRANCH  27  29
ENDBRANCH   1  27
TORSDOF 6
