REMARK  Name = ZINC20908318
REMARK  10 active torsions:
REMARK  status: ('A' for Active; 'I' for Inactive)
REMARK    1  A    between atoms: C_1  and  C_2
REMARK    2  A    between atoms: C_5  and  C_8
REMARK    3  A    between atoms: N_9  and  N_10
REMARK    4  A    between atoms: C_13  and  S_16
REMARK    5  A    between atoms: S_16  and  C_17
REMARK    6  A    between atoms: C_17  and  C_18
REMARK    7  A    between atoms: N_20  and  C_21
REMARK    8  A    between atoms: C_24  and  S_27
REMARK    9  A    between atoms: S_27  and  N_30
REMARK   10  A    between atoms: C_34  and  C_37
REMARK                            x       y       z     vdW  Elec       q    Type
REMARK                         _______ _______ _______ _____ _____    ______ ____
ROOT
ATOM      1  C   UNL     1       1.252  -2.073   6.255  0.00  0.00    +0.227 C 
ATOM      2  O   UNL     1       2.297  -1.877   5.670  0.00  0.00    -0.275 OA
ATOM      3  N   UNL     1       0.080  -1.789   5.655  0.00  0.00    -0.285 N 
ATOM      4  H   UNL     1      -0.862  -1.884   6.214  0.00  0.00    +0.155 HD
ENDROOT
BRANCH   3   5
ATOM      5  C   UNL     1       0.061  -1.373   4.319  0.00  0.00    +0.034 A 
ATOM      6  C   UNL     1       1.001  -1.866   3.423  0.00  0.00    +0.025 A 
ATOM      7  C   UNL     1       0.980  -1.453   2.105  0.00  0.00    +0.030 A 
ATOM      8  C   UNL     1       0.024  -0.549   1.678  0.00  0.00    +0.106 A 
ATOM      9  C   UNL     1      -0.909  -0.052   2.568  0.00  0.00    +0.030 A 
ATOM     10  C   UNL     1      -0.897  -0.465   3.886  0.00  0.00    +0.025 A 
BRANCH   8  11
ATOM     11  S   UNL     1       0.001  -0.024  -0.004  0.00  0.00    +0.061 S 
ATOM     12  O   UNL     1       1.317  -0.212  -0.506  0.00  0.00    -0.153 OA
ATOM     13  O   UNL     1      -0.649   1.239  -0.026  0.00  0.00    -0.153 OA
BRANCH  11  14
ATOM     14  N   UNL     1      -0.975  -1.074  -0.832  0.00  0.00    -0.176 NA
ATOM     15  C   UNL     1      -0.418  -2.283  -1.454  0.00  0.00    +0.109 C 
ATOM     16  C   UNL     1      -1.212  -3.500  -0.957  0.00  0.00    +0.017 C 
ATOM     17  C   UNL     1      -2.700  -3.279  -1.236  0.00  0.00    +0.006 C 
ATOM     18  C   UNL     1      -3.186  -2.043  -0.475  0.00  0.00    +0.002 C 
ATOM     19  C   UNL     1      -2.415  -0.813  -0.962  0.00  0.00    +0.112 C 
ATOM     20  C   UNL     1      -4.682  -1.842  -0.728  0.00  0.00    +0.009 C 
ENDBRANCH  11  14
ENDBRANCH   8  11
ENDBRANCH   3   5
BRANCH   1  21
ATOM     21  C   UNL     1       1.266  -2.634   7.654  0.00  0.00    +0.173 C 
BRANCH  21  22
ATOM     22  S   UNL     1       2.980  -2.908   8.179  0.00  0.00    -0.075 S 
BRANCH  22  26
ATOM     23  N   UNL     1       4.042  -4.838  12.898  0.00  0.00    -0.205 N 
ATOM     24  C   UNL     1       3.326  -4.374  11.804  0.00  0.00    +0.232 A 
ATOM     25  N   UNL     1       3.859  -3.923  10.628  0.00  0.00    -0.186 NA
ATOM     26  C   UNL     1       2.828  -3.557   9.810  0.00  0.00    +0.211 A 
ATOM     27  N   UNL     1       1.705  -3.767  10.454  0.00  0.00    -0.144 NA
ATOM     28  N   UNL     1       2.021  -4.290  11.716  0.00  0.00    -0.245 N 
ATOM     29  H   UNL     1       5.141  -4.866  12.865  0.00  0.00    +0.177 HD
ATOM     30  H   UNL     1       1.391  -4.608  12.559  0.00  0.00    +0.192 HD
BRANCH  23  32
ATOM     31  C   UNL     1       4.033  -5.707  15.069  0.00  0.00    +0.138 C 
ATOM     32  N   UNL     1       3.364  -5.272  14.045  0.00  0.00    -0.188 NA
BRANCH  31  37
ATOM     33  C   UNL     1       1.251  -7.487  19.777  0.00  0.00    +0.044 C 
ATOM     34  C   UNL     1       1.980  -7.021  18.544  0.00  0.00    -0.050 A 
ATOM     35  C   UNL     1       3.363  -7.057  18.506  0.00  0.00    +0.004 A 
ATOM     36  C   UNL     1       4.037  -6.632  17.380  0.00  0.00    +0.010 A 
ATOM     37  C   UNL     1       3.320  -6.163  16.276  0.00  0.00    -0.005 A 
ATOM     38  C   UNL     1       1.924  -6.124  16.324  0.00  0.00    +0.010 A 
ATOM     39  C   UNL     1       1.264  -6.558  17.454  0.00  0.00    +0.004 A 
ENDBRANCH  31  37
ENDBRANCH  23  32
ENDBRANCH  22  26
ENDBRANCH  21  22
ENDBRANCH   1  21
TORSDOF 8
