REMARK  Name = ZINC15730392
REMARK  3 active torsions:
REMARK  status: ('A' for Active; 'I' for Inactive)
REMARK    1  A    between atoms: C_1  and  C_2
REMARK    2  A    between atoms: C_10  and  S_15
REMARK    3  A    between atoms: S_15  and  N_18
REMARK                            x       y       z     vdW  Elec       q    Type
REMARK                         _______ _______ _______ _____ _____    ______ ____
ROOT
ATOM      1  S   UNL     1       0.683   3.438   5.984  0.00  0.00    +0.074 S 
ATOM      2  O   UNL     1       0.600   4.743   5.428  0.00  0.00    -0.150 OA
ATOM      3  O   UNL     1      -0.331   2.902   6.823  0.00  0.00    -0.150 OA
ENDROOT
BRANCH   1  12
ATOM      4  C   UNL     1      -1.350  -0.545   0.471  0.00  0.00    +0.020 C 
ATOM      5  C   UNL     1       0.002  -0.004   0.002  0.00  0.00    +0.057 C 
ATOM      6  C   UNL     1      -0.019   1.534   0.011  0.00  0.00    +0.110 C 
ATOM      7  C   UNL     1       1.379   2.078   0.000  0.00  0.00    +0.218 C 
ATOM      8  O   UNL     1       1.928   2.288  -1.061  0.00  0.00    -0.275 OA
ATOM      9  N   UNL     1       2.032   2.336   1.140  0.00  0.00    -0.284 N 
ATOM     10  C   UNL     1       1.514   1.898   2.368  0.00  0.00    +0.049 A 
ATOM     11  C   UNL     1       1.377   2.775   3.430  0.00  0.00    +0.053 A 
ATOM     12  C   UNL     1       0.858   2.324   4.631  0.00  0.00    +0.110 A 
ATOM     13  C   UNL     1       0.478   1.002   4.775  0.00  0.00    +0.030 A 
ATOM     14  C   UNL     1       0.613   0.119   3.718  0.00  0.00    +0.018 A 
ATOM     15  C   UNL     1       1.131   0.566   2.514  0.00  0.00    +0.029 A 
ATOM     16  S   UNL     1       1.316  -0.537   1.150  0.00  0.00    -0.120 S 
ATOM     17  H   UNL     1       2.868   2.827   1.116  0.00  0.00    +0.155 HD
ENDBRANCH   1  12
BRANCH   1  18
ATOM     18  N   UNL     1       2.093   3.382   6.851  0.00  0.00    -0.194 N 
ATOM     19  C   UNL     1       3.271   3.819   6.282  0.00  0.00    +0.179 A 
ATOM     20  N   UNL     1       3.474   4.302   5.077  0.00  0.00    -0.224 NA
ATOM     21  C   UNL     1       4.694   4.700   4.651  0.00  0.00    +0.080 A 
ATOM     22  C   UNL     1       5.045   5.238   3.392  0.00  0.00    +0.030 A 
ATOM     23  C   UNL     1       6.342   5.587   3.116  0.00  0.00    +0.022 A 
ATOM     24  C   UNL     1       7.351   5.427   4.056  0.00  0.00    +0.042 A 
ATOM     25  C   UNL     1       7.042   4.903   5.299  0.00  0.00    +0.037 A 
ATOM     26  C   UNL     1       5.746   4.551   5.582  0.00  0.00    +0.042 A 
ATOM     27  S   UNL     1       4.910   3.865   6.992  0.00  0.00    -0.051 S 
ATOM     28 CL   UNL     1       8.983   5.880   3.675  0.00  0.00    -0.084 Cl
ATOM     29  H   UNL     1       2.090   3.041   7.760  0.00  0.00    +0.176 HD
ENDBRANCH   1  18
TORSDOF 2
