REMARK  Name = ZINC16022248
REMARK  11 active torsions:
REMARK  status: ('A' for Active; 'I' for Inactive)
REMARK    1  A    between atoms: C_1  and  C_2
REMARK    2  A    between atoms: C_2  and  C_3
REMARK    3  A    between atoms: C_2  and  C_4
REMARK    4  A    between atoms: C_4  and  C_5
REMARK    5  A    between atoms: N_13  and  C_16
REMARK    6  A    between atoms: C_16  and  C_17
REMARK    7  A    between atoms: C_17  and  C_18
REMARK    8  A    between atoms: C_21  and  O_26
REMARK    9  A    between atoms: C_22  and  O_24
REMARK   10  A    between atoms: O_24  and  C_25
REMARK   11  A    between atoms: O_26  and  C_27
REMARK                            x       y       z     vdW  Elec       q    Type
REMARK                         _______ _______ _______ _____ _____    ______ ____
ROOT
ATOM      1  C   UNL     1      -1.406  -2.075   0.003  0.00  0.00    +0.068 C 
ATOM      2  C   UNL     1      -2.827  -2.641  -0.201  0.00  0.00    +0.107 C 
ATOM      3  C   UNL     1      -2.883  -3.907   0.699  0.00  0.00    +0.122 C 
ATOM      4  C   UNL     1      -3.012  -5.037  -0.298  0.00  0.00    +0.228 C 
ATOM      5  O   UNL     1      -3.083  -6.214  -0.016  0.00  0.00    -0.275 OA
ATOM      6  N   UNL     1      -3.036  -4.536  -1.538  0.00  0.00    -0.241 N 
ATOM      7  C   UNL     1      -2.946  -3.187  -1.606  0.00  0.00    +0.227 C 
ATOM      8  O   UNL     1      -2.956  -2.520  -2.618  0.00  0.00    -0.275 OA
ATOM      9  C   UNL     1      -1.514  -3.956   1.386  0.00  0.00    +0.136 C 
ATOM     10  N   UNL     1      -0.975  -2.589   1.330  0.00  0.00    -0.295 NA
ATOM     11  C   UNL     1      -1.623  -4.463   2.796  0.00  0.00    +0.006 A 
ATOM     12  C   UNL     1      -2.312  -4.032   3.908  0.00  0.00    +0.046 A 
ATOM     13  C   UNL     1      -2.209  -4.729   5.101  0.00  0.00    +0.124 A 
ATOM     14  C   UNL     1      -1.411  -5.859   5.170  0.00  0.00    +0.040 A 
ATOM     15  C   UNL     1      -0.720  -6.292   4.058  0.00  0.00    +0.026 A 
ATOM     16  C   UNL     1      -0.819  -5.597   2.856  0.00  0.00    +0.039 A 
ATOM     17  N   UNL     1      -0.227  -5.835   1.612  0.00  0.00    -0.283 N 
ATOM     18  C   UNL     1      -0.584  -4.915   0.695  0.00  0.00    +0.243 C 
ATOM     19  O   UNL     1      -0.227  -4.870  -0.463  0.00  0.00    -0.273 OA
ATOM     20  F   UNL     1      -2.884  -4.307   6.192  0.00  0.00    -0.205 F 
ATOM     21  H   UNL     1       0.031  -2.587   1.409  0.00  0.00    +0.123 HD
ATOM     22  H   UNL     1       0.373  -6.576   1.431  0.00  0.00    +0.155 HD
ENDROOT
BRANCH   1  23
ATOM     23  C   UNL     1      -1.438  -0.545   0.011  0.00  0.00    +0.022 C 
BRANCH  23  25
ATOM     24  C   UNL     1       0.831  -0.370  -1.021  0.00  0.00    +0.007 C 
ATOM     25  C   UNL     1      -0.019  -0.005   0.198  0.00  0.00    -0.016 C 
ATOM     26  C   UNL     1      -0.067   1.516   0.350  0.00  0.00    +0.007 C 
ENDBRANCH  23  25
ENDBRANCH   1  23
BRANCH   6  27
ATOM     27  C   UNL     1      -3.157  -5.378  -2.731  0.00  0.00    +0.121 C 
BRANCH  27  28
ATOM     28  C   UNL     1      -4.636  -5.565  -3.075  0.00  0.00    +0.054 C 
BRANCH  28  29
ATOM     29  C   UNL     1      -4.760  -6.431  -4.302  0.00  0.00    -0.042 A 
ATOM     30  C   UNL     1      -4.773  -5.852  -5.557  0.00  0.00    +0.007 A 
ATOM     31  C   UNL     1      -4.887  -6.642  -6.686  0.00  0.00    +0.049 A 
ATOM     32  C   UNL     1      -4.988  -8.018  -6.560  0.00  0.00    +0.161 A 
ATOM     33  C   UNL     1      -4.974  -8.602  -5.297  0.00  0.00    +0.162 A 
ATOM     34  C   UNL     1      -4.855  -7.804  -4.170  0.00  0.00    +0.053 A 
BRANCH  33  35
ATOM     35  O   UNL     1      -5.073  -9.952  -5.169  0.00  0.00    -0.491 OA
ATOM     36  C   UNL     1      -5.052 -10.481  -3.841  0.00  0.00    +0.277 C 
ENDBRANCH  33  35
BRANCH  32  37
ATOM     37  O   UNL     1      -5.100  -8.797  -7.669  0.00  0.00    -0.491 OA
ATOM     38  C   UNL     1      -5.108  -8.130  -8.933  0.00  0.00    +0.277 C 
ENDBRANCH  32  37
ENDBRANCH  28  29
ENDBRANCH  27  28
ENDBRANCH   6  27
TORSDOF 7
