REMARK  Name = ZINC44879411
REMARK  10 active torsions:
REMARK  status: ('A' for Active; 'I' for Inactive)
REMARK    1  A    between atoms: C_1  and  C_2
REMARK    2  A    between atoms: N_7  and  C_9
REMARK    3  A    between atoms: C_9  and  C_10
REMARK    4  A    between atoms: C_13  and  C_16
REMARK    5  A    between atoms: C_16  and  N_17
REMARK    6  A    between atoms: N_17  and  S_18
REMARK    7  A    between atoms: S_18  and  C_21
REMARK    8  A    between atoms: C_24  and  S_36
REMARK    9  A    between atoms: C_25  and  C_27
REMARK   10  A    between atoms: S_36  and  C_37
REMARK                            x       y       z     vdW  Elec       q    Type
REMARK                         _______ _______ _______ _____ _____    ______ ____
ROOT
ATOM      1  S   UNL     1       1.616 -10.229   0.322  0.00  0.00    +0.059 S 
ATOM      2  O   UNL     1       0.800 -10.436  -0.823  0.00  0.00    -0.153 OA
ATOM      3  O   UNL     1       3.029 -10.376   0.287  0.00  0.00    -0.153 OA
ENDROOT
BRANCH   1   4
ATOM      4  C   UNL     1       1.025 -11.326   1.567  0.00  0.00    +0.106 A 
ATOM      5  C   UNL     1       1.869 -11.722   2.594  0.00  0.00    +0.029 A 
ATOM      6  C   UNL     1       1.420 -12.581   3.575  0.00  0.00    +0.017 A 
ATOM      7  C   UNL     1       0.114 -13.056   3.540  0.00  0.00    +0.020 A 
ATOM      8  C   UNL     1      -0.743 -12.657   2.502  0.00  0.00    +0.052 A 
ATOM      9  C   UNL     1      -0.274 -11.782   1.518  0.00  0.00    +0.042 A 
BRANCH   8  10
ATOM     10  C   UNL     1      -2.130 -13.153   2.453  0.00  0.00    +0.248 C 
ATOM     11  O   UNL     1      -2.858 -13.022   3.418  0.00  0.00    -0.270 OA
ATOM     12  N   UNL     1      -2.592 -13.752   1.337  0.00  0.00    -0.297 N 
ATOM     13  C   UNL     1      -3.991 -14.109   1.271  0.00  0.00    +0.108 C 
ATOM     14  C   UNL     1      -4.191 -15.536   1.839  0.00  0.00    +0.019 C 
ATOM     15  C   UNL     1      -3.639 -16.536   0.913  0.00  0.00    +0.002 C 
ATOM     16  C   UNL     1      -2.133 -16.425   0.694  0.00  0.00    +0.002 C 
ATOM     17  C   UNL     1      -1.859 -15.410  -0.388  0.00  0.00    +0.019 C 
ATOM     18  C   UNL     1      -1.649 -14.012   0.231  0.00  0.00    +0.108 C 
ENDBRANCH   8  10
BRANCH   7  19
ATOM     19  S   UNL     1      -0.463 -14.154   4.792  0.00  0.00    -0.128 S 
ATOM     20  C   UNL     1       0.971 -14.369   5.882  0.00  0.00    +0.090 C 
ENDBRANCH   7  19
ENDBRANCH   1   4
BRANCH   1  21
ATOM     21  N   UNL     1       1.313  -8.687   0.845  0.00  0.00    -0.186 NA
ATOM     22  H   UNL     1       0.688  -8.124   0.361  0.00  0.00    +0.148 HD
BRANCH  21  23
ATOM     23  C   UNL     1       1.990  -8.172   2.038  0.00  0.00    +0.141 C 
BRANCH  23  27
ATOM     24  C   UNL     1       1.570  -3.924   2.195  0.00  0.00    -0.064 A 
ATOM     25  C   UNL     1       0.625  -4.734   2.796  0.00  0.00    +0.002 A 
ATOM     26  C   UNL     1       0.761  -6.109   2.745  0.00  0.00    +0.005 A 
ATOM     27  C   UNL     1       1.841  -6.673   2.093  0.00  0.00    -0.032 A 
ATOM     28  C   UNL     1       2.786  -5.863   1.491  0.00  0.00    +0.005 A 
ATOM     29  C   UNL     1       2.647  -4.488   1.538  0.00  0.00    +0.002 A 
BRANCH  24  30
ATOM     30  C   UNL     1       1.422  -2.425   2.250  0.00  0.00    -0.043 C 
BRANCH  30  36
ATOM     31  C   UNL     1      -0.171   1.514  -0.182  0.00  0.00    +0.005 C 
ATOM     32  C   UNL     1      -0.134  -0.016  -0.171  0.00  0.00    -0.031 C 
ATOM     33  C   UNL     1      -1.565  -0.562  -0.151  0.00  0.00    -0.001 C 
ATOM     34  C   UNL     1      -1.517  -2.090  -0.060  0.00  0.00    -0.018 C 
ATOM     35  C   UNL     1      -0.724  -2.497   1.184  0.00  0.00    -0.078 C 
ATOM     36  N   UNL     1       0.642  -1.967   1.092  0.00  0.00    +0.383 N 
ATOM     37  C   UNL     1       0.609  -0.500   1.077  0.00  0.00    -0.075 C 
ATOM     38  H   UNL     1       1.075  -2.301   0.244  0.00  0.00    -0.081 HD
ENDBRANCH  30  36
ENDBRANCH  24  30
ENDBRANCH  23  27
ENDBRANCH  21  23
ENDBRANCH   1  21
TORSDOF 8
