REMARK  Name = ZINC67438760
REMARK  4 active torsions:
REMARK  status: ('A' for Active; 'I' for Inactive)
REMARK    1  A    between atoms: C_3  and  O_20
REMARK    2  A    between atoms: C_6  and  C_7
REMARK    3  A    between atoms: O_20  and  C_21
REMARK    4  A    between atoms: C_21  and  C_22
REMARK                            x       y       z     vdW  Elec       q    Type
REMARK                         _______ _______ _______ _____ _____    ______ ____
ROOT
ATOM      1  C   UNL     1      -1.293  -0.774   0.011  0.00  0.00    +0.190 C 
ATOM      2  N   UNL     1      -1.090  -2.061   0.687  0.00  0.00    -0.322 N 
ATOM      3  C   UNL     1      -1.002  -2.075   2.075  0.00  0.00    +0.042 A 
ATOM      4  C   UNL     1      -0.254  -3.022   2.752  0.00  0.00    +0.043 A 
ATOM      5  C   UNL     1      -0.196  -2.987   4.134  0.00  0.00    +0.043 A 
ATOM      6  C   UNL     1      -0.880  -2.011   4.844  0.00  0.00    +0.021 A 
ATOM      7  C   UNL     1      -1.631  -1.061   4.183  0.00  0.00    +0.016 A 
ATOM      8  C   UNL     1      -1.700  -1.086   2.792  0.00  0.00    +0.058 A 
ATOM      9  C   UNL     1      -2.496  -0.102   2.038  0.00  0.00    +0.247 C 
ATOM     10  O   UNL     1      -3.304   0.603   2.610  0.00  0.00    -0.270 OA
ATOM     11  N   UNL     1      -2.316   0.006   0.708  0.00  0.00    -0.289 N 
ATOM     12 CL   UNL     1       0.741  -4.175   4.986  0.00  0.00    -0.083 Cl
ATOM     13  H   UNL     1      -1.018  -2.883   0.178  0.00  0.00    +0.148 HD
ATOM     14  H   UNL     1      -2.876   0.615   0.203  0.00  0.00    +0.151 HD
ENDROOT
BRANCH   1  20
ATOM     15  C   UNL     1      -0.017   1.378   0.010  0.00  0.00    +0.010 A 
ATOM     16  C   UNL     1       1.169   2.087   0.002  0.00  0.00    +0.046 A 
ATOM     17  C   UNL     1       2.380   1.409  -0.013  0.00  0.00    +0.121 A 
ATOM     18  C   UNL     1       2.396   0.022  -0.021  0.00  0.00    +0.046 A 
ATOM     19  C   UNL     1       1.207  -0.681  -0.013  0.00  0.00    +0.010 A 
ATOM     20  C   UNL     1       0.002  -0.004   0.002  0.00  0.00    -0.009 A 
BRANCH  17  21
ATOM     21  O   UNL     1       3.548   2.104  -0.021  0.00  0.00    -0.483 OA
BRANCH  21  22
ATOM     22  C   UNL     1       4.756   1.341  -0.036  0.00  0.00    +0.342 C 
BRANCH  22  23
ATOM     23  C   UNL     1       5.958   2.288  -0.043  0.00  0.00    +0.424 C 
ATOM     24  F   UNL     1       5.927   3.089   1.103  0.00  0.00    -0.167 F 
ATOM     25  F   UNL     1       7.141   1.541  -0.059  0.00  0.00    -0.167 F 
ATOM     26  F   UNL     1       5.905   3.100  -1.181  0.00  0.00    -0.167 F 
ENDBRANCH  22  23
ENDBRANCH  21  22
ENDBRANCH  17  21
ENDBRANCH   1  20
TORSDOF 4
