REMARK  Name = ZINC64735082
REMARK  10 active torsions:
REMARK  status: ('A' for Active; 'I' for Inactive)
REMARK    1  A    between atoms: C_1  and  C_2
REMARK    2  A    between atoms: C_2  and  O_3
REMARK    3  A    between atoms: O_3  and  C_4
REMARK    4  A    between atoms: C_7  and  C_12
REMARK    5  A    between atoms: C_9  and  O_10
REMARK    6  A    between atoms: O_10  and  C_11
REMARK    7  A    between atoms: C_12  and  C_14
REMARK    8  A    between atoms: C_12  and  C_28
REMARK    9  A    between atoms: C_14  and  N_15
REMARK   10  A    between atoms: C_16  and  C_18
REMARK                            x       y       z     vdW  Elec       q    Type
REMARK                         _______ _______ _______ _____ _____    ______ ____
ROOT
ATOM      1  C   UNL     1      -1.996  -6.097  -0.011  0.00  0.00    +0.064 C 
ENDROOT
BRANCH   1   2
ATOM      2  C   UNL     1      -1.354  -6.671  -1.247  0.00  0.00    -0.033 C 
ATOM      3  C   UNL     1      -1.964  -7.378  -2.227  0.00  0.00    -0.000 A 
ATOM      4  C   UNL     1      -3.353  -7.807  -2.425  0.00  0.00    +0.010 A 
ATOM      5  C   UNL     1      -3.667  -8.521  -3.530  0.00  0.00    +0.001 A 
ATOM      6  C   UNL     1      -2.701  -8.861  -4.488  0.00  0.00    +0.002 A 
ATOM      7  C   UNL     1      -1.405  -8.502  -4.375  0.00  0.00    +0.026 A 
ATOM      8  C   UNL     1      -0.963  -7.749  -3.252  0.00  0.00    +0.043 A 
ATOM      9  N   UNL     1       0.219  -7.290  -2.920  0.00  0.00    -0.380 N 
ATOM     10  C   UNL     1       0.101  -6.569  -1.648  0.00  0.00    +0.145 C 
ATOM     11  H   UNL     1       1.035  -7.404  -3.432  0.00  0.00    +0.160 HD
ENDBRANCH   1   2
BRANCH   1  15
ATOM     12  C   UNL     1      -1.498  -1.849   0.006  0.00  0.00    +0.162 A 
ATOM     13  C   UNL     1      -0.389  -2.680  -0.003  0.00  0.00    +0.050 A 
ATOM     14  C   UNL     1      -0.553  -4.052  -0.008  0.00  0.00    +0.008 A 
ATOM     15  C   UNL     1      -1.823  -4.600  -0.005  0.00  0.00    -0.035 A 
ATOM     16  C   UNL     1      -2.934  -3.777   0.004  0.00  0.00    +0.053 A 
ATOM     17  C   UNL     1      -2.776  -2.400   0.016  0.00  0.00    +0.162 A 
BRANCH  17  18
ATOM     18  O   UNL     1      -3.868  -1.589   0.030  0.00  0.00    -0.491 OA
ATOM     19  C   UNL     1      -5.148  -2.225   0.039  0.00  0.00    +0.277 C 
ENDBRANCH  17  18
BRANCH  12  20
ATOM     20  O   UNL     1      -1.339  -0.499   0.012  0.00  0.00    -0.489 OA
BRANCH  20  22
ATOM     21  C   UNL     1      -0.019   1.526   0.010  0.00  0.00    +0.048 C 
ATOM     22  C   UNL     1       0.002  -0.004   0.002  0.00  0.00    +0.226 C 
ENDBRANCH  20  22
ENDBRANCH  12  20
ENDBRANCH   1  15
BRANCH   1  23
ATOM     23  C   UNL     1      -1.333  -6.692   1.232  0.00  0.00    +0.116 C 
BRANCH  23  24
ATOM     24  N   UNL     1      -1.603  -8.131   1.288  0.00  0.00    -0.311 N 
ATOM     25  C   UNL     1      -1.114  -8.869   2.304  0.00  0.00    +0.254 C 
ATOM     26  O   UNL     1      -0.450  -8.343   3.172  0.00  0.00    -0.272 OA
ATOM     27  H   UNL     1      -2.134  -8.552   0.594  0.00  0.00    +0.149 HD
BRANCH  25  28
ATOM     28  C   UNL     1      -1.392 -10.349   2.362  0.00  0.00    +0.263 C 
ATOM     29  C   UNL     1      -0.674 -11.087   1.208  0.00  0.00    +0.093 C 
ATOM     30  C   UNL     1       0.632 -11.495   1.862  0.00  0.00    -0.002 A 
ATOM     31  C   UNL     1       1.829 -11.935   1.341  0.00  0.00    +0.007 A 
ATOM     32  C   UNL     1       2.882 -12.237   2.187  0.00  0.00    +0.000 A 
ATOM     33  C   UNL     1       2.726 -12.097   3.554  0.00  0.00    +0.004 A 
ATOM     34  C   UNL     1       1.527 -11.660   4.077  0.00  0.00    +0.046 A 
ATOM     35  C   UNL     1       0.462 -11.357   3.233  0.00  0.00    +0.125 A 
ATOM     36  O   UNL     1      -0.801 -10.933   3.535  0.00  0.00    -0.479 OA
ENDBRANCH  25  28
ENDBRANCH  23  24
ENDBRANCH   1  23
TORSDOF 8
