REMARK  Name = ZINC08740372
REMARK  13 active torsions:
REMARK  status: ('A' for Active; 'I' for Inactive)
REMARK    1  A    between atoms: C_1  and  N_77
REMARK    2  A    between atoms: C_2  and  N_77
REMARK    3  A    between atoms: C_8  and  O_38
REMARK    4  A    between atoms: C_9  and  O_36
REMARK    5  A    between atoms: C_10  and  O_34
REMARK    6  A    between atoms: C_17  and  N_20
REMARK    7  A    between atoms: N_20  and  C_21
REMARK    8  A    between atoms: C_21  and  C_22
REMARK    9  A    between atoms: C_22  and  C_23
REMARK   10  A    between atoms: C_23  and  N_24
REMARK   11  A    between atoms: O_34  and  C_35
REMARK   12  A    between atoms: O_36  and  C_37
REMARK   13  A    between atoms: O_38  and  C_39
REMARK                            x       y       z     vdW  Elec       q    Type
REMARK                         _______ _______ _______ _____ _____    ______ ____
ROOT
ATOM      1  C   UNL     1       0.552  -1.558   1.316  0.00  0.00    -0.040 C 
ATOM      2  C   UNL     1       0.316  -2.970   1.812  0.00  0.00    -0.007 C 
ATOM      3  C   UNL     1       1.406  -3.397   2.791  0.00  0.00    +0.035 C 
ATOM      4  C   UNL     1       1.680  -2.281   3.766  0.00  0.00    -0.033 A 
ATOM      5  C   UNL     1       1.200  -2.355   5.058  0.00  0.00    +0.054 A 
ATOM      6  C   UNL     1       1.465  -1.329   5.957  0.00  0.00    +0.165 A 
ATOM      7  C   UNL     1       2.213  -0.226   5.563  0.00  0.00    +0.204 A 
ATOM      8  C   UNL     1       2.695  -0.143   4.263  0.00  0.00    +0.173 A 
ATOM      9  C   UNL     1       2.421  -1.176   3.361  0.00  0.00    +0.031 A 
ATOM     10  C   UNL     1       2.920  -1.083   1.958  0.00  0.00    -0.012 A 
ATOM     11  C   UNL     1       2.001  -1.330   0.938  0.00  0.00    -0.050 A 
ATOM     12  C   UNL     1       2.292  -1.385  -0.374  0.00  0.00    +0.055 A 
ATOM     13  C   UNL     1       3.448  -1.206  -1.077  0.00  0.00    +0.200 A 
ATOM     14  O   UNL     1       3.375  -1.411  -2.282  0.00  0.00    -0.286 OA
ATOM     15  C   UNL     1       4.700  -0.820  -0.604  0.00  0.00    +0.074 A 
ATOM     16  C   UNL     1       5.022  -0.621   0.706  0.00  0.00    +0.027 A 
ATOM     17  C   UNL     1       4.242  -0.754   1.793  0.00  0.00    +0.011 A 
ENDROOT
BRANCH   1  19
ATOM     18  C   UNL     1      -0.592   0.114  -0.010  0.00  0.00    -0.100 C 
ATOM     19  N   UNL     1      -0.297  -1.324   0.132  0.00  0.00    +0.382 N 
ATOM     20  H   UNL     1       0.194  -1.654  -0.707  0.00  0.00    -0.085 HD
ATOM     21  H   UNL     1      -1.177  -1.841   0.239  0.00  0.00    -0.085 HD
ENDBRANCH   1  19
BRANCH  15  22
ATOM     22  N   UNL     1       5.700  -0.623  -1.541  0.00  0.00    -0.341 N 
ATOM     23  H   UNL     1       5.514  -0.753  -2.484  0.00  0.00    +0.146 HD
BRANCH  22  24
ATOM     24  C   UNL     1       7.039  -0.216  -1.108  0.00  0.00    +0.103 C 
BRANCH  24  25
ATOM     25  C   UNL     1       7.947  -0.068  -2.330  0.00  0.00    +0.037 C 
BRANCH  25  26
ATOM     26  C   UNL     1       9.346   0.357  -1.879  0.00  0.00    +0.106 C 
BRANCH  26  27
ATOM     27  N   UNL     1      10.218   0.499  -3.052  0.00  0.00    -0.330 N 
ATOM     28  C   UNL     1       9.570   1.301  -4.093  0.00  0.00    +0.105 C 
ATOM     29  C   UNL     1      10.535   1.439  -5.277  0.00  0.00    +0.024 C 
ATOM     30  C   UNL     1      11.709   2.312  -4.829  0.00  0.00    +0.038 C 
ATOM     31  C   UNL     1      12.213   1.836  -3.490  0.00  0.00    -0.026 A 
ATOM     32  C   UNL     1      11.472   0.986  -2.687  0.00  0.00    +0.033 A 
ATOM     33  C   UNL     1      11.987   0.587  -1.453  0.00  0.00    +0.023 A 
ATOM     34  C   UNL     1      13.225   1.030  -1.037  0.00  0.00    +0.002 A 
ATOM     35  C   UNL     1      13.963   1.875  -1.846  0.00  0.00    +0.000 A 
ATOM     36  C   UNL     1      13.457   2.274  -3.067  0.00  0.00    +0.005 A 
ENDBRANCH  26  27
ENDBRANCH  25  26
ENDBRANCH  24  25
ENDBRANCH  22  24
ENDBRANCH  15  22
BRANCH   8  37
ATOM     37  O   UNL     1       3.428   0.932   3.871  0.00  0.00    -0.491 OA
ATOM     38  C   UNL     1       2.705   2.083   3.429  0.00  0.00    +0.277 C 
ENDBRANCH   8  37
BRANCH   7  39
ATOM     39  O   UNL     1       2.473   0.773   6.450  0.00  0.00    -0.488 OA
ATOM     40  C   UNL     1       3.660   0.651   7.235  0.00  0.00    +0.277 C 
ENDBRANCH   7  39
BRANCH   6  41
ATOM     41  O   UNL     1       0.989  -1.406   7.228  0.00  0.00    -0.491 OA
ATOM     42  C   UNL     1       0.228  -2.566   7.567  0.00  0.00    +0.277 C 
ENDBRANCH   6  41
TORSDOF 9
