REMARK  Name = ZINC65248549
REMARK  8 active torsions:
REMARK  status: ('A' for Active; 'I' for Inactive)
REMARK    1  A    between atoms: C_1  and  C_2
REMARK    2  A    between atoms: C_2  and  C_3
REMARK    3  A    between atoms: C_2  and  C_4
REMARK    4  A    between atoms: C_4  and  O_5
REMARK    5  A    between atoms: O_5  and  C_6
REMARK    6  A    between atoms: C_9  and  C_12
REMARK    7  A    between atoms: C_15  and  C_18
REMARK    8  A    between atoms: C_20  and  O_31
REMARK                            x       y       z     vdW  Elec       q    Type
REMARK                         _______ _______ _______ _____ _____    ______ ____
ROOT
ATOM      1  C   UNL     1       2.174  -1.708   7.348  0.00  0.00    +0.168 C 
ATOM      2  N   UNL     1       3.284  -2.356   7.486  0.00  0.00    -0.067 NA
ATOM      3  O   UNL     1       3.560  -2.601   8.853  0.00  0.00    -0.368 OA
ATOM      4  C   UNL     1       2.477  -2.024   9.598  0.00  0.00    +0.311 C 
ATOM      5  N   UNL     1       1.593  -1.443   8.574  0.00  0.00    -0.289 N 
ATOM      6  H   UNL     1       0.761  -0.969   8.730  0.00  0.00    +0.151 HD
ENDROOT
BRANCH   4   7
ATOM      7  C   UNL     1       2.996  -0.931  10.534  0.00  0.00    +0.202 C 
ATOM      8  C   UNL     1       3.987  -1.568  11.489  0.00  0.00    +0.120 C 
ATOM      9  C   UNL     1       5.280  -1.045  11.503  0.00  0.00    +0.035 A 
ATOM     10  C   UNL     1       6.262  -1.582  12.363  0.00  0.00    +0.016 A 
ATOM     11  C   UNL     1       7.516  -1.059  12.362  0.00  0.00    +0.039 A 
ATOM     12  C   UNL     1       7.858   0.004  11.525  0.00  0.00    +0.125 A 
ATOM     13  C   UNL     1       6.942   0.568  10.666  0.00  0.00    +0.062 A 
ATOM     14  C   UNL     1       5.630   0.072  10.620  0.00  0.00    +0.047 A 
ATOM     15  N   UNL     1       4.739   0.622   9.784  0.00  0.00    -0.284 N 
ATOM     16  C   UNL     1       3.492   0.214   9.681  0.00  0.00    +0.233 C 
ATOM     17  O   UNL     1       2.737   0.760   8.897  0.00  0.00    -0.274 OA
ATOM     18  F   UNL     1       9.117   0.491  11.559  0.00  0.00    -0.205 F 
ATOM     19  H   UNL     1       5.030   1.359   9.225  0.00  0.00    +0.155 HD
BRANCH   8  20
ATOM     20  O   UNL     1       3.636  -2.586  12.282  0.00  0.00    -0.509 OA
ATOM     21  H   UNL     1       4.352  -2.909  12.847  0.00  0.00    +0.292 HD
ENDBRANCH   8  20
ENDBRANCH   4   7
BRANCH   1  25
ATOM     22  C   UNL     1       0.534  -0.527   3.609  0.00  0.00    +0.121 A 
ATOM     23  C   UNL     1       1.733  -1.227   3.650  0.00  0.00    +0.046 A 
ATOM     24  C   UNL     1       2.268  -1.611   4.860  0.00  0.00    +0.015 A 
ATOM     25  C   UNL     1       1.604  -1.296   6.046  0.00  0.00    +0.018 A 
ATOM     26  C   UNL     1       0.399  -0.592   6.002  0.00  0.00    +0.015 A 
ATOM     27  C   UNL     1      -0.127  -0.207   4.788  0.00  0.00    +0.046 A 
BRANCH  22  28
ATOM     28  O   UNL     1       0.010  -0.149   2.414  0.00  0.00    -0.492 OA
BRANCH  28  29
ATOM     29  C   UNL     1       0.742  -0.511   1.242  0.00  0.00    +0.232 C 
BRANCH  29  31
ATOM     30  C   UNL     1      -0.019   1.526   0.010  0.00  0.00    +0.010 C 
ATOM     31  C   UNL     1       0.002  -0.004   0.002  0.00  0.00    +0.020 C 
ATOM     32  C   UNL     1       0.718  -0.497  -1.257  0.00  0.00    +0.010 C 
ENDBRANCH  29  31
ENDBRANCH  28  29
ENDBRANCH  22  28
ENDBRANCH   1  25
TORSDOF 6
