REMARK  Name = ZINC42027511
REMARK  4 active torsions:
REMARK  status: ('A' for Active; 'I' for Inactive)
REMARK    1  A    between atoms: C_1  and  C_2
REMARK    2  A    between atoms: C_3  and  C_9
REMARK    3  A    between atoms: C_7  and  N_8
REMARK    4  A    between atoms: N_13  and  C_14
REMARK                            x       y       z     vdW  Elec       q    Type
REMARK                         _______ _______ _______ _____ _____    ______ ____
ROOT
ATOM      1  C   UNL     1      -0.045   0.042  -2.490  0.00  0.00    +0.187 A 
ATOM      2  N   UNL     1      -0.136   1.348  -2.638  0.00  0.00    -0.108 NA
ATOM      3  N   UNL     1      -0.076   1.665  -3.881  0.00  0.00    -0.022 NA
ATOM      4  N   UNL     1       0.054   0.612  -4.612  0.00  0.00    -0.039 NA
ATOM      5  N   UNL     1       0.086  -0.490  -3.739  0.00  0.00    -0.191 N 
ENDROOT
BRANCH   5   6
ATOM      6  C   UNL     1       0.221  -1.843  -4.079  0.00  0.00    +0.089 A 
ATOM      7  C   UNL     1      -0.643  -2.786  -3.538  0.00  0.00    +0.029 A 
ATOM      8  C   UNL     1      -0.508  -4.119  -3.874  0.00  0.00    +0.004 A 
ATOM      9  C   UNL     1       0.487  -4.516  -4.748  0.00  0.00    +0.021 A 
ATOM     10  C   UNL     1       1.351  -3.581  -5.289  0.00  0.00    +0.061 A 
ATOM     11  C   UNL     1       1.217  -2.243  -4.961  0.00  0.00    +0.085 A 
ATOM     12 CL   UNL     1       2.296  -1.068  -5.644  0.00  0.00    -0.080 Cl
ATOM     13 CL   UNL     1       2.600  -4.084  -6.385  0.00  0.00    -0.082 Cl
ENDBRANCH   5   6
BRANCH   1  16
ATOM     14  C   UNL     1      -2.109   0.614  -0.546  0.00  0.00    +0.046 C 
ATOM     15  C   UNL     1      -1.064  -0.436  -0.268  0.00  0.00    -0.019 A 
ATOM     16  C   UNL     1      -0.074  -0.704  -1.212  0.00  0.00    +0.026 A 
ATOM     17  C   UNL     1       0.890  -1.677  -0.949  0.00  0.00    +0.012 A 
ATOM     18  C   UNL     1       0.861  -2.372   0.244  0.00  0.00    +0.002 A 
ATOM     19  C   UNL     1      -0.120  -2.107   1.180  0.00  0.00    +0.023 A 
ATOM     20  C   UNL     1      -1.082  -1.135   0.929  0.00  0.00    +0.028 A 
BRANCH  20  21
ATOM     21  N   UNL     1      -2.069  -0.867   1.880  0.00  0.00    -0.358 N 
ATOM     22  H   UNL     1      -2.742  -0.191   1.704  0.00  0.00    +0.142 HD
ATOM     23  H   UNL     1      -2.081  -1.356   2.718  0.00  0.00    +0.142 HD
ENDBRANCH  20  21
ENDBRANCH   1  16
TORSDOF 3
