REMARK  Name = ZINC22455144
REMARK  3 active torsions:
REMARK  status: ('A' for Active; 'I' for Inactive)
REMARK    1  A    between atoms: C_1  and  C_2
REMARK    2  A    between atoms: C_7  and  N_8
REMARK    3  A    between atoms: C_16  and  C_21
REMARK                            x       y       z     vdW  Elec       q    Type
REMARK                         _______ _______ _______ _____ _____    ______ ____
ROOT
ATOM      1  N   UNL     1      -1.147   2.263   0.020  0.00  0.00    -0.297 N 
ATOM      2  C   UNL     1      -0.030   1.466  -0.229  0.00  0.00    +0.155 A 
ATOM      3  C   UNL     1       0.002   0.019  -0.301  0.00  0.00    +0.080 A 
ATOM      4  C   UNL     1       1.319  -0.347  -0.576  0.00  0.00    +0.049 A 
ATOM      5  N   UNL     1       2.031   0.772  -0.662  0.00  0.00    -0.279 N 
ATOM      6  H   UNL     1       3.109   0.723  -0.873  0.00  0.00    +0.189 HD
ATOM      7  N   UNL     1       1.199   1.880  -0.449  0.00  0.00    -0.158 NA
ATOM      8  C   UNL     1       1.754  -1.781  -0.731  0.00  0.00    +0.059 C 
ATOM      9  C   UNL     1       0.530  -2.647  -1.047  0.00  0.00    -0.001 C 
ATOM     10  C   UNL     1      -0.578  -2.419  -0.015  0.00  0.00    +0.083 C 
ATOM     11  C   UNL     1      -1.059  -0.980  -0.135  0.00  0.00    +0.168 C 
ATOM     12  O   UNL     1      -2.235  -0.682  -0.097  0.00  0.00    -0.292 OA
ATOM     13  C   UNL     1       0.939  -4.122  -1.030  0.00  0.00    +0.008 C 
ATOM     14  H   UNL     1      -2.139   1.802   0.128  0.00  0.00    +0.154 HD
ENDROOT
BRANCH   1  21
ATOM     15  C   UNL     1      -3.503   3.840   0.263  0.00  0.00    +0.045 C 
ATOM     16  C   UNL     1      -2.128   4.456   0.253  0.00  0.00    -0.029 A 
ATOM     17  C   UNL     1      -1.984   5.825   0.364  0.00  0.00    +0.005 A 
ATOM     18  C   UNL     1      -0.722   6.392   0.356  0.00  0.00    +0.000 A 
ATOM     19  C   UNL     1       0.399   5.591   0.237  0.00  0.00    +0.002 A 
ATOM     20  C   UNL     1       0.262   4.221   0.130  0.00  0.00    +0.023 A 
ATOM     21  C   UNL     1      -1.004   3.649   0.132  0.00  0.00    +0.035 A 
ENDBRANCH   1  21
TORSDOF 1
