REMARK  Name = ZINC06668183
REMARK  5 active torsions:
REMARK  status: ('A' for Active; 'I' for Inactive)
REMARK    1  A    between atoms: C_4  and  C_7
REMARK    2  A    between atoms: C_7  and  N_8
REMARK    3  A    between atoms: C_19  and  C_27
REMARK    4  A    between atoms: C_21  and  C_25
REMARK    5  A    between atoms: C_22  and  N_24
REMARK                            x       y       z     vdW  Elec       q    Type
REMARK                         _______ _______ _______ _____ _____    ______ ____
ROOT
ATOM      1  N   UNL     1       0.002  -0.004   0.002  0.00  0.00    -0.303 N 
ATOM      2  C   UNL     1      -0.017   1.375   0.010  0.00  0.00    +0.056 A 
ATOM      3  C   UNL     1      -1.218   2.076   0.019  0.00  0.00    +0.026 A 
ATOM      4  C   UNL     1      -1.205   3.454   0.032  0.00  0.00    +0.002 A 
ATOM      5  C   UNL     1      -0.005   4.151   0.025  0.00  0.00    +0.001 A 
ATOM      6  C   UNL     1       1.187   3.482   0.010  0.00  0.00    +0.013 A 
ATOM      7  C   UNL     1       1.197   2.085   0.002  0.00  0.00    +0.041 A 
ATOM      8  C   UNL     1       2.460   1.333  -0.016  0.00  0.00    +0.148 A 
ATOM      9  C   UNL     1       2.406  -0.028  -0.025  0.00  0.00    +0.072 A 
ATOM     10  C   UNL     1       1.161  -0.683  -0.015  0.00  0.00    +0.260 A 
ATOM     11  O   UNL     1       1.133  -1.902  -0.021  0.00  0.00    -0.267 OA
ATOM     12  C   UNL     1       3.672  -0.844  -0.047  0.00  0.00    +0.103 C 
ATOM     13  C   UNL     1       4.845   0.006   0.352  0.00  0.00    +0.098 C 
ATOM     14  C   UNL     1       4.764   1.358   0.342  0.00  0.00    +0.199 C 
ATOM     15  O   UNL     1       3.635   1.992  -0.023  0.00  0.00    -0.440 OA
ENDROOT
BRANCH  12  16
ATOM     16  C   UNL     1       3.895  -1.382  -1.437  0.00  0.00    -0.034 A 
ATOM     17  C   UNL     1       4.032  -0.511  -2.501  0.00  0.00    +0.004 A 
ATOM     18  C   UNL     1       4.241  -1.005  -3.775  0.00  0.00    +0.000 A 
ATOM     19  C   UNL     1       4.303  -2.369  -3.986  0.00  0.00    +0.000 A 
ATOM     20  C   UNL     1       4.160  -3.241  -2.923  0.00  0.00    +0.000 A 
ATOM     21  C   UNL     1       3.956  -2.747  -1.648  0.00  0.00    +0.004 A 
ENDBRANCH  12  16
BRANCH  14  22
ATOM     22  N   UNL     1       5.858   2.099   0.714  0.00  0.00    -0.328 N 
ATOM     23  H   UNL     1       5.812   3.068   0.711  0.00  0.00    +0.145 HD
ATOM     24  H   UNL     1       6.678   1.653   0.979  0.00  0.00    +0.145 HD
ENDBRANCH  14  22
BRANCH  13  25
ATOM     25  C   UNL     1       6.069  -0.623   0.749  0.00  0.00    +0.101 C 
ATOM     26  N   UNL     1       7.039  -1.123   1.065  0.00  0.00    -0.191 NA
ENDBRANCH  13  25
BRANCH   1  27
ATOM     27  C   UNL     1      -1.264  -0.741   0.013  0.00  0.00    +0.160 C 
BRANCH  27  31
ATOM     28  C   UNL     1      -2.541  -1.437  -4.004  0.00  0.00    +0.000 A 
ATOM     29  C   UNL     1      -1.732  -2.359  -3.366  0.00  0.00    +0.000 A 
ATOM     30  C   UNL     1      -1.319  -2.134  -2.067  0.00  0.00    +0.005 A 
ATOM     31  C   UNL     1      -1.714  -0.987  -1.404  0.00  0.00    -0.028 A 
ATOM     32  C   UNL     1      -2.528  -0.067  -2.040  0.00  0.00    +0.005 A 
ATOM     33  C   UNL     1      -2.937  -0.290  -3.341  0.00  0.00    +0.000 A 
ENDBRANCH  27  31
ENDBRANCH   1  27
TORSDOF 5
