REMARK  Name = ZINC17721002
REMARK  12 active torsions:
REMARK  status: ('A' for Active; 'I' for Inactive)
REMARK    1  A    between atoms: C_1  and  C_2
REMARK    2  A    between atoms: C_5  and  C_8
REMARK    3  A    between atoms: C_11  and  C_13
REMARK    4  A    between atoms: C_13  and  C_15
REMARK    5  A    between atoms: C_13  and  O_16
REMARK    6  A    between atoms: O_16  and  C_17
REMARK    7  A    between atoms: C_17  and  C_19
REMARK    8  A    between atoms: C_24  and  C_25
REMARK    9  A    between atoms: C_25  and  C_27
REMARK   10  A    between atoms: C_30  and  N_36
REMARK   11  A    between atoms: C_31  and  N_33
REMARK   12  A    between atoms: N_36  and  C_37
REMARK                            x       y       z     vdW  Elec       q    Type
REMARK                         _______ _______ _______ _____ _____    ______ ____
ROOT
ATOM      1  C   UNL     1       4.121   4.803  -2.497  0.00  0.00    +0.070 A 
ATOM      2  C   UNL     1       5.045   3.796  -2.766  0.00  0.00    +0.016 A 
ATOM      3  C   UNL     1       5.928   3.933  -3.820  0.00  0.00    +0.001 A 
ATOM      4  C   UNL     1       5.909   5.071  -4.607  0.00  0.00    +0.001 A 
ATOM      5  C   UNL     1       5.004   6.083  -4.352  0.00  0.00    +0.012 A 
ATOM      6  C   UNL     1       4.102   5.962  -3.297  0.00  0.00    +0.036 A 
ENDROOT
BRANCH   1   7
ATOM      7  C   UNL     1       3.171   4.660  -1.373  0.00  0.00    +0.341 C 
ATOM      8  O   UNL     1       2.439   5.582  -1.075  0.00  0.00    -0.245 OA
BRANCH   7   9
ATOM      9  O   UNL     1       3.117   3.506  -0.680  0.00  0.00    -0.448 OA
BRANCH   9  10
ATOM     10  C   UNL     1       2.160   3.436   0.410  0.00  0.00    +0.261 C 
ATOM     11  C   UNL     1       2.825   3.912   1.703  0.00  0.00    +0.062 C 
BRANCH  10  15
ATOM     12  C   UNL     1       0.463   0.266   0.859  0.00  0.00    +0.249 A 
ATOM     13  N   UNL     1       1.720  -0.096   0.747  0.00  0.00    -0.107 NA
ATOM     14  N   UNL     1       2.450   0.950   0.580  0.00  0.00    -0.108 NA
ATOM     15  C   UNL     1       1.694   2.013   0.578  0.00  0.00    +0.258 A 
ATOM     16  O   UNL     1       0.424   1.610   0.753  0.00  0.00    -0.416 OA
BRANCH  12  21
ATOM     17  C   UNL     1      -4.039  -3.229   1.652  0.00  0.00    +0.044 C 
ATOM     18  C   UNL     1      -2.860  -2.313   1.444  0.00  0.00    -0.050 A 
ATOM     19  C   UNL     1      -1.586  -2.844   1.343  0.00  0.00    +0.004 A 
ATOM     20  C   UNL     1      -0.502  -2.011   1.153  0.00  0.00    +0.013 A 
ATOM     21  C   UNL     1      -0.694  -0.632   1.062  0.00  0.00    +0.038 A 
ATOM     22  C   UNL     1      -1.981  -0.103   1.169  0.00  0.00    +0.013 A 
ATOM     23  C   UNL     1      -3.056  -0.947   1.354  0.00  0.00    +0.004 A 
ENDBRANCH  12  21
ENDBRANCH  10  15
ENDBRANCH   9  10
ENDBRANCH   7   9
ENDBRANCH   1   7
BRANCH   6  24
ATOM     24  C   UNL     1       3.131   7.042  -3.019  0.00  0.00    +0.194 C 
ATOM     25  O   UNL     1       3.497   8.059  -2.462  0.00  0.00    -0.287 OA
BRANCH  24  26
ATOM     26  C   UNL     1       1.722   6.886  -3.418  0.00  0.00    +0.025 A 
ATOM     27  C   UNL     1       1.283   5.686  -3.990  0.00  0.00    +0.013 A 
ATOM     28  C   UNL     1      -0.026   5.543  -4.354  0.00  0.00    +0.026 A 
ATOM     29  C   UNL     1      -0.921   6.594  -4.166  0.00  0.00    +0.058 A 
ATOM     30  C   UNL     1      -0.487   7.791  -3.602  0.00  0.00    +0.148 A 
ATOM     31  C   UNL     1       0.819   7.939  -3.231  0.00  0.00    +0.046 A 
BRANCH  30  32
ATOM     32  N   UNL     1      -1.442   8.905  -3.405  0.00  0.00    +0.058 N 
ATOM     33  O   UNL     1      -1.092   9.909  -2.812  0.00  0.00    -0.126 OA
ATOM     34  O   UNL     1      -2.578   8.816  -3.835  0.00  0.00    -0.126 OA
ENDBRANCH  30  32
BRANCH  29  35
ATOM     35  N   UNL     1      -2.251   6.447  -4.542  0.00  0.00    -0.345 N 
ATOM     36  C   UNL     1      -2.739   5.149  -5.016  0.00  0.00    +0.125 C 
ATOM     37  H   UNL     1      -2.856   7.204  -4.491  0.00  0.00    +0.146 HD
ENDBRANCH  29  35
ENDBRANCH  24  26
ENDBRANCH   6  24
TORSDOF 9
