REMARK  Name = ZINC32902361
REMARK  7 active torsions:
REMARK  status: ('A' for Active; 'I' for Inactive)
REMARK    1  A    between atoms: C_1  and  O_2
REMARK    2  A    between atoms: O_2  and  C_3
REMARK    3  A    between atoms: C_6  and  C_9
REMARK    4  A    between atoms: C_9  and  C_11
REMARK    5  A    between atoms: C_9  and  N_28
REMARK    6  A    between atoms: C_11  and  N_12
REMARK    7  A    between atoms: C_13  and  C_15
REMARK                            x       y       z     vdW  Elec       q    Type
REMARK                         _______ _______ _______ _____ _____    ______ ____
ROOT
ATOM      1  C   UNL     1      -1.572   4.525   4.390  0.00  0.00    +0.093 C 
ENDROOT
BRANCH   1   2
ATOM      2  N   UNL     1      -0.695   3.523   5.001  0.00  0.00    -0.314 N 
ATOM      3  C   UNL     1      -0.863   2.217   4.718  0.00  0.00    +0.248 C 
ATOM      4  O   UNL     1      -1.740   1.869   3.956  0.00  0.00    -0.272 OA
ATOM      5  H   UNL     1       0.102   3.838   5.692  0.00  0.00    +0.149 HD
BRANCH   3   6
ATOM      6  C   UNL     1       0.040   1.187   5.347  0.00  0.00    +0.169 C 
ATOM      7  C   UNL     1       1.527   1.344   4.987  0.00  0.00    +0.056 C 
ATOM      8  C   UNL     1       1.622   0.425   3.745  0.00  0.00    +0.100 C 
ATOM      9  C   UNL     1       0.503  -0.575   3.930  0.00  0.00    +0.221 C 
ATOM     10  O   UNL     1       0.334  -1.559   3.242  0.00  0.00    -0.275 OA
ATOM     11  N   UNL     1      -0.284  -0.216   4.972  0.00  0.00    -0.246 N 
ATOM     12  C   UNL     1      -1.265  -0.779   5.816  0.00  0.00    +0.052 A 
ATOM     13  C   UNL     1      -2.194  -1.769   5.476  0.00  0.00    +0.025 A 
ATOM     14  C   UNL     1      -2.980  -2.358   6.442  0.00  0.00    +0.002 A 
ATOM     15  C   UNL     1      -2.874  -1.991   7.771  0.00  0.00    +0.001 A 
ATOM     16  C   UNL     1      -1.990  -0.986   8.127  0.00  0.00    +0.016 A 
ATOM     17  C   UNL     1      -1.236  -0.371   7.157  0.00  0.00    +0.032 A 
ATOM     18  S   UNL     1      -0.155   1.045   7.170  0.00  0.00    -0.088 S 
ENDBRANCH   3   6
ENDBRANCH   1   2
BRANCH   1  19
ATOM     19  C   UNL     1      -1.264   5.902   4.981  0.00  0.00    -0.020 C 
BRANCH  19  20
ATOM     20  N   UNL     1      -2.093   6.916   4.316  0.00  0.00    +0.385 N 
ATOM     21  C   UNL     1      -1.867   6.911   2.865  0.00  0.00    -0.078 C 
ATOM     22  C   UNL     1      -2.847   7.874   2.191  0.00  0.00    -0.019 C 
ATOM     23  C   UNL     1      -2.639   9.283   2.754  0.00  0.00    -0.004 C 
ATOM     24  C   UNL     1      -2.833   9.251   4.273  0.00  0.00    -0.019 C 
ATOM     25  C   UNL     1      -1.853   8.248   4.886  0.00  0.00    -0.078 C 
ATOM     26  H   UNL     1      -3.148   6.662   4.492  0.00  0.00    -0.081 HD
ENDBRANCH  19  20
BRANCH  19  30
ATOM     27  C   UNL     1      -2.125   5.881   9.166  0.00  0.00    +0.120 A 
ATOM     28  C   UNL     1      -0.818   5.739   8.725  0.00  0.00    +0.046 A 
ATOM     29  C   UNL     1      -0.542   5.746   7.372  0.00  0.00    +0.005 A 
ATOM     30  C   UNL     1      -1.568   5.894   6.457  0.00  0.00    -0.059 A 
ATOM     31  C   UNL     1      -2.871   6.041   6.894  0.00  0.00    +0.005 A 
ATOM     32  C   UNL     1      -3.153   6.029   8.246  0.00  0.00    +0.046 A 
BRANCH  27  34
ATOM     33  C   UNL     1      -3.768   6.025  10.879  0.00  0.00    +0.277 C 
ATOM     34  O   UNL     1      -2.399   5.875  10.498  0.00  0.00    -0.495 OA
ENDBRANCH  27  34
ENDBRANCH  19  30
ENDBRANCH   1  19
TORSDOF 6
