REMARK  Name = ZINC38918416
REMARK  14 active torsions:
REMARK  status: ('A' for Active; 'I' for Inactive)
REMARK    1  A    between atoms: C_1  and  C_2
REMARK    2  A    between atoms: C_2  and  O_3
REMARK    3  A    between atoms: O_3  and  C_4
REMARK    4  A    between atoms: C_7  and  N_10
REMARK    5  A    between atoms: N_10  and  C_11
REMARK    6  A    between atoms: C_11  and  C_12
REMARK    7  A    between atoms: C_18  and  C_24
REMARK    8  A    between atoms: C_25  and  C_27
REMARK    9  A    between atoms: C_29  and  O_37
REMARK   10  A    between atoms: C_30  and  O_35
REMARK   11  A    between atoms: C_31  and  O_33
REMARK   12  A    between atoms: O_33  and  C_34
REMARK   13  A    between atoms: O_35  and  C_36
REMARK   14  A    between atoms: O_37  and  C_38
REMARK                            x       y       z     vdW  Elec       q    Type
REMARK                         _______ _______ _______ _____ _____    ______ ____
ROOT
ATOM      1  N   UNL     1      -2.220  -5.303  -1.505  0.00  0.00    -0.266 N 
ATOM      2  C   UNL     1      -0.996  -5.804  -1.765  0.00  0.00    +0.251 C 
ATOM      3  O   UNL     1      -0.069  -5.053  -2.000  0.00  0.00    -0.270 OA
ENDROOT
BRANCH   1   7
ATOM      4  C   UNL     1      -2.825  -1.178  -1.498  0.00  0.00    +0.121 A 
ATOM      5  C   UNL     1      -1.609  -1.699  -1.915  0.00  0.00    +0.047 A 
ATOM      6  C   UNL     1      -1.408  -3.065  -1.917  0.00  0.00    +0.027 A 
ATOM      7  C   UNL     1      -2.423  -3.917  -1.502  0.00  0.00    +0.037 A 
ATOM      8  C   UNL     1      -3.640  -3.394  -1.085  0.00  0.00    +0.027 A 
ATOM      9  C   UNL     1      -3.838  -2.028  -1.078  0.00  0.00    +0.047 A 
BRANCH   4  10
ATOM     10  O   UNL     1      -3.023   0.168  -1.496  0.00  0.00    -0.492 OA
BRANCH  10  12
ATOM     11  C   UNL     1      -2.433   2.439  -2.071  0.00  0.00    +0.048 C 
ATOM     12  C   UNL     1      -1.983   0.977  -2.048  0.00  0.00    +0.225 C 
ENDBRANCH  10  12
ENDBRANCH   4  10
ENDBRANCH   1   7
BRANCH   2  13
ATOM     13  C   UNL     1      -0.780  -7.264  -1.765  0.00  0.00    +0.044 A 
ATOM     14  C   UNL     1      -1.862  -8.130  -1.943  0.00  0.00    +0.062 A 
ATOM     15  C   UNL     1      -1.657  -9.498  -1.942  0.00  0.00    +0.166 A 
ATOM     16  C   UNL     1      -0.376 -10.011  -1.763  0.00  0.00    +0.204 A 
ATOM     17  C   UNL     1       0.704  -9.149  -1.585  0.00  0.00    +0.166 A 
ATOM     18  C   UNL     1       0.506  -7.782  -1.591  0.00  0.00    +0.062 A 
BRANCH  17  19
ATOM     19  O   UNL     1       1.954  -9.654  -1.411  0.00  0.00    -0.491 OA
ATOM     20  C   UNL     1       3.015  -8.713  -1.234  0.00  0.00    +0.277 C 
ENDBRANCH  17  19
BRANCH  16  21
ATOM     21  O   UNL     1      -0.178 -11.355  -1.762  0.00  0.00    -0.488 OA
ATOM     22  C   UNL     1       0.103 -11.971  -3.020  0.00  0.00    +0.277 C 
ENDBRANCH  16  21
BRANCH  15  23
ATOM     23  O   UNL     1      -2.709 -10.342  -2.116  0.00  0.00    -0.491 OA
ATOM     24  C   UNL     1      -4.014  -9.759  -2.127  0.00  0.00    +0.277 C 
ENDBRANCH  15  23
ENDBRANCH   2  13
BRANCH   1  25
ATOM     25  C   UNL     1      -3.337  -6.208  -1.225  0.00  0.00    +0.131 C 
BRANCH  25  26
ATOM     26  C   UNL     1      -4.158  -6.414  -2.499  0.00  0.00    +0.116 C 
ATOM     27  C   UNL     1      -5.458  -7.090  -2.110  0.00  0.00    -0.003 C 
ATOM     28  C   UNL     1      -6.617  -6.447  -2.431  0.00  0.00    -0.007 A 
ATOM     29  C   UNL     1      -7.917  -7.029  -2.093  0.00  0.00    +0.010 A 
ATOM     30  C   UNL     1      -9.045  -6.353  -2.433  0.00  0.00    +0.004 A 
ATOM     31  C   UNL     1      -8.985  -5.125  -3.093  0.00  0.00    -0.049 A 
ATOM     32  C   UNL     1      -7.811  -4.532  -3.434  0.00  0.00    +0.027 A 
ATOM     33  C   UNL     1      -6.585  -5.149  -3.127  0.00  0.00    +0.041 A 
ATOM     34  N   UNL     1      -5.439  -4.558  -3.467  0.00  0.00    -0.284 N 
ATOM     35  C   UNL     1      -4.253  -5.083  -3.210  0.00  0.00    +0.226 C 
ATOM     36  O   UNL     1      -3.241  -4.496  -3.545  0.00  0.00    -0.275 OA
ATOM     37  C   UNL     1     -10.275  -4.429  -3.442  0.00  0.00    +0.044 C 
ATOM     38  H   UNL     1      -5.477  -3.704  -3.924  0.00  0.00    +0.155 HD
ENDBRANCH  25  26
ENDBRANCH   1  25
TORSDOF 9
