REMARK  Name = ZINC33897395
REMARK  10 active torsions:
REMARK  status: ('A' for Active; 'I' for Inactive)
REMARK    1  A    between atoms: C_1  and  C_2
REMARK    2  A    between atoms: C_2  and  C_3
REMARK    3  A    between atoms: C_6  and  N_9
REMARK    4  A    between atoms: C_14  and  C_32
REMARK    5  A    between atoms: C_17  and  C_22
REMARK    6  A    between atoms: C_17  and  C_29
REMARK    7  A    between atoms: C_22  and  C_23
REMARK    8  A    between atoms: C_35  and  N_38
REMARK    9  A    between atoms: N_38  and  C_39
REMARK   10  A    between atoms: N_38  and  C_40
REMARK                            x       y       z     vdW  Elec       q    Type
REMARK                         _______ _______ _______ _____ _____    ______ ____
ROOT
ATOM      1  N   UNL     1      -5.390  -2.226  -0.866  0.00  0.00    -0.210 N 
ATOM      2  C   UNL     1      -5.832  -2.215   0.434  0.00  0.00    +0.229 C 
ATOM      3  O   UNL     1      -5.281  -1.730   1.399  0.00  0.00    -0.275 OA
ATOM      4  C   UNL     1      -7.097  -2.906   0.398  0.00  0.00    +0.077 C 
ATOM      5  C   UNL     1      -8.339  -3.046   1.178  0.00  0.00    -0.027 C 
ATOM      6  N   UNL     1      -9.224  -3.804   0.228  0.00  0.00    +0.395 N 
ATOM      7  C   UNL     1      -8.716  -3.567  -1.157  0.00  0.00    +0.048 C 
ATOM      8  C   UNL     1      -7.664  -2.458  -1.007  0.00  0.00    +0.086 C 
ATOM      9  C   UNL     1      -6.365  -2.588  -1.752  0.00  0.00    +0.229 C 
ATOM     10  O   UNL     1      -6.214  -2.942  -2.901  0.00  0.00    -0.275 OA
ATOM     11  H   UNL     1      -9.189  -4.790   0.440  0.00  0.00    -0.083 HD
ATOM     12  H   UNL     1     -10.173  -3.470   0.305  0.00  0.00    -0.083 HD
ENDROOT
BRANCH   1  16
ATOM     13  C   UNL     1      -1.496  -1.248  -1.989  0.00  0.00    -0.048 A 
ATOM     14  C   UNL     1      -1.858  -1.216  -0.655  0.00  0.00    +0.005 A 
ATOM     15  C   UNL     1      -3.148  -1.540  -0.280  0.00  0.00    +0.024 A 
ATOM     16  C   UNL     1      -4.080  -1.897  -1.244  0.00  0.00    +0.044 A 
ATOM     17  C   UNL     1      -3.714  -1.928  -2.582  0.00  0.00    +0.024 A 
ATOM     18  C   UNL     1      -2.425  -1.599  -2.952  0.00  0.00    +0.005 A 
BRANCH  13  20
ATOM     19  C   UNL     1       0.002   0.609  -2.664  0.00  0.00    +0.009 C 
ATOM     20  C   UNL     1      -0.089  -0.895  -2.395  0.00  0.00    +0.032 C 
ENDBRANCH  13  20
ENDBRANCH   1  16
BRANCH   5  21
ATOM     21  C   UNL     1      -8.097  -3.839   2.437  0.00  0.00    -0.060 A 
ATOM     22  C   UNL     1      -7.881  -5.202   2.362  0.00  0.00    +0.004 A 
ATOM     23  C   UNL     1      -7.659  -5.932   3.514  0.00  0.00    +0.023 A 
ATOM     24  C   UNL     1      -7.653  -5.294   4.748  0.00  0.00    +0.029 A 
ATOM     25  C   UNL     1      -7.871  -3.924   4.819  0.00  0.00    +0.023 A 
ATOM     26  C   UNL     1      -8.086  -3.200   3.663  0.00  0.00    +0.004 A 
BRANCH  24  27
ATOM     27  N   UNL     1      -7.430  -6.029   5.915  0.00  0.00    -0.336 N 
ATOM     28  C   UNL     1      -7.201  -7.473   5.838  0.00  0.00    +0.129 C 
ATOM     29  C   UNL     1      -7.424  -5.354   7.215  0.00  0.00    +0.129 C 
ENDBRANCH  24  27
ENDBRANCH   5  21
BRANCH   7  30
ATOM     30  C   UNL     1      -9.834  -3.093  -2.049  0.00  0.00    +0.346 C 
ATOM     31  O   UNL     1     -10.964  -2.982  -1.604  0.00  0.00    -0.248 OA
ATOM     32  O   UNL     1      -9.609  -2.820  -3.216  0.00  0.00    -0.248 OA
ENDBRANCH   7  30
BRANCH   7  33
ATOM     33  C   UNL     1      -8.095  -4.847  -1.719  0.00  0.00    +0.003 C 
BRANCH  33  34
ATOM     34  C   UNL     1      -9.201  -5.860  -2.022  0.00  0.00    -0.012 C 
ATOM     35  C   UNL     1      -9.922  -6.231  -0.724  0.00  0.00    +0.003 C 
ATOM     36  C   UNL     1     -11.028  -7.244  -1.027  0.00  0.00    +0.000 C 
ATOM     37  C   UNL     1     -10.413  -8.501  -1.645  0.00  0.00    +0.000 C 
ATOM     38  C   UNL     1      -9.692  -8.130  -2.943  0.00  0.00    +0.000 C 
ATOM     39  C   UNL     1      -8.586  -7.117  -2.641  0.00  0.00    +0.003 C 
ENDBRANCH  33  34
ENDBRANCH   7  33
TORSDOF 7
