REMARK  Name = ZINC40321289
REMARK  7 active torsions:
REMARK  status: ('A' for Active; 'I' for Inactive)
REMARK    1  A    between atoms: C_4  and  S_7
REMARK    2  A    between atoms: S_7  and  C_10
REMARK    3  A    between atoms: C_13  and  C_15
REMARK    4  A    between atoms: N_17  and  C_18
REMARK    5  A    between atoms: C_19  and  C_26
REMARK    6  A    between atoms: N_28  and  C_29
REMARK    7  A    between atoms: C_29  and  C_30
REMARK                            x       y       z     vdW  Elec       q    Type
REMARK                         _______ _______ _______ _____ _____    ______ ____
ROOT
ATOM      1  C   UNL     1       6.053  -0.168   4.716  0.00  0.00    +0.284 C 
ATOM      2  O   UNL     1       6.132  -0.739   5.788  0.00  0.00    -0.266 OA
ATOM      3  N   UNL     1       6.651   1.027   4.543  0.00  0.00    -0.273 N 
ATOM      4  H   UNL     1       6.588   1.482   3.688  0.00  0.00    +0.156 HD
ENDROOT
BRANCH   3   5
ATOM      5  C   UNL     1       7.355   1.606   5.585  0.00  0.00    +0.085 A 
ATOM      6  C   UNL     1       8.021   2.818   5.592  0.00  0.00    +0.069 A 
ATOM      7  C   UNL     1       8.693   3.207   6.831  0.00  0.00    -0.023 A 
ATOM      8  C   UNL     1       8.571   2.309   7.825  0.00  0.00    -0.004 A 
ATOM      9  S   UNL     1       7.590   1.003   7.132  0.00  0.00    -0.077 S 
ATOM     10  C   UNL     1       9.283   2.755   9.074  0.00  0.00    +0.043 C 
ATOM     11  C   UNL     1      10.239   3.872   8.600  0.00  0.00    +0.010 C 
ATOM     12  C   UNL     1       9.521   4.386   7.336  0.00  0.00    +0.037 C 
BRANCH   6  13
ATOM     13  C   UNL     1       8.053   3.678   4.405  0.00  0.00    +0.247 C 
ATOM     14  O   UNL     1       7.187   4.517   4.238  0.00  0.00    -0.270 OA
ATOM     15  N   UNL     1       9.041   3.540   3.499  0.00  0.00    -0.309 N 
ATOM     16  H   UNL     1       9.731   2.872   3.632  0.00  0.00    +0.149 HD
BRANCH  15  17
ATOM     17  C   UNL     1       9.072   4.399   2.313  0.00  0.00    +0.136 C 
BRANCH  17  18
ATOM     18  C   UNL     1      10.286   4.039   1.454  0.00  0.00    +0.135 C 
ATOM     19  C   UNL     1      10.396   5.018   0.266  0.00  0.00    +0.035 C 
ATOM     20  C   UNL     1      10.836   4.082  -0.893  0.00  0.00    +0.031 C 
ATOM     21  C   UNL     1      10.086   2.779  -0.518  0.00  0.00    +0.160 C 
ATOM     22  O   UNL     1      10.128   2.720   0.918  0.00  0.00    -0.375 OA
ENDBRANCH  17  18
ENDBRANCH  15  17
ENDBRANCH   6  13
ENDBRANCH   3   5
BRANCH   1  26
ATOM     23  C   UNL     1       4.406  -1.094   1.637  0.00  0.00    +0.246 A 
ATOM     24  C   UNL     1       4.085  -2.173   2.385  0.00  0.00    +0.070 A 
ATOM     25  C   UNL     1       4.658  -1.982   3.652  0.00  0.00    +0.056 A 
ATOM     26  C   UNL     1       5.308  -0.781   3.612  0.00  0.00    +0.192 A 
ATOM     27  O   UNL     1       5.147  -0.261   2.378  0.00  0.00    -0.433 OA
BRANCH  23  28
ATOM     28  S   UNL     1       3.934  -0.832  -0.041  0.00  0.00    +0.058 S 
ATOM     29  O   UNL     1       3.674  -2.114  -0.595  0.00  0.00    -0.161 OA
ATOM     30  O   UNL     1       4.890   0.060  -0.597  0.00  0.00    -0.161 OA
BRANCH  28  34
ATOM     31  C   UNL     1      -0.017   1.378   0.010  0.00  0.00    +0.000 A 
ATOM     32  C   UNL     1       1.171   2.086   0.002  0.00  0.00    +0.002 A 
ATOM     33  C   UNL     1       2.377   1.411  -0.013  0.00  0.00    +0.027 A 
ATOM     34  C   UNL     1       2.396   0.029  -0.020  0.00  0.00    +0.097 A 
ATOM     35  C   UNL     1       1.208  -0.679  -0.012  0.00  0.00    +0.027 A 
ATOM     36  C   UNL     1       0.002  -0.004   0.002  0.00  0.00    +0.002 A 
ENDBRANCH  28  34
ENDBRANCH  23  28
ENDBRANCH   1  26
TORSDOF 7
