REMARK  Name = ZINC34979123
REMARK  12 active torsions:
REMARK  status: ('A' for Active; 'I' for Inactive)
REMARK    1  A    between atoms: C_1  and  C_2
REMARK    2  A    between atoms: C_2  and  C_3
REMARK    3  A    between atoms: C_3  and  C_5
REMARK    4  A    between atoms: C_3  and  C_6
REMARK    5  A    between atoms: C_6  and  C_8
REMARK    6  A    between atoms: C_6  and  N_27
REMARK    7  A    between atoms: C_14  and  C_17
REMARK    8  A    between atoms: C_18  and  C_20
REMARK    9  A    between atoms: C_20  and  C_21
REMARK   10  A    between atoms: C_21  and  C_22
REMARK   11  A    between atoms: C_28  and  C_30
REMARK   12  A    between atoms: C_33  and  C_36
REMARK                            x       y       z     vdW  Elec       q    Type
REMARK                         _______ _______ _______ _____ _____    ______ ____
ROOT
ATOM      1  C   UNL     1      -2.325   1.207   1.689  0.00  0.00    +0.236 C 
ATOM      2  O   UNL     1      -3.448   1.651   1.800  0.00  0.00    -0.274 OA
ATOM      3  N   UNL     1      -1.263   2.034   1.766  0.00  0.00    -0.297 N 
ATOM      4  C   UNL     1       0.096   1.532   1.518  0.00  0.00    +0.127 C 
ATOM      5  C   UNL     1       0.971   1.866   2.733  0.00  0.00    +0.127 C 
ATOM      6  N   UNL     1       0.790   3.286   3.066  0.00  0.00    -0.296 N 
ATOM      7  C   UNL     1      -0.569   3.788   3.314  0.00  0.00    +0.090 C 
ATOM      8  C   UNL     1      -1.444   3.455   2.094  0.00  0.00    +0.130 C 
ATOM      9  C   UNL     1      -1.143   3.119   4.564  0.00  0.00    +0.029 C 
ATOM     10  C   UNL     1       1.851   4.112   3.143  0.00  0.00    +0.216 C 
ATOM     11  O   UNL     1       1.690   5.282   3.418  0.00  0.00    -0.276 OA
ENDROOT
BRANCH   1  12
ATOM     12  C   UNL     1      -2.116  -0.268   1.464  0.00  0.00    +0.162 C 
BRANCH  12  13
ATOM     13  N   UNL     1      -3.267  -1.009   1.985  0.00  0.00    -0.300 N 
ATOM     14  C   UNL     1      -3.126  -2.295   2.363  0.00  0.00    +0.245 C 
ATOM     15  O   UNL     1      -2.043  -2.840   2.272  0.00  0.00    -0.270 OA
ATOM     16  H   UNL     1      -4.131  -0.575   2.058  0.00  0.00    +0.150 HD
BRANCH  14  17
ATOM     17  C   UNL     1      -4.287  -3.043   2.889  0.00  0.00    +0.037 A 
ATOM     18  C   UNL     1      -5.534  -2.422   2.990  0.00  0.00    +0.013 A 
ATOM     19  C   UNL     1      -6.614  -3.126   3.481  0.00  0.00    +0.004 A 
ATOM     20  C   UNL     1      -6.463  -4.444   3.873  0.00  0.00    -0.050 A 
ATOM     21  C   UNL     1      -5.231  -5.065   3.777  0.00  0.00    +0.004 A 
ATOM     22  C   UNL     1      -4.144  -4.375   3.282  0.00  0.00    +0.013 A 
ATOM     23  C   UNL     1      -7.648  -5.207   4.410  0.00  0.00    +0.044 C 
ENDBRANCH  14  17
ENDBRANCH  12  13
BRANCH  12  24
ATOM     24  C   UNL     1      -1.970  -0.540  -0.035  0.00  0.00    +0.015 C 
ATOM     25  C   UNL     1      -3.291  -0.227  -0.741  0.00  0.00    +0.010 C 
BRANCH  24  27
ATOM     26  C   UNL     1      -0.231  -2.293   0.345  0.00  0.00    +0.004 C 
ATOM     27  C   UNL     1      -1.610  -2.011  -0.254  0.00  0.00    +0.002 C 
ENDBRANCH  24  27
ENDBRANCH  12  24
ENDBRANCH   1  12
BRANCH  10  28
ATOM     28  C   UNL     1       3.239   3.583   2.886  0.00  0.00    +0.096 C 
BRANCH  28  29
ATOM     29  C   UNL     1       4.254   4.719   3.037  0.00  0.00    +0.013 C 
BRANCH  29  30
ATOM     30  C   UNL     1       5.662   4.181   2.776  0.00  0.00    -0.011 C 
ATOM     31  C   UNL     1       6.073   3.208   3.901  0.00  0.00    +0.003 C 
ATOM     32  C   UNL     1       7.582   3.487   4.112  0.00  0.00    +0.000 C 
ATOM     33  C   UNL     1       7.673   5.024   3.939  0.00  0.00    +0.000 C 
ATOM     34  C   UNL     1       6.679   5.336   2.801  0.00  0.00    +0.003 C 
ENDBRANCH  29  30
ENDBRANCH  28  29
ENDBRANCH  10  28
TORSDOF 8
