REMARK  Name = ZINC08582574
REMARK  11 active torsions:
REMARK  status: ('A' for Active; 'I' for Inactive)
REMARK    1  A    between atoms: C_1  and  C_2
REMARK    2  A    between atoms: C_2  and  C_3
REMARK    3  A    between atoms: C_10  and  C_14
REMARK    4  A    between atoms: C_11  and  O_13
REMARK    5  A    between atoms: C_14  and  C_16
REMARK    6  A    between atoms: C_14  and  N_66
REMARK    7  A    between atoms: N_20  and  C_21
REMARK    8  A    between atoms: C_21  and  C_22
REMARK    9  A    between atoms: C_22  and  O_23
REMARK   10  A    between atoms: O_23  and  C_24
REMARK   11  A    between atoms: N_27  and  C_30
REMARK                            x       y       z     vdW  Elec       q    Type
REMARK                         _______ _______ _______ _____ _____    ______ ____
ROOT
ATOM      1  C   UNL     1       4.923   1.245  -0.040  0.00  0.00    +0.039 C 
ENDROOT
BRANCH   1   9
ATOM      2  C   UNL     1      -1.199   1.744   0.017  0.00  0.00    -0.047 A 
ATOM      3  C   UNL     1      -1.234   3.137   0.032  0.00  0.00    +0.006 A 
ATOM      4  C   UNL     1      -0.086   3.868   0.024  0.00  0.00    +0.029 A 
ATOM      5  C   UNL     1       1.158   3.214   0.008  0.00  0.00    +0.075 A 
ATOM      6  C   UNL     1       1.191   1.798   0.000  0.00  0.00    +0.001 A 
ATOM      7  C   UNL     1      -0.013   1.076   0.008  0.00  0.00    +0.013 A 
ATOM      8  C   UNL     1       2.438   1.142  -0.016  0.00  0.00    +0.017 A 
ATOM      9  C   UNL     1       3.568   1.904  -0.023  0.00  0.00    +0.008 A 
ATOM     10  C   UNL     1       3.468   3.301  -0.015  0.00  0.00    +0.215 A 
ATOM     11  N   UNL     1       2.301   3.908   0.000  0.00  0.00    -0.213 NA
BRANCH   2  13
ATOM     12  C   UNL     1      -2.921   0.697   1.462  0.00  0.00    +0.009 C 
ATOM     13  C   UNL     1      -2.490   0.968   0.019  0.00  0.00    +0.032 C 
ENDBRANCH   2  13
BRANCH  10  14
ATOM     14  O   UNL     1       4.601   4.045  -0.023  0.00  0.00    -0.492 OA
ATOM     15  H   UNL     1       4.939   4.256   0.858  0.00  0.00    +0.294 HD
ENDBRANCH  10  14
ENDBRANCH   1   9
BRANCH   1  21
ATOM     16  C   UNL     1       4.185  -0.195   1.762  0.00  0.00    -0.058 C 
ATOM     17  C   UNL     1       4.001  -1.656   2.178  0.00  0.00    +0.086 C 
ATOM     18  N   UNL     1       5.306  -2.332   2.175  0.00  0.00    -0.333 N 
ATOM     19  C   UNL     1       5.919  -2.279   0.841  0.00  0.00    +0.086 C 
ATOM     20  C   UNL     1       6.104  -0.818   0.424  0.00  0.00    -0.058 C 
ATOM     21  N   UNL     1       4.782  -0.156   0.410  0.00  0.00    +0.391 N 
ATOM     22  H   UNL     1       4.165  -0.656  -0.241  0.00  0.00    -0.080 HD
BRANCH  18  23
ATOM     23  C   UNL     1       5.187  -3.652   2.621  0.00  0.00    +0.030 A 
ATOM     24  C   UNL     1       5.622  -4.698   1.818  0.00  0.00    +0.026 A 
ATOM     25  C   UNL     1       5.508  -6.001   2.262  0.00  0.00    +0.040 A 
ATOM     26  C   UNL     1       4.952  -6.265   3.502  0.00  0.00    +0.124 A 
ATOM     27  C   UNL     1       4.513  -5.224   4.302  0.00  0.00    +0.040 A 
ATOM     28  C   UNL     1       4.629  -3.919   3.864  0.00  0.00    +0.026 A 
ATOM     29  F   UNL     1       4.837  -7.541   3.932  0.00  0.00    -0.205 F 
ENDBRANCH  18  23
ENDBRANCH   1  21
BRANCH   1  30
ATOM     30  C   UNL     1       5.469   1.254  -1.445  0.00  0.00    +0.142 A 
ATOM     31  N   UNL     1       5.088   0.488  -2.438  0.00  0.00    -0.115 NA
ATOM     32  N   UNL     1       5.790   0.798  -3.472  0.00  0.00    -0.023 NA
ATOM     33  N   UNL     1       6.609   1.742  -3.166  0.00  0.00    -0.044 NA
ATOM     34  N   UNL     1       6.438   2.055  -1.925  0.00  0.00    -0.228 N 
BRANCH  34  35
ATOM     35  C   UNL     1       7.165   3.086  -1.180  0.00  0.00    +0.175 C 
BRANCH  35  36
ATOM     36  C   UNL     1       8.411   2.470  -0.541  0.00  0.00    +0.183 C 
BRANCH  36  37
ATOM     37  O   UNL     1       9.120   3.475   0.186  0.00  0.00    -0.381 OA
ATOM     38  C   UNL     1      10.307   3.001   0.825  0.00  0.00    +0.194 C 
ENDBRANCH  36  37
ENDBRANCH  35  36
ENDBRANCH  34  35
ENDBRANCH   1  30
TORSDOF 9
