REMARK  Name = ZINC19826278
REMARK  14 active torsions:
REMARK  status: ('A' for Active; 'I' for Inactive)
REMARK    1  A    between atoms: C_1  and  C_2
REMARK    2  A    between atoms: C_5  and  N_8
REMARK    3  A    between atoms: C_9  and  C_28
REMARK    4  A    between atoms: C_12  and  S_13
REMARK    5  A    between atoms: S_13  and  C_14
REMARK    6  A    between atoms: C_14  and  C_15
REMARK    7  A    between atoms: N_17  and  N_18
REMARK    8  A    between atoms: C_19  and  C_20
REMARK    9  A    between atoms: C_19  and  C_21
REMARK   10  A    between atoms: C_25  and  O_27
REMARK   11  A    between atoms: C_31  and  C_34
REMARK   12  A    between atoms: C_34  and  C_35
REMARK   13  A    between atoms: C_34  and  C_36
REMARK   14  A    between atoms: C_34  and  C_37
REMARK                            x       y       z     vdW  Elec       q    Type
REMARK                         _______ _______ _______ _____ _____    ______ ____
ROOT
ATOM      1  N   UNL     1      -8.915   5.472  -0.596  0.00  0.00    -0.270 N 
ATOM      2  C   UNL     1      -9.593   4.278  -0.480  0.00  0.00    +0.169 A 
ATOM      3  N   UNL     1      -8.695   3.344  -0.272  0.00  0.00    -0.128 NA
ATOM      4  N   UNL     1      -7.519   3.861  -0.254  0.00  0.00    -0.122 NA
ATOM      5  C   UNL     1      -7.591   5.159  -0.449  0.00  0.00    +0.197 A 
ENDROOT
BRANCH   1  10
ATOM      6  C   UNL     1     -11.145  10.612  -1.500  0.00  0.00    +0.044 C 
ATOM      7  C   UNL     1     -10.553   9.247  -1.260  0.00  0.00    -0.050 A 
ATOM      8  C   UNL     1      -9.736   8.672  -2.216  0.00  0.00    +0.005 A 
ATOM      9  C   UNL     1      -9.191   7.421  -1.998  0.00  0.00    +0.026 A 
ATOM     10  C   UNL     1      -9.466   6.742  -0.819  0.00  0.00    +0.051 A 
ATOM     11  C   UNL     1     -10.291   7.320   0.136  0.00  0.00    +0.026 A 
ATOM     12  C   UNL     1     -10.828   8.573  -0.085  0.00  0.00    +0.005 A 
ENDBRANCH   1  10
BRANCH   2  13
ATOM     13  C   UNL     1     -11.056   4.087  -0.569  0.00  0.00    +0.020 A 
ATOM     14  C   UNL     1     -11.865   5.096  -1.093  0.00  0.00    +0.012 A 
ATOM     15  C   UNL     1     -13.229   4.909  -1.178  0.00  0.00    +0.005 A 
ATOM     16  C   UNL     1     -13.797   3.728  -0.735  0.00  0.00    -0.042 A 
ATOM     17  C   UNL     1     -13.002   2.725  -0.210  0.00  0.00    +0.005 A 
ATOM     18  C   UNL     1     -11.636   2.897  -0.124  0.00  0.00    +0.012 A 
BRANCH  16  19
ATOM     19  C   UNL     1     -15.289   3.533  -0.825  0.00  0.00    -0.013 C 
ATOM     20  C   UNL     1     -15.858   3.302   0.576  0.00  0.00    +0.015 C 
ATOM     21  C   UNL     1     -15.930   4.779  -1.438  0.00  0.00    +0.015 C 
ATOM     22  C   UNL     1     -15.592   2.318  -1.705  0.00  0.00    +0.015 C 
ENDBRANCH  16  19
ENDBRANCH   2  13
BRANCH   5  23
ATOM     23  S   UNL     1      -6.238   6.285  -0.505  0.00  0.00    -0.076 S 
BRANCH  23  24
ATOM     24  C   UNL     1      -4.864   5.140  -0.228  0.00  0.00    +0.174 C 
BRANCH  24  25
ATOM     25  C   UNL     1      -3.564   5.903  -0.235  0.00  0.00    +0.242 C 
ATOM     26  O   UNL     1      -3.567   7.103  -0.410  0.00  0.00    -0.273 OA
ATOM     27  N   UNL     1      -2.400   5.252  -0.046  0.00  0.00    -0.206 N 
ATOM     28  H   UNL     1      -2.398   4.163   0.113  0.00  0.00    +0.177 HD
BRANCH  27  29
ATOM     29  N   UNL     1      -1.192   5.961  -0.053  0.00  0.00    -0.185 NA
ATOM     30  C   UNL     1      -0.082   5.356   0.242  0.00  0.00    +0.063 C 
ATOM     31  C   UNL     1       1.234   6.069   0.070  0.00  0.00    +0.068 C 
BRANCH  30  32
ATOM     32  C   UNL     1      -0.110   3.970   0.746  0.00  0.00    +0.001 A 
ATOM     33  C   UNL     1      -1.150   3.546   1.578  0.00  0.00    +0.010 A 
ATOM     34  C   UNL     1      -1.172   2.249   2.047  0.00  0.00    +0.004 A 
ATOM     35  C   UNL     1      -0.168   1.365   1.696  0.00  0.00    +0.045 A 
ATOM     36  C   UNL     1       0.872   1.778   0.875  0.00  0.00    +0.117 A 
ATOM     37  C   UNL     1       0.903   3.076   0.394  0.00  0.00    +0.055 A 
BRANCH  36  38
ATOM     38  O   UNL     1       1.859   0.906   0.538  0.00  0.00    -0.507 OA
ATOM     39  H   UNL     1       2.683   1.233  -0.113  0.00  0.00    +0.292 HD
ENDBRANCH  36  38
ENDBRANCH  30  32
ENDBRANCH  27  29
ENDBRANCH  24  25
ENDBRANCH  23  24
ENDBRANCH   5  23
TORSDOF 9
