REMARK  Name = ZINC24729365
REMARK  6 active torsions:
REMARK  status: ('A' for Active; 'I' for Inactive)
REMARK    1  A    between atoms: C_4  and  C_7
REMARK    2  A    between atoms: C_7  and  C_8
REMARK    3  A    between atoms: C_8  and  C_10
REMARK    4  A    between atoms: C_8  and  N_20
REMARK    5  A    between atoms: C_21  and  C_23
REMARK    6  A    between atoms: N_32  and  C_34
REMARK                            x       y       z     vdW  Elec       q    Type
REMARK                         _______ _______ _______ _____ _____    ______ ____
ROOT
ATOM      1  N   UNL     1      -2.609  -0.956   2.302  0.00  0.00    -0.300 N 
ATOM      2  C   UNL     1      -2.280  -0.707   3.585  0.00  0.00    +0.265 C 
ATOM      3  O   UNL     1      -2.985   0.014   4.264  0.00  0.00    -0.268 OA
ATOM      4  H   UNL     1      -1.971  -1.608   1.687  0.00  0.00    +0.150 HD
ENDROOT
BRANCH   2   5
ATOM      5  C   UNL     1      -1.063  -1.309   4.165  0.00  0.00    +0.154 A 
ATOM      6  C   UNL     1      -0.696  -1.043   5.565  0.00  0.00    +0.020 A 
ATOM      7  C   UNL     1      -1.452  -0.230   6.402  0.00  0.00    +0.011 A 
ATOM      8  C   UNL     1      -1.042  -0.029   7.702  0.00  0.00    +0.001 A 
ATOM      9  C   UNL     1       0.115  -0.628   8.184  0.00  0.00    +0.001 A 
ATOM     10  C   UNL     1       0.880  -1.438   7.372  0.00  0.00    +0.014 A 
ATOM     11  C   UNL     1       0.483  -1.653   6.055  0.00  0.00    +0.051 A 
ATOM     12  C   UNL     1       1.238  -2.500   5.123  0.00  0.00    +0.280 A 
ATOM     13  O   UNL     1       2.261  -3.057   5.476  0.00  0.00    -0.265 OA
ATOM     14  N   UNL     1       0.771  -2.647   3.866  0.00  0.00    -0.196 N 
ATOM     15  N   UNL     1      -0.300  -2.092   3.441  0.00  0.00    -0.158 NA
BRANCH  14  16
ATOM     16  C   UNL     1       1.494  -3.455   2.982  0.00  0.00    +0.069 A 
ATOM     17  C   UNL     1       2.865  -3.279   2.840  0.00  0.00    +0.028 A 
ATOM     18  C   UNL     1       3.576  -4.082   1.970  0.00  0.00    +0.002 A 
ATOM     19  C   UNL     1       2.924  -5.052   1.232  0.00  0.00    +0.000 A 
ATOM     20  C   UNL     1       1.558  -5.226   1.366  0.00  0.00    +0.002 A 
ATOM     21  C   UNL     1       0.842  -4.431   2.239  0.00  0.00    +0.028 A 
ENDBRANCH  14  16
ENDBRANCH   2   5
BRANCH   1  22
ATOM     22  C   UNL     1      -3.816  -0.358   1.726  0.00  0.00    +0.144 C 
BRANCH  22  23
ATOM     23  C   UNL     1      -5.008  -1.223   2.049  0.00  0.00    +0.129 A 
ATOM     24  N   UNL     1      -4.978  -2.326   2.844  0.00  0.00    -0.340 N 
ATOM     25  H   UNL     1      -4.032  -2.645   3.306  0.00  0.00    +0.167 HD
ATOM     26  C   UNL     1      -6.260  -2.834   2.890  0.00  0.00    +0.066 A 
ATOM     27  C   UNL     1      -6.847  -3.922   3.522  0.00  0.00    +0.028 A 
ATOM     28  C   UNL     1      -8.195  -4.161   3.360  0.00  0.00    +0.002 A 
ATOM     29  C   UNL     1      -8.967  -3.322   2.568  0.00  0.00    +0.002 A 
ATOM     30  C   UNL     1      -8.407  -2.247   1.939  0.00  0.00    +0.030 A 
ATOM     31  C   UNL     1      -7.043  -1.985   2.089  0.00  0.00    +0.089 A 
ATOM     32  N   UNL     1      -6.216  -1.020   1.611  0.00  0.00    -0.231 NA
ENDBRANCH  22  23
BRANCH  22  33
ATOM     33  C   UNL     1      -3.659  -0.252   0.208  0.00  0.00    +0.065 C 
BRANCH  33  37
ATOM     34  C   UNL     1      -0.501   2.473  -0.715  0.00  0.00    +0.000 A 
ATOM     35  C   UNL     1      -0.227   1.128  -0.548  0.00  0.00    +0.000 A 
ATOM     36  C   UNL     1      -1.248   0.247  -0.246  0.00  0.00    +0.004 A 
ATOM     37  C   UNL     1      -2.545   0.710  -0.116  0.00  0.00    -0.045 A 
ATOM     38  C   UNL     1      -2.818   2.055  -0.278  0.00  0.00    +0.004 A 
ATOM     39  C   UNL     1      -1.797   2.936  -0.580  0.00  0.00    +0.000 A 
ENDBRANCH  33  37
ENDBRANCH  22  33
ENDBRANCH   1  22
TORSDOF 6
