REMARK  Name = ZINC45694160
REMARK  8 active torsions:
REMARK  status: ('A' for Active; 'I' for Inactive)
REMARK    1  A    between atoms: C_1  and  C_2
REMARK    2  A    between atoms: C_2  and  C_3
REMARK    3  A    between atoms: C_3  and  C_5
REMARK    4  A    between atoms: C_3  and  N_9
REMARK    5  A    between atoms: N_6  and  O_7
REMARK    6  A    between atoms: C_11  and  C_18
REMARK    7  A    between atoms: C_14  and  C_16
REMARK    8  A    between atoms: C_14  and  C_17
REMARK                            x       y       z     vdW  Elec       q    Type
REMARK                         _______ _______ _______ _____ _____    ______ ____
ROOT
ATOM      1  C   UNL     1       0.667  -0.494  -1.281  0.00  0.00    +0.123 C 
ENDROOT
BRANCH   1   2
ATOM      2  N   UNL     1      -0.253  -0.241  -2.398  0.00  0.00    -0.288 NA
ATOM      3  C   UNL     1      -1.583  -0.802  -2.122  0.00  0.00    +0.116 C 
ATOM      4  C   UNL     1      -2.524  -0.465  -3.282  0.00  0.00    +0.130 C 
ATOM      5  O   UNL     1      -1.968  -0.966  -4.500  0.00  0.00    -0.368 OA
ATOM      6  C   UNL     1      -0.672  -0.440  -4.801  0.00  0.00    +0.077 C 
ATOM      7  C   UNL     1       0.287  -0.777  -3.656  0.00  0.00    +0.119 C 
ATOM      8  C   UNL     1      -0.156  -1.063  -6.100  0.00  0.00    +0.042 C 
ATOM      9  C   UNL     1      -0.762   1.079  -4.963  0.00  0.00    +0.042 C 
ATOM     10  C   UNL     1      -3.888  -1.113  -3.038  0.00  0.00    +0.039 C 
ENDBRANCH   1   2
BRANCH   1  11
ATOM     11  C   UNL     1       0.681  -1.967  -0.965  0.00  0.00    +0.149 C 
ATOM     12  N   UNL     1       0.070  -2.409   0.084  0.00  0.00    -0.075 NA
ATOM     13  N   UNL     1       1.347  -2.843  -1.794  0.00  0.00    -0.343 N 
ATOM     14  H   UNL     1       1.895  -2.503  -2.519  0.00  0.00    +0.144 HD
ATOM     15  H   UNL     1       1.268  -3.799  -1.653  0.00  0.00    +0.144 HD
BRANCH  12  16
ATOM     16  O   UNL     1       0.083  -3.793   0.381  0.00  0.00    -0.408 OA
ATOM     17  H   UNL     1      -0.402  -4.028   1.184  0.00  0.00    +0.328 HD
ENDBRANCH  12  16
ENDBRANCH   1  11
BRANCH   1  19
ATOM     18  C   UNL     1       0.306   1.788  -0.329  0.00  0.00    +0.006 C 
ATOM     19  C   UNL     1       0.202   0.287  -0.050  0.00  0.00    +0.023 C 
ENDBRANCH   1  19
TORSDOF 4
