REMARK  Name = ZINC20682235
REMARK  15 active torsions:
REMARK  status: ('A' for Active; 'I' for Inactive)
REMARK    1  A    between atoms: C_1  and  C_2
REMARK    2  A    between atoms: N_5  and  S_8
REMARK    3  A    between atoms: S_8  and  C_11
REMARK    4  A    between atoms: C_17  and  C_23
REMARK    5  A    between atoms: N_25  and  C_26
REMARK    6  A    between atoms: C_26  and  C_27
REMARK    7  A    between atoms: C_27  and  N_28
REMARK    8  A    between atoms: N_28  and  C_29
REMARK    9  A    between atoms: N_28  and  C_33
REMARK   10  A    between atoms: C_29  and  C_30
REMARK   11  A    between atoms: C_30  and  C_31
REMARK   12  A    between atoms: C_30  and  C_32
REMARK   13  A    between atoms: C_33  and  C_34
REMARK   14  A    between atoms: C_34  and  C_35
REMARK   15  A    between atoms: C_34  and  C_36
REMARK                            x       y       z     vdW  Elec       q    Type
REMARK                         _______ _______ _______ _____ _____    ______ ____
ROOT
ATOM      1  C   UNL     1       3.390   4.199  -6.276  0.00  0.00    +0.106 A 
ATOM      2  C   UNL     1       4.670   3.856  -6.691  0.00  0.00    +0.030 A 
ATOM      3  C   UNL     1       4.865   3.166  -7.867  0.00  0.00    +0.028 A 
ATOM      4  C   UNL     1       3.770   2.816  -8.654  0.00  0.00    +0.050 A 
ATOM      5  C   UNL     1       2.477   3.170  -8.232  0.00  0.00    +0.012 A 
ATOM      6  C   UNL     1       2.303   3.866  -7.032  0.00  0.00    +0.039 A 
ATOM      7  C   UNL     1       1.319   2.801  -9.060  0.00  0.00    +0.051 A 
ATOM      8  C   UNL     1       1.540   2.121 -10.223  0.00  0.00    +0.083 A 
ATOM      9  C   UNL     1       2.908   1.781 -10.609  0.00  0.00    +0.250 A 
ATOM     10  O   UNL     1       3.106   1.174 -11.646  0.00  0.00    -0.268 OA
ATOM     11  N   UNL     1       3.951   2.128  -9.835  0.00  0.00    -0.322 N 
ATOM     12  H   UNL     1       4.965   1.853 -10.162  0.00  0.00    +0.169 HD
ENDROOT
BRANCH   7  13
ATOM     13  C   UNL     1      -0.058   3.160  -8.642  0.00  0.00    +0.245 C 
ATOM     14  O   UNL     1      -0.249   3.675  -7.558  0.00  0.00    -0.270 OA
ATOM     15  N   UNL     1      -1.098   2.915  -9.464  0.00  0.00    -0.313 N 
ATOM     16  H   UNL     1      -0.935   2.381 -10.412  0.00  0.00    +0.149 HD
BRANCH  15  17
ATOM     17  C   UNL     1      -2.444   3.361  -9.096  0.00  0.00    +0.086 C 
BRANCH  17  18
ATOM     18  C   UNL     1      -3.432   2.960 -10.193  0.00  0.00    -0.060 C 
BRANCH  18  19
ATOM     19  N   UNL     1      -4.782   3.407  -9.823  0.00  0.00    +0.381 N 
ATOM     20  H   UNL     1      -4.726   4.477  -9.573  0.00  0.00    -0.082 HD
BRANCH  19  21
ATOM     21  C   UNL     1      -5.713   3.254 -10.949  0.00  0.00    -0.076 C 
BRANCH  21  22
ATOM     22  C   UNL     1      -5.362   4.264 -12.043  0.00  0.00    -0.034 C 
ATOM     23  C   UNL     1      -6.257   4.029 -13.261  0.00  0.00    +0.005 C 
ATOM     24  C   UNL     1      -5.581   5.684 -11.515  0.00  0.00    +0.005 C 
ENDBRANCH  21  22
ENDBRANCH  19  21
BRANCH  19  25
ATOM     25  C   UNL     1      -5.267   2.690  -8.636  0.00  0.00    -0.076 C 
BRANCH  25  26
ATOM     26  C   UNL     1      -6.469   3.433  -8.048  0.00  0.00    -0.034 C 
ATOM     27  C   UNL     1      -7.056   2.618  -6.894  0.00  0.00    +0.005 C 
ATOM     28  C   UNL     1      -6.020   4.800  -7.530  0.00  0.00    +0.005 C 
ENDBRANCH  25  26
ENDBRANCH  19  25
ENDBRANCH  18  19
ENDBRANCH  17  18
ENDBRANCH  15  17
ENDBRANCH   7  13
BRANCH   1  29
ATOM     29  S   UNL     1       3.168   5.077  -4.764  0.00  0.00    +0.061 S 
ATOM     30  O   UNL     1       1.927   5.762  -4.871  0.00  0.00    -0.153 OA
ATOM     31  O   UNL     1       4.391   5.752  -4.503  0.00  0.00    -0.153 OA
BRANCH  29  36
ATOM     32  C   UNL     1       2.799  -0.147  -2.430  0.00  0.00    +0.007 C 
ATOM     33  C   UNL     1       2.800   1.382  -2.393  0.00  0.00    -0.012 C 
ATOM     34  C   UNL     1       1.670   1.914  -3.277  0.00  0.00    +0.020 C 
ATOM     35  C   UNL     1       1.651   3.445  -3.210  0.00  0.00    +0.110 C 
ATOM     36  N   UNL     1       2.985   3.950  -3.565  0.00  0.00    -0.177 NA
ATOM     37  C   UNL     1       4.152   3.435  -2.837  0.00  0.00    +0.110 C 
ATOM     38  C   UNL     1       4.143   1.905  -2.908  0.00  0.00    +0.020 C 
ENDBRANCH  29  36
ENDBRANCH   1  29
TORSDOF 10
