REMARK  Name = ZINC19286471
REMARK  4 active torsions:
REMARK  status: ('A' for Active; 'I' for Inactive)
REMARK    1  A    between atoms: N_9  and  C_10
REMARK    2  A    between atoms: C_10  and  C_12
REMARK    3  A    between atoms: C_10  and  N_21
REMARK    4  A    between atoms: C_16  and  N_18
REMARK                            x       y       z     vdW  Elec       q    Type
REMARK                         _______ _______ _______ _____ _____    ______ ____
ROOT
ATOM      1  C   UNL     1      -3.044  -0.013   0.032  0.00  0.00    +0.206 C 
ENDROOT
BRANCH   1  10
ATOM      2  C   UNL     1       1.158   3.172   0.007  0.00  0.00    +0.002 A 
ATOM      3  C   UNL     1       1.170   1.784   0.001  0.00  0.00    +0.002 A 
ATOM      4  C   UNL     1      -0.013   1.076   0.008  0.00  0.00    +0.028 A 
ATOM      5  C   UNL     1      -1.222   1.757   0.017  0.00  0.00    +0.070 A 
ATOM      6  C   UNL     1      -1.234   3.162   0.030  0.00  0.00    +0.089 A 
ATOM      7  C   UNL     1      -0.022   3.859   0.022  0.00  0.00    +0.030 A 
ATOM      8  N   UNL     1      -2.536   3.547   0.045  0.00  0.00    -0.236 NA
ATOM      9  C   UNL     1      -3.303   2.496   0.048  0.00  0.00    +0.202 A 
ATOM     10  N   UNL     1      -2.546   1.365   0.035  0.00  0.00    -0.307 N 
ENDBRANCH   1  10
BRANCH   1  11
ATOM     11  N   UNL     1      -4.393  -0.043  -0.538  0.00  0.00    -0.305 N 
ATOM     12  C   UNL     1      -4.874  -1.209  -1.124  0.00  0.00    +0.120 A 
ATOM     13  C   UNL     1      -4.066  -2.341  -1.170  0.00  0.00    +0.043 A 
ATOM     14  C   UNL     1      -4.559  -3.495  -1.751  0.00  0.00    +0.005 A 
ATOM     15  C   UNL     1      -5.844  -3.476  -2.278  0.00  0.00    +0.020 A 
ATOM     16  C   UNL     1      -6.588  -2.316  -2.203  0.00  0.00    +0.113 A 
ATOM     17  N   UNL     1      -6.094  -1.230  -1.637  0.00  0.00    -0.240 NA
ATOM     18  H   UNL     1      -5.026   0.856  -0.503  0.00  0.00    +0.150 HD
ENDBRANCH   1  11
BRANCH   1  19
ATOM     19  C   UNL     1      -3.084  -0.535   1.445  0.00  0.00    -0.005 A 
ATOM     20  C   UNL     1      -4.133  -0.194   2.279  0.00  0.00    +0.007 A 
ATOM     21  C   UNL     1      -4.170  -0.673   3.575  0.00  0.00    +0.003 A 
ATOM     22  C   UNL     1      -3.158  -1.493   4.037  0.00  0.00    +0.033 A 
ATOM     23  C   UNL     1      -2.109  -1.834   3.204  0.00  0.00    +0.127 A 
ATOM     24  C   UNL     1      -2.075  -1.359   1.906  0.00  0.00    +0.040 A 
BRANCH  23  25
ATOM     25  N   UNL     1      -1.026  -2.713   3.699  0.00  0.00    +0.056 N 
ATOM     26  O   UNL     1      -1.058  -3.135   4.841  0.00  0.00    -0.126 OA
ATOM     27  O   UNL     1      -0.101  -3.013   2.965  0.00  0.00    -0.126 OA
ENDBRANCH  23  25
ENDBRANCH   1  19
TORSDOF 4
