REMARK  Name = ZINC09368790
REMARK  6 active torsions:
REMARK  status: ('A' for Active; 'I' for Inactive)
REMARK    1  A    between atoms: C_4  and  O_7
REMARK    2  A    between atoms: O_7  and  C_8
REMARK    3  A    between atoms: C_13  and  N_14
REMARK    4  A    between atoms: N_14  and  C_15
REMARK    5  A    between atoms: C_15  and  C_16
REMARK    6  A    between atoms: N_21  and  C_22
REMARK                            x       y       z     vdW  Elec       q    Type
REMARK                         _______ _______ _______ _____ _____    ______ ____
ROOT
ATOM      1  N   UNL     1       0.564   2.623   8.231  0.00  0.00    -0.333 N 
ATOM      2  H   UNL     1      -0.363   2.345   8.297  0.00  0.00    +0.147 HD
ENDROOT
BRANCH   1   8
ATOM      3  C   UNL     1       0.691   2.793  10.641  0.00  0.00    +0.149 A 
ATOM      4  C   UNL     1       1.421   3.068  11.786  0.00  0.00    +0.048 A 
ATOM      5  C   UNL     1       2.742   3.464  11.686  0.00  0.00    +0.004 A 
ATOM      6  C   UNL     1       3.340   3.581  10.445  0.00  0.00    +0.002 A 
ATOM      7  C   UNL     1       2.620   3.303   9.298  0.00  0.00    +0.026 A 
ATOM      8  C   UNL     1       1.294   2.905   9.391  0.00  0.00    +0.070 A 
BRANCH   3   9
ATOM      9  O   UNL     1      -0.611   2.410  10.738  0.00  0.00    -0.454 OA
BRANCH   9  13
ATOM     10  C   UNL     1      -1.466  -1.618  10.492  0.00  0.00    +0.000 A 
ATOM     11  C   UNL     1      -2.495  -0.697  10.550  0.00  0.00    +0.004 A 
ATOM     12  C   UNL     1      -2.211   0.653  10.633  0.00  0.00    +0.046 A 
ATOM     13  C   UNL     1      -0.892   1.083  10.657  0.00  0.00    +0.129 A 
ATOM     14  C   UNL     1       0.138   0.156  10.593  0.00  0.00    +0.046 A 
ATOM     15  C   UNL     1      -0.151  -1.192  10.515  0.00  0.00    +0.004 A 
ENDBRANCH   9  13
ENDBRANCH   3   9
ENDBRANCH   1   8
BRANCH   1  16
ATOM     16  C   UNL     1       1.199   2.748   6.917  0.00  0.00    +0.198 C 
BRANCH  16  17
ATOM     17  C   UNL     1       0.204   2.390   5.842  0.00  0.00    +0.237 C 
ATOM     18  O   UNL     1      -0.923   2.063   6.145  0.00  0.00    -0.274 OA
ATOM     19  N   UNL     1       0.569   2.433   4.545  0.00  0.00    -0.239 N 
ATOM     20  C   UNL     1      -0.321   2.113   3.585  0.00  0.00    +0.306 C 
ATOM     21  O   UNL     1      -1.451   1.786   3.888  0.00  0.00    -0.252 OA
ATOM     22  N   UNL     1       0.044   2.156   2.288  0.00  0.00    -0.296 N 
ATOM     23  H   UNL     1       1.471   2.694   4.304  0.00  0.00    +0.159 HD
ATOM     24  H   UNL     1       0.946   2.417   2.046  0.00  0.00    +0.151 HD
BRANCH  22  25
ATOM     25  C   UNL     1      -0.923   1.809   1.243  0.00  0.00    +0.074 C 
ATOM     26  C   UNL     1      -0.195   1.325  -0.027  0.00  0.00    +0.022 C 
ATOM     27  C   UNL     1      -0.986   1.875  -1.226  0.00  0.00    +0.002 C 
ATOM     28  C   UNL     1      -2.170   2.675  -0.643  0.00  0.00    +0.002 C 
ATOM     29  C   UNL     1      -1.698   3.068   0.779  0.00  0.00    +0.022 C 
ENDBRANCH  22  25
ENDBRANCH  16  17
ENDBRANCH   1  16
TORSDOF 6
