REMARK  Name = ZINC13387845
REMARK  7 active torsions:
REMARK  status: ('A' for Active; 'I' for Inactive)
REMARK    1  A    between atoms: C_1  and  C_2
REMARK    2  A    between atoms: C_2  and  C_3
REMARK    3  A    between atoms: C_3  and  C_5
REMARK    4  A    between atoms: C_3  and  N_6
REMARK    5  A    between atoms: C_7  and  C_9
REMARK    6  A    between atoms: C_13  and  C_24
REMARK    7  A    between atoms: C_16  and  C_20
REMARK                            x       y       z     vdW  Elec       q    Type
REMARK                         _______ _______ _______ _____ _____    ______ ____
ROOT
ATOM      1  C   UNL     1       4.269   0.353  -2.298  0.00  0.00    +0.124 C 
ATOM      2  C   UNL     1       4.999   0.503  -1.164  0.00  0.00    +0.086 C 
ATOM      3  C   UNL     1       6.375   0.791  -1.569  0.00  0.00    +0.150 C 
ATOM      4  N   UNL     1       7.430   1.020  -0.839  0.00  0.00    -0.258 NA
ATOM      5  C   UNL     1       8.704   1.324  -1.502  0.00  0.00    +0.146 C 
ATOM      6  C   UNL     1       8.800   0.593  -2.842  0.00  0.00    +0.065 C 
ATOM      7  C   UNL     1       7.616   0.991  -3.737  0.00  0.00    +0.202 C 
ATOM      8  N   UNL     1       6.392   0.777  -2.958  0.00  0.00    -0.224 N 
ATOM      9  N   UNL     1       5.098   0.523  -3.398  0.00  0.00    -0.257 N 
ATOM     10 BR   UNL     1       4.357   0.364   0.610  0.00  0.00    -0.045 Br
ATOM     11  H   UNL     1       4.818   0.475  -4.325  0.00  0.00    +0.170 HD
ENDROOT
BRANCH   5  12
ATOM     12  C   UNL     1       8.797   2.810  -1.740  0.00  0.00    +0.014 A 
ATOM     13  C   UNL     1       9.871   3.627  -1.617  0.00  0.00    +0.013 A 
ATOM     14  C   UNL     1       9.723   4.974  -1.891  0.00  0.00    +0.008 A 
ATOM     15  C   UNL     1       8.508   5.437  -2.274  0.00  0.00    +0.045 A 
ATOM     16  S   UNL     1       7.525   3.947  -2.263  0.00  0.00    -0.099 S 
ENDBRANCH   5  12
BRANCH   1  18
ATOM     17  N   UNL     1       2.228  -0.177  -3.540  0.00  0.00    -0.308 N 
ATOM     18  C   UNL     1       2.824   0.051  -2.353  0.00  0.00    +0.261 C 
ATOM     19  O   UNL     1       2.172   0.009  -1.327  0.00  0.00    -0.269 OA
ATOM     20  H   UNL     1       2.730  -0.072  -4.363  0.00  0.00    +0.149 HD
BRANCH  17  21
ATOM     21  C   UNL     1       0.822  -0.585  -3.587  0.00  0.00    +0.070 C 
ATOM     22  C   UNL     1      -0.071   0.657  -3.544  0.00  0.00    +0.028 C 
BRANCH  21  24
ATOM     23  C   UNL     1       1.357  -2.662  -4.867  0.00  0.00    +0.005 C 
ATOM     24  C   UNL     1       0.558  -1.358  -4.880  0.00  0.00    +0.018 C 
ENDBRANCH  21  24
ENDBRANCH  17  21
ENDBRANCH   1  18
BRANCH   7  25
ATOM     25  C   UNL     1       7.596   0.118  -4.993  0.00  0.00    +0.410 C 
ATOM     26  F   UNL     1       7.465  -1.225  -4.625  0.00  0.00    -0.169 F 
ATOM     27  F   UNL     1       6.515   0.488  -5.801  0.00  0.00    -0.169 F 
ATOM     28  F   UNL     1       8.790   0.293  -5.702  0.00  0.00    -0.169 F 
ENDBRANCH   7  25
TORSDOF 5
