REMARK  Name = ZINC10409801
REMARK  7 active torsions:
REMARK  status: ('A' for Active; 'I' for Inactive)
REMARK    1  A    between atoms: C_1  and  C_2
REMARK    2  A    between atoms: C_5  and  N_9
REMARK    3  A    between atoms: C_7  and  C_8
REMARK    4  A    between atoms: C_19  and  S_20
REMARK    5  A    between atoms: S_20  and  C_21
REMARK    6  A    between atoms: C_21  and  C_22
REMARK    7  A    between atoms: N_27  and  C_28
REMARK                            x       y       z     vdW  Elec       q    Type
REMARK                         _______ _______ _______ _____ _____    ______ ____
ROOT
ATOM      1  N   UNL     1       0.037  -2.767  -0.014  0.00  0.00    -0.255 N 
ATOM      2  C   UNL     1       1.135  -2.144   0.473  0.00  0.00    +0.267 A 
ATOM      3  O   UNL     1       2.079  -2.778   0.908  0.00  0.00    -0.267 OA
ATOM      4  C   UNL     1       1.146  -0.676   0.458  0.00  0.00    +0.065 A 
ATOM      5  C   UNL     1       2.231   0.058   0.937  0.00  0.00    +0.015 A 
ATOM      6  C   UNL     1       2.190   1.424   0.899  0.00  0.00    +0.001 A 
ATOM      7  C   UNL     1       1.081   2.087   0.389  0.00  0.00    +0.002 A 
ATOM      8  C   UNL     1       0.004   1.393  -0.087  0.00  0.00    +0.028 A 
ATOM      9  C   UNL     1       0.016  -0.004  -0.062  0.00  0.00    +0.079 A 
ATOM     10  N   UNL     1      -1.029  -0.731  -0.523  0.00  0.00    -0.223 NA
ATOM     11  C   UNL     1      -1.016  -2.041  -0.499  0.00  0.00    +0.177 A 
ENDROOT
BRANCH   1  16
ATOM     12  C   UNL     1      -0.202  -8.437  -0.046  0.00  0.00    +0.044 C 
ATOM     13  C   UNL     1      -0.139  -6.931  -0.038  0.00  0.00    -0.047 A 
ATOM     14  C   UNL     1      -0.606  -6.227   1.057  0.00  0.00    +0.005 A 
ATOM     15  C   UNL     1      -0.543  -4.847   1.071  0.00  0.00    +0.026 A 
ATOM     16  C   UNL     1      -0.022  -4.167  -0.022  0.00  0.00    +0.052 A 
ATOM     17  C   UNL     1       0.445  -4.877  -1.120  0.00  0.00    +0.030 A 
ATOM     18  C   UNL     1       0.386  -6.256  -1.125  0.00  0.00    -0.046 A 
ATOM     19  C   UNL     1       0.892  -7.028  -2.316  0.00  0.00    +0.044 C 
ENDBRANCH   1  16
BRANCH  11  20
ATOM     20  S   UNL     1      -2.419  -2.907  -1.120  0.00  0.00    -0.078 S 
BRANCH  20  21
ATOM     21  C   UNL     1      -3.459  -1.509  -1.610  0.00  0.00    +0.173 C 
BRANCH  21  22
ATOM     22  C   UNL     1      -4.753  -2.023  -2.186  0.00  0.00    +0.231 C 
ATOM     23  O   UNL     1      -4.952  -3.217  -2.259  0.00  0.00    -0.274 OA
ATOM     24  N   UNL     1      -5.689  -1.156  -2.621  0.00  0.00    -0.239 N 
ATOM     25  C   UNL     1      -6.846  -1.616  -3.137  0.00  0.00    +0.306 C 
ATOM     26  O   UNL     1      -7.046  -2.813  -3.210  0.00  0.00    -0.252 OA
ATOM     27  N   UNL     1      -7.782  -0.749  -3.571  0.00  0.00    -0.296 N 
ATOM     28  H   UNL     1      -5.530  -0.201  -2.563  0.00  0.00    +0.159 HD
ATOM     29  H   UNL     1      -7.623   0.206  -3.513  0.00  0.00    +0.151 HD
BRANCH  27  30
ATOM     30  C   UNL     1      -9.040  -1.250  -4.132  0.00  0.00    +0.075 C 
ATOM     31  C   UNL     1      -9.561  -0.581  -5.406  0.00  0.00    +0.024 C 
ATOM     32  C   UNL     1     -10.258  -0.327  -4.067  0.00  0.00    +0.024 C 
ENDBRANCH  27  30
ENDBRANCH  21  22
ENDBRANCH  20  21
ENDBRANCH  11  20
TORSDOF 5
