REMARK  Name = ZINC02746598
REMARK  5 active torsions:
REMARK  status: ('A' for Active; 'I' for Inactive)
REMARK    1  A    between atoms: C_1  and  O_2
REMARK    2  A    between atoms: O_2  and  C_3
REMARK    3  A    between atoms: C_7  and  C_10
REMARK    4  A    between atoms: C_8  and  O_9
REMARK    5  A    between atoms: N_21  and  C_22
REMARK                            x       y       z     vdW  Elec       q    Type
REMARK                         _______ _______ _______ _____ _____    ______ ____
ROOT
ATOM      1  C   UNL     1       0.032  -0.036   0.047  0.00  0.00    +0.201 C 
ATOM      2  N   UNL     1      -0.023   1.431   0.069  0.00  0.00    -0.321 N 
ATOM      3  C   UNL     1       1.168   2.146   0.016  0.00  0.00    +0.041 A 
ATOM      4  C   UNL     1       1.289   3.402   0.586  0.00  0.00    +0.025 A 
ATOM      5  C   UNL     1       2.490   4.080   0.499  0.00  0.00    +0.016 A 
ATOM      6  C   UNL     1       3.574   3.513  -0.153  0.00  0.00    +0.014 A 
ATOM      7  C   UNL     1       3.471   2.260  -0.723  0.00  0.00    +0.029 A 
ATOM      8  C   UNL     1       2.267   1.564  -0.639  0.00  0.00    +0.059 A 
ATOM      9  C   UNL     1       2.111   0.220  -1.222  0.00  0.00    +0.254 C 
ATOM     10  O   UNL     1       2.977  -0.242  -1.940  0.00  0.00    -0.270 OA
ATOM     11  N   UNL     1       0.999  -0.493  -0.951  0.00  0.00    -0.244 N 
ATOM     12  I   UNL     1       5.381   4.566  -0.276  0.00  0.00    -0.044 I 
ATOM     13  H   UNL     1      -0.875   1.892   0.115  0.00  0.00    +0.148 HD
ENDROOT
BRANCH  11  14
ATOM     14  C   UNL     1       0.766  -1.690  -1.636  0.00  0.00    +0.041 A 
ATOM     15  C   UNL     1      -0.400  -1.853  -2.374  0.00  0.00    +0.024 A 
ATOM     16  C   UNL     1      -0.628  -3.035  -3.051  0.00  0.00    +0.005 A 
ATOM     17  C   UNL     1       0.302  -4.057  -2.994  0.00  0.00    +0.038 A 
ATOM     18  C   UNL     1       1.466  -3.898  -2.260  0.00  0.00    +0.125 A 
ATOM     19  C   UNL     1       1.702  -2.714  -1.585  0.00  0.00    +0.062 A 
ATOM     20  F   UNL     1       2.373  -4.898  -2.207  0.00  0.00    -0.205 F 
ENDBRANCH  11  14
BRANCH   1  25
ATOM     21  C   UNL     1       0.415  -0.341   3.801  0.00  0.00    +0.162 A 
ATOM     22  C   UNL     1       1.210  -1.472   3.901  0.00  0.00    +0.049 A 
ATOM     23  C   UNL     1       1.620  -2.132   2.757  0.00  0.00    +0.004 A 
ATOM     24  C   UNL     1       1.234  -1.670   1.513  0.00  0.00    +0.011 A 
ATOM     25  C   UNL     1       0.446  -0.540   1.406  0.00  0.00    +0.036 A 
ATOM     26  C   UNL     1       0.031   0.127   2.548  0.00  0.00    +0.165 A 
BRANCH  21  28
ATOM     27  C   UNL     1       0.443  -0.228   6.176  0.00  0.00    +0.277 C 
ATOM     28  O   UNL     1       0.011   0.309   4.924  0.00  0.00    -0.491 OA
ENDBRANCH  21  28
BRANCH  26  29
ATOM     29  O   UNL     1      -0.749   1.236   2.444  0.00  0.00    -0.503 OA
ATOM     30  H   UNL     1      -1.698   1.051   2.447  0.00  0.00    +0.292 HD
ENDBRANCH  26  29
ENDBRANCH   1  25
TORSDOF 4
