REMARK  Name = ZINC09349353
REMARK  12 active torsions:
REMARK  status: ('A' for Active; 'I' for Inactive)
REMARK    1  A    between atoms: C_1  and  C_2
REMARK    2  A    between atoms: C_2  and  C_3
REMARK    3  A    between atoms: C_3  and  N_4
REMARK    4  A    between atoms: C_7  and  S_14
REMARK    5  A    between atoms: C_9  and  C_11
REMARK    6  A    between atoms: C_11  and  C_12
REMARK    7  A    between atoms: C_11  and  C_13
REMARK    8  A    between atoms: S_14  and  C_15
REMARK    9  A    between atoms: C_15  and  C_16
REMARK   10  A    between atoms: N_18  and  C_19
REMARK   11  A    between atoms: C_19  and  C_20
REMARK   12  A    between atoms: N_33  and  C_36
REMARK                            x       y       z     vdW  Elec       q    Type
REMARK                         _______ _______ _______ _____ _____    ______ ____
ROOT
ATOM      1  N   UNL     1       4.264  15.395  -2.844  0.00  0.00    -0.278 N 
ATOM      2  C   UNL     1       3.856  14.079  -2.851  0.00  0.00    +0.154 A 
ATOM      3  C   UNL     1       2.841  13.681  -1.960  0.00  0.00    +0.114 A 
ATOM      4  C   UNL     1       2.425  12.341  -1.967  0.00  0.00    +0.115 A 
ATOM      5  N   UNL     1       3.021  11.504  -2.818  0.00  0.00    -0.225 NA
ATOM      6  C   UNL     1       3.964  11.923  -3.637  0.00  0.00    +0.135 A 
ATOM      7  N   UNL     1       4.384  13.174  -3.663  0.00  0.00    -0.214 NA
ATOM      8  C   UNL     1       2.261  14.685  -1.064  0.00  0.00    +0.268 A 
ATOM      9  O   UNL     1       1.381  14.389  -0.278  0.00  0.00    -0.267 OA
ATOM     10  N   UNL     1       2.732  15.950  -1.136  0.00  0.00    -0.263 N 
ATOM     11  C   UNL     1       3.703  16.281  -2.003  0.00  0.00    +0.333 A 
ATOM     12  O   UNL     1       4.091  17.433  -2.029  0.00  0.00    -0.246 OA
ATOM     13  C   UNL     1       2.174  16.978  -0.254  0.00  0.00    +0.157 C 
ENDROOT
BRANCH   6  14
ATOM     14  C   UNL     1       4.595  10.931  -4.580  0.00  0.00    +0.051 C 
ATOM     15  C   UNL     1       5.244   9.804  -3.774  0.00  0.00    +0.015 C 
ATOM     16  C   UNL     1       3.520  10.347  -5.499  0.00  0.00    +0.015 C 
ENDBRANCH   6  14
BRANCH   1  17
ATOM     17  C   UNL     1       5.320  15.833  -3.761  0.00  0.00    +0.128 C 
BRANCH  17  19
ATOM     18  C   UNL     1       5.793  16.756  -6.034  0.00  0.00    +0.005 C 
ATOM     19  C   UNL     1       4.691  16.299  -5.076  0.00  0.00    +0.018 C 
ENDBRANCH  17  19
ENDBRANCH   1  17
BRANCH   4  20
ATOM     20  S   UNL     1       1.159  11.778  -0.878  0.00  0.00    -0.096 S 
BRANCH  20  21
ATOM     21  C   UNL     1       1.087  10.033  -1.355  0.00  0.00    +0.171 C 
BRANCH  21  22
ATOM     22  C   UNL     1       0.040   9.330  -0.530  0.00  0.00    +0.223 C 
ATOM     23  O   UNL     1      -0.595   9.947   0.299  0.00  0.00    -0.275 OA
ATOM     24  N   UNL     1      -0.191   8.015  -0.714  0.00  0.00    -0.311 N 
ATOM     25  H   UNL     1       0.317   7.521  -1.377  0.00  0.00    +0.149 HD
BRANCH  24  26
ATOM     26  C   UNL     1      -1.208   7.331   0.088  0.00  0.00    +0.152 C 
BRANCH  26  27
ATOM     27  C   UNL     1      -1.270   5.856  -0.315  0.00  0.00    +0.228 C 
ATOM     28  C   UNL     1      -2.417   5.163   0.432  0.00  0.00    +0.275 C 
ATOM     29  O   UNL     1      -2.437   3.785   0.043  0.00  0.00    -0.485 OA
ATOM     30  C   UNL     1      -1.241   3.136   0.031  0.00  0.00    +0.162 A 
ATOM     31  C   UNL     1      -1.219   1.749   0.017  0.00  0.00    +0.049 A 
ATOM     32  C   UNL     1      -0.013   1.076   0.008  0.00  0.00    +0.004 A 
ATOM     33  C   UNL     1       1.176   1.782   0.000  0.00  0.00    +0.004 A 
ATOM     34  C   UNL     1       1.161   3.164   0.009  0.00  0.00    +0.049 A 
ATOM     35  C   UNL     1      -0.046   3.846   0.026  0.00  0.00    +0.163 A 
ATOM     36  O   UNL     1      -0.045   5.207   0.043  0.00  0.00    -0.480 OA
ENDBRANCH  26  27
ENDBRANCH  24  26
ENDBRANCH  21  22
ENDBRANCH  20  21
ENDBRANCH   4  20
TORSDOF 8
