REMARK  Name = ZINC12493363
REMARK  7 active torsions:
REMARK  status: ('A' for Active; 'I' for Inactive)
REMARK    1  A    between atoms: C_1  and  C_2
REMARK    2  A    between atoms: C_4  and  N_29
REMARK    3  A    between atoms: C_7  and  N_8
REMARK    4  A    between atoms: C_9  and  C_11
REMARK    5  A    between atoms: N_16  and  C_18
REMARK    6  A    between atoms: C_18  and  C_19
REMARK    7  A    between atoms: C_22  and  C_25
REMARK                            x       y       z     vdW  Elec       q    Type
REMARK                         _______ _______ _______ _____ _____    ______ ____
ROOT
ATOM      1  C   UNL     1       3.715  -0.947   0.173  0.00  0.00    +0.053 A 
ATOM      2  C   UNL     1       4.931  -0.222   0.160  0.00  0.00    +0.020 A 
ATOM      3  C   UNL     1       6.105  -0.901   0.254  0.00  0.00    +0.071 A 
ATOM      4  C   UNL     1       6.087  -2.306   0.350  0.00  0.00    +0.252 A 
ATOM      5  O   UNL     1       7.138  -2.920   0.430  0.00  0.00    -0.268 OA
ATOM      6  N   UNL     1       4.920  -2.975   0.355  0.00  0.00    -0.310 N 
ATOM      7  C   UNL     1       3.746  -2.323   0.269  0.00  0.00    +0.102 A 
ENDROOT
BRANCH   1   9
ATOM      8  N   UNL     1       2.402   1.107  -0.015  0.00  0.00    -0.281 N 
ATOM      9  C   UNL     1       2.426  -0.237   0.078  0.00  0.00    +0.250 C 
ATOM     10  O   UNL     1       1.385  -0.865   0.085  0.00  0.00    -0.270 OA
ATOM     11  H   UNL     1       3.233   1.603  -0.087  0.00  0.00    +0.155 HD
BRANCH   8  18
ATOM     12  C   UNL     1       2.288   3.656   1.243  0.00  0.00    +0.046 C 
ATOM     13  C   UNL     1       1.080   3.034   0.593  0.00  0.00    -0.027 A 
ATOM     14  C   UNL     1      -0.129   3.703   0.596  0.00  0.00    +0.038 A 
ATOM     15  C   UNL     1      -1.238   3.132  -0.000  0.00  0.00    +0.127 A 
ATOM     16  C   UNL     1      -1.140   1.893  -0.606  0.00  0.00    +0.034 A 
ATOM     17  C   UNL     1       0.063   1.216  -0.608  0.00  0.00    +0.026 A 
ATOM     18  C   UNL     1       1.180   1.787  -0.010  0.00  0.00    +0.037 A 
BRANCH  15  19
ATOM     19  N   UNL     1      -2.531   3.852   0.004  0.00  0.00    +0.056 N 
ATOM     20  O   UNL     1      -2.617   4.946   0.533  0.00  0.00    -0.126 OA
ATOM     21  O   UNL     1      -3.509   3.351  -0.520  0.00  0.00    -0.126 OA
ENDBRANCH  15  19
ENDBRANCH   8  18
ENDBRANCH   1   9
BRANCH   6  22
ATOM     22  C   UNL     1       4.928  -4.436   0.457  0.00  0.00    +0.160 C 
BRANCH  22  23
ATOM     23  C   UNL     1       4.980  -5.036  -0.924  0.00  0.00    -0.028 A 
ATOM     24  C   UNL     1       3.808  -5.325  -1.597  0.00  0.00    +0.006 A 
ATOM     25  C   UNL     1       3.856  -5.872  -2.866  0.00  0.00    +0.013 A 
ATOM     26  C   UNL     1       5.076  -6.136  -3.459  0.00  0.00    +0.055 A 
ATOM     27  C   UNL     1       6.249  -5.852  -2.784  0.00  0.00    +0.013 A 
ATOM     28  C   UNL     1       6.201  -5.302  -1.517  0.00  0.00    +0.006 A 
BRANCH  26  29
ATOM     29  C   UNL     1       5.128  -6.735  -4.841  0.00  0.00    +0.417 C 
ATOM     30  F   UNL     1       5.136  -8.131  -4.744  0.00  0.00    -0.166 F 
ATOM     31  F   UNL     1       4.007  -6.325  -5.570  0.00  0.00    -0.166 F 
ATOM     32  F   UNL     1       6.290  -6.306  -5.491  0.00  0.00    -0.166 F 
ENDBRANCH  26  29
ENDBRANCH  22  23
ENDBRANCH   6  22
TORSDOF 6
