REMARK  Name = ZINC12552855
REMARK  15 active torsions:
REMARK  status: ('A' for Active; 'I' for Inactive)
REMARK    1  A    between atoms: C_1  and  C_2
REMARK    2  A    between atoms: C_5  and  S_8
REMARK    3  A    between atoms: S_8  and  N_11
REMARK    4  A    between atoms: N_11  and  C_12
REMARK    5  A    between atoms: C_12  and  C_14
REMARK    6  A    between atoms: C_12  and  C_18
REMARK    7  A    between atoms: C_14  and  C_15
REMARK    8  A    between atoms: C_15  and  C_16
REMARK    9  A    between atoms: C_15  and  C_17
REMARK   10  A    between atoms: N_20  and  C_21
REMARK   11  A    between atoms: C_21  and  C_22
REMARK   12  A    between atoms: C_22  and  C_24
REMARK   13  A    between atoms: C_22  and  N_32
REMARK   14  A    between atoms: C_27  and  O_30
REMARK   15  A    between atoms: O_30  and  C_31
REMARK                            x       y       z     vdW  Elec       q    Type
REMARK                         _______ _______ _______ _____ _____    ______ ____
ROOT
ATOM      1  C   UNL     1       3.781  -5.730   1.097  0.00  0.00    +0.232 C 
ATOM      2  O   UNL     1       3.955  -6.696   0.385  0.00  0.00    -0.274 OA
ATOM      3  N   UNL     1       4.715  -5.385   2.005  0.00  0.00    -0.312 N 
ATOM      4  H   UNL     1       4.576  -4.612   2.574  0.00  0.00    +0.149 HD
ENDROOT
BRANCH   1   5
ATOM      5  C   UNL     1       2.520  -4.915   0.966  0.00  0.00    +0.162 C 
BRANCH   5   6
ATOM      6  N   UNL     1       1.673  -5.490  -0.082  0.00  0.00    -0.178 NA
ATOM      7  H   UNL     1       1.803  -5.230  -1.008  0.00  0.00    +0.149 HD
BRANCH   6   8
ATOM      8  S   UNL     1       0.495  -6.584   0.313  0.00  0.00    +0.059 S 
ATOM      9  O   UNL     1       1.106  -7.555   1.150  0.00  0.00    -0.153 OA
ATOM     10  O   UNL     1      -0.163  -6.928  -0.899  0.00  0.00    -0.153 OA
BRANCH   8  15
ATOM     11  C   UNL     1      -3.563  -3.687   3.712  0.00  0.00    +0.044 C 
ATOM     12  C   UNL     1      -2.549  -4.411   2.863  0.00  0.00    -0.050 A 
ATOM     13  C   UNL     1      -2.653  -4.379   1.485  0.00  0.00    +0.005 A 
ATOM     14  C   UNL     1      -1.724  -5.043   0.706  0.00  0.00    +0.029 A 
ATOM     15  C   UNL     1      -0.690  -5.737   1.306  0.00  0.00    +0.105 A 
ATOM     16  C   UNL     1      -0.585  -5.768   2.684  0.00  0.00    +0.029 A 
ATOM     17  C   UNL     1      -1.512  -5.101   3.462  0.00  0.00    +0.005 A 
ENDBRANCH   8  15
ENDBRANCH   6   8
ENDBRANCH   5   6
BRANCH   5  18
ATOM     18  C   UNL     1       2.880  -3.474   0.597  0.00  0.00    +0.032 C 
BRANCH  18  19
ATOM     19  C   UNL     1       1.617  -2.611   0.619  0.00  0.00    -0.015 C 
ATOM     20  C   UNL     1       1.999  -1.143   0.416  0.00  0.00    +0.007 C 
ATOM     21  C   UNL     1       0.678  -3.054  -0.505  0.00  0.00    +0.007 C 
ENDBRANCH  18  19
ENDBRANCH   5  18
ENDBRANCH   1   5
BRANCH   3  22
ATOM     22  C   UNL     1       5.941  -6.178   2.132  0.00  0.00    +0.127 C 
BRANCH  22  23
ATOM     23  C   UNL     1       6.770  -5.650   3.305  0.00  0.00    +0.104 C 
BRANCH  23  24
ATOM     24  C   UNL     1       7.182  -4.227   3.029  0.00  0.00    -0.029 A 
ATOM     25  C   UNL     1       8.253  -3.969   2.193  0.00  0.00    +0.009 A 
ATOM     26  C   UNL     1       8.633  -2.665   1.939  0.00  0.00    +0.046 A 
ATOM     27  C   UNL     1       7.939  -1.615   2.523  0.00  0.00    +0.120 A 
ATOM     28  C   UNL     1       6.865  -1.877   3.360  0.00  0.00    +0.046 A 
ATOM     29  C   UNL     1       6.485  -3.182   3.607  0.00  0.00    +0.009 A 
BRANCH  27  30
ATOM     30  O   UNL     1       8.312  -0.332   2.274  0.00  0.00    -0.495 OA
ATOM     31  C   UNL     1       7.552   0.699   2.909  0.00  0.00    +0.277 C 
ENDBRANCH  27  30
ENDBRANCH  23  24
BRANCH  23  32
ATOM     32  N   UNL     1       7.968  -6.484   3.472  0.00  0.00    -0.290 NA
ATOM     33  C   UNL     1       7.611  -7.907   3.560  0.00  0.00    +0.113 C 
ATOM     34  C   UNL     1       8.890  -8.742   3.672  0.00  0.00    +0.175 C 
ATOM     35  O   UNL     1       9.642  -8.301   4.806  0.00  0.00    -0.377 OA
ATOM     36  C   UNL     1      10.007  -6.919   4.754  0.00  0.00    +0.175 C 
ATOM     37  C   UNL     1       8.739  -6.066   4.652  0.00  0.00    +0.113 C 
ENDBRANCH  23  32
ENDBRANCH  22  23
ENDBRANCH   3  22
TORSDOF 11
