REMARK  Name = ZINC39443451
REMARK  7 active torsions:
REMARK  status: ('A' for Active; 'I' for Inactive)
REMARK    1  A    between atoms: C_1  and  C_2
REMARK    2  A    between atoms: C_2  and  C_4
REMARK    3  A    between atoms: C_2  and  O_17
REMARK    4  A    between atoms: N_6  and  C_7
REMARK    5  A    between atoms: C_7  and  C_8
REMARK    6  A    between atoms: O_17  and  C_18
REMARK    7  A    between atoms: C_18  and  C_20
REMARK                            x       y       z     vdW  Elec       q    Type
REMARK                         _______ _______ _______ _____ _____    ______ ____
ROOT
ATOM      1  O   UNL     1       0.693  -0.477   1.160  0.00  0.00    -0.449 OA
ENDROOT
BRANCH   1   3
ATOM      2  C   UNL     1      -0.019   1.526   0.010  0.00  0.00    +0.062 C 
ATOM      3  C   UNL     1       0.002  -0.004   0.002  0.00  0.00    +0.259 C 
BRANCH   3   4
ATOM      4  C   UNL     1       0.707  -0.490  -1.238  0.00  0.00    +0.254 C 
ATOM      5  O   UNL     1       1.753  -1.097  -1.142  0.00  0.00    -0.272 OA
ATOM      6  N   UNL     1       0.176  -0.250  -2.453  0.00  0.00    -0.308 N 
ATOM      7  H   UNL     1      -0.660   0.235  -2.530  0.00  0.00    +0.149 HD
BRANCH   6   8
ATOM      8  C   UNL     1       0.862  -0.723  -3.658  0.00  0.00    +0.139 C 
BRANCH   8   9
ATOM      9  C   UNL     1       0.067  -0.328  -4.876  0.00  0.00    -0.027 A 
ATOM     10  C   UNL     1      -0.906  -1.177  -5.370  0.00  0.00    +0.009 A 
ATOM     11  C   UNL     1      -1.639  -0.820  -6.486  0.00  0.00    +0.050 A 
ATOM     12  C   UNL     1      -1.399   0.392  -7.114  0.00  0.00    +0.166 A 
ATOM     13  C   UNL     1      -0.419   1.248  -6.617  0.00  0.00    +0.167 A 
ATOM     14  C   UNL     1       0.308   0.885  -5.494  0.00  0.00    +0.054 A 
ATOM     15  O   UNL     1      -0.375   2.364  -7.401  0.00  0.00    -0.453 OA
ATOM     16  C   UNL     1      -1.052   2.004  -8.620  0.00  0.00    +0.466 C 
ATOM     17  O   UNL     1      -1.969   0.972  -8.210  0.00  0.00    -0.453 OA
ENDBRANCH   8   9
ENDBRANCH   6   8
ENDBRANCH   3   4
ENDBRANCH   1   3
BRANCH   1  18
ATOM     18  C   UNL     1      -0.045  -0.698   2.266  0.00  0.00    +0.340 C 
ATOM     19  O   UNL     1      -1.243  -0.493   2.247  0.00  0.00    -0.245 OA
BRANCH  18  20
ATOM     20  C   UNL     1       0.600  -1.186   3.497  0.00  0.00    +0.060 A 
ATOM     21  C   UNL     1       2.040  -1.421   3.505  0.00  0.00    +0.017 A 
ATOM     22  C   UNL     1       2.667  -1.873   4.611  0.00  0.00    +0.027 A 
ATOM     23  C   UNL     1       1.896  -2.134   5.830  0.00  0.00    +0.043 A 
ATOM     24  N   UNL     1       2.276  -2.549   7.018  0.00  0.00    -0.378 N 
ATOM     25  C   UNL     1       1.090  -2.718   7.852  0.00  0.00    +0.106 C 
ATOM     26  C   UNL     1       1.166  -1.899   9.143  0.00  0.00    +0.029 C 
ATOM     27  C   UNL     1      -0.215  -1.907   9.806  0.00  0.00    +0.003 C 
ATOM     28  C   UNL     1      -1.246  -1.182   8.942  0.00  0.00    +0.004 C 
ATOM     29  C   UNL     1      -1.436  -1.931   7.612  0.00  0.00    +0.033 C 
ATOM     30  C   UNL     1      -0.063  -2.172   7.029  0.00  0.00    -0.038 C 
ATOM     31  C   UNL     1       0.435  -1.882   5.813  0.00  0.00    -0.000 A 
ATOM     32  C   UNL     1      -0.166  -1.406   4.618  0.00  0.00    +0.025 A 
ATOM     33  H   UNL     1       3.191  -2.717   7.293  0.00  0.00    +0.160 HD
ENDBRANCH  18  20
ENDBRANCH   1  18
TORSDOF 6
