REMARK  Name = ZINC13039838
REMARK  11 active torsions:
REMARK  status: ('A' for Active; 'I' for Inactive)
REMARK    1  A    between atoms: C_1  and  C_2
REMARK    2  A    between atoms: C_2  and  O_3
REMARK    3  A    between atoms: O_3  and  C_4
REMARK    4  A    between atoms: C_4  and  C_6
REMARK    5  A    between atoms: C_7  and  C_19
REMARK    6  A    between atoms: C_12  and  C_14
REMARK    7  A    between atoms: C_19  and  S_20
REMARK    8  A    between atoms: S_20  and  C_21
REMARK    9  A    between atoms: N_25  and  C_26
REMARK   10  A    between atoms: C_29  and  C_33
REMARK   11  A    between atoms: C_31  and  C_32
REMARK                            x       y       z     vdW  Elec       q    Type
REMARK                         _______ _______ _______ _____ _____    ______ ____
ROOT
ATOM      1  C   UNL     1      -8.287   4.861   0.756  0.00  0.00    +0.079 C 
ATOM      2  C   UNL     1      -7.861   3.608   1.026  0.00  0.00    +0.034 C 
ATOM      3  N   UNL     1      -8.402   2.885   2.050  0.00  0.00    -0.272 N 
ATOM      4  C   UNL     1      -9.366   3.347   2.857  0.00  0.00    +0.304 C 
ATOM      5  O   UNL     1      -9.781   2.630   3.747  0.00  0.00    -0.252 OA
ATOM      6  N   UNL     1      -9.893   4.579   2.712  0.00  0.00    -0.288 N 
ATOM      7  C   UNL     1      -9.381   5.438   1.631  0.00  0.00    +0.150 C 
ATOM      8  H   UNL     1      -8.067   1.988   2.204  0.00  0.00    +0.156 HD
ATOM      9  H   UNL     1     -10.593   4.892   3.306  0.00  0.00    +0.151 HD
ENDROOT
BRANCH   7  10
ATOM     10  C   UNL     1      -8.857   6.706   2.254  0.00  0.00    +0.015 A 
ATOM     11  C   UNL     1      -9.078   7.992   1.887  0.00  0.00    +0.013 A 
ATOM     12  C   UNL     1      -8.487   9.008   2.615  0.00  0.00    +0.008 A 
ATOM     13  C   UNL     1      -7.703   8.688   3.674  0.00  0.00    +0.045 A 
ATOM     14  S   UNL     1      -7.790   6.904   3.672  0.00  0.00    -0.099 S 
ENDBRANCH   7  10
BRANCH   1  15
ATOM     15  C   UNL     1      -7.732   5.609  -0.309  0.00  0.00    +0.339 C 
ATOM     16  O   UNL     1      -8.328   5.697  -1.366  0.00  0.00    -0.245 OA
BRANCH  15  17
ATOM     17  O   UNL     1      -6.541   6.224  -0.152  0.00  0.00    -0.462 OA
BRANCH  17  19
ATOM     18  C   UNL     1      -4.690   7.583  -0.904  0.00  0.00    +0.048 C 
ATOM     19  C   UNL     1      -6.040   6.962  -1.268  0.00  0.00    +0.229 C 
ENDBRANCH  17  19
ENDBRANCH  15  17
ENDBRANCH   1  15
BRANCH   2  20
ATOM     20  C   UNL     1      -6.775   2.996   0.179  0.00  0.00    +0.128 C 
BRANCH  20  21
ATOM     21  S   UNL     1      -5.217   3.001   1.100  0.00  0.00    -0.078 S 
BRANCH  21  22
ATOM     22  C   UNL     1      -4.155   2.252  -0.091  0.00  0.00    +0.214 A 
ATOM     23  N   UNL     1      -4.495   1.840  -1.294  0.00  0.00    -0.101 NA
ATOM     24  N   UNL     1      -3.481   1.337  -1.900  0.00  0.00    -0.022 NA
ATOM     25  N   UNL     1      -2.434   1.391  -1.152  0.00  0.00    -0.038 NA
ATOM     26  N   UNL     1      -2.826   1.993   0.057  0.00  0.00    -0.187 N 
BRANCH  26  27
ATOM     27  C   UNL     1      -2.024   2.262   1.175  0.00  0.00    +0.073 A 
ATOM     28  C   UNL     1      -2.458   1.904   2.445  0.00  0.00    +0.028 A 
ATOM     29  C   UNL     1      -1.669   2.177   3.545  0.00  0.00    +0.005 A 
ATOM     30  C   UNL     1      -0.445   2.799   3.382  0.00  0.00    -0.050 A 
ATOM     31  C   UNL     1      -0.007   3.151   2.119  0.00  0.00    +0.008 A 
ATOM     32  C   UNL     1      -0.793   2.882   1.015  0.00  0.00    -0.025 A 
ATOM     33  C   UNL     1      -0.315   3.266  -0.362  0.00  0.00    +0.046 C 
ATOM     34  C   UNL     1       0.414   3.095   4.585  0.00  0.00    +0.044 C 
ENDBRANCH  26  27
ENDBRANCH  21  22
ENDBRANCH  20  21
ENDBRANCH   2  20
TORSDOF 8
