REMARK  Name = ZINC42870549
REMARK  5 active torsions:
REMARK  status: ('A' for Active; 'I' for Inactive)
REMARK    1  A    between atoms: C_1  and  C_2
REMARK    2  A    between atoms: C_8  and  C_10
REMARK    3  A    between atoms: C_10  and  N_11
REMARK    4  A    between atoms: C_19  and  C_21
REMARK    5  A    between atoms: C_21  and  C_22
REMARK                            x       y       z     vdW  Elec       q    Type
REMARK                         _______ _______ _______ _____ _____    ______ ____
ROOT
ATOM      1  N   UNL     1       2.686   0.175   3.063  0.00  0.00    -0.299 N 
ATOM      2  C   UNL     1       4.030   0.249   2.999  0.00  0.00    +0.302 C 
ATOM      3  O   UNL     1       4.562   0.913   2.131  0.00  0.00    -0.253 OA
ATOM      4  N   UNL     1       4.785  -0.413   3.899  0.00  0.00    -0.282 N 
ATOM      5  C   UNL     1       4.163  -1.309   4.883  0.00  0.00    +0.109 C 
ATOM      6  C   UNL     1       4.624  -0.898   6.285  0.00  0.00    +0.019 C 
ATOM      7  C   UNL     1       6.154  -0.880   6.329  0.00  0.00    +0.003 C 
ATOM      8  C   UNL     1       6.683   0.147   5.326  0.00  0.00    +0.023 C 
ATOM      9  C   UNL     1       6.245  -0.257   3.910  0.00  0.00    +0.088 C 
ATOM     10  H   UNL     1       2.262  -0.412   3.708  0.00  0.00    +0.150 HD
ENDROOT
BRANCH   1  11
ATOM     11  C   UNL     1       1.864   0.981   2.156  0.00  0.00    +0.109 C 
BRANCH  11  18
ATOM     12  C   UNL     1      -0.199   2.958   1.510  0.00  0.00    +0.008 C 
ATOM     13  C   UNL     1      -0.472   1.456   1.408  0.00  0.00    -0.010 C 
ATOM     14  C   UNL     1      -1.952   1.187   1.686  0.00  0.00    +0.003 C 
ATOM     15  C   UNL     1      -2.304   1.675   3.092  0.00  0.00    +0.000 C 
ATOM     16  C   UNL     1      -1.448   0.930   4.119  0.00  0.00    +0.000 C 
ATOM     17  C   UNL     1       0.032   1.199   3.841  0.00  0.00    +0.005 C 
ATOM     18  C   UNL     1       0.384   0.711   2.434  0.00  0.00    +0.009 C 
ENDBRANCH  11  18
ENDBRANCH   1  11
BRANCH   9  19
ATOM     19  C   UNL     1       6.652   0.832   2.915  0.00  0.00    +0.147 C 
BRANCH  19  20
ATOM     20  C   UNL     1       6.574   0.286   1.513  0.00  0.00    +0.358 C 
ATOM     21  O   UNL     1       6.226  -0.867   1.326  0.00  0.00    -0.246 OA
ATOM     22  O   UNL     1       6.860   0.998   0.565  0.00  0.00    -0.246 OA
ENDBRANCH  19  20
ENDBRANCH   9  19
TORSDOF 4
