REMARK  Name = ZINC15275347
REMARK  10 active torsions:
REMARK  status: ('A' for Active; 'I' for Inactive)
REMARK    1  A    between atoms: C_1  and  C_2
REMARK    2  A    between atoms: C_5  and  N_8
REMARK    3  A    between atoms: C_9  and  C_27
REMARK    4  A    between atoms: C_12  and  S_13
REMARK    5  A    between atoms: S_13  and  C_14
REMARK    6  A    between atoms: C_14  and  C_15
REMARK    7  A    between atoms: N_20  and  C_21
REMARK    8  A    between atoms: C_21  and  C_22
REMARK    9  A    between atoms: C_30  and  O_33
REMARK   10  A    between atoms: O_33  and  C_34
REMARK                            x       y       z     vdW  Elec       q    Type
REMARK                         _______ _______ _______ _____ _____    ______ ____
ROOT
ATOM      1  N   UNL     1      -3.764   1.528  -0.159  0.00  0.00    -0.270 N 
ATOM      2  C   UNL     1      -2.500   0.981  -0.132  0.00  0.00    +0.169 A 
ATOM      3  N   UNL     1      -2.641  -0.302   0.107  0.00  0.00    -0.128 NA
ATOM      4  N   UNL     1      -3.887  -0.593   0.225  0.00  0.00    -0.122 NA
ATOM      5  C   UNL     1      -4.621   0.485   0.069  0.00  0.00    +0.197 A 
ENDROOT
BRANCH   1  10
ATOM      6  C   UNL     1      -5.134   6.965  -1.040  0.00  0.00    +0.044 C 
ATOM      7  C   UNL     1      -4.770   5.521  -0.807  0.00  0.00    -0.050 A 
ATOM      8  C   UNL     1      -5.098   4.565  -1.750  0.00  0.00    +0.005 A 
ATOM      9  C   UNL     1      -4.766   3.241  -1.538  0.00  0.00    +0.026 A 
ATOM     10  C   UNL     1      -4.103   2.871  -0.377  0.00  0.00    +0.051 A 
ATOM     11  C   UNL     1      -3.779   3.832   0.571  0.00  0.00    +0.026 A 
ATOM     12  C   UNL     1      -4.109   5.155   0.351  0.00  0.00    +0.005 A 
ENDBRANCH   1  10
BRANCH   2  13
ATOM     13  C   UNL     1      -1.226   1.703  -0.329  0.00  0.00    +0.020 A 
ATOM     14  C   UNL     1      -1.221   2.963  -0.932  0.00  0.00    +0.015 A 
ATOM     15  C   UNL     1      -0.031   3.636  -1.108  0.00  0.00    +0.046 A 
ATOM     16  C   UNL     1       1.163   3.060  -0.693  0.00  0.00    +0.120 A 
ATOM     17  C   UNL     1       1.163   1.805  -0.098  0.00  0.00    +0.046 A 
ATOM     18  C   UNL     1      -0.023   1.126   0.082  0.00  0.00    +0.015 A 
BRANCH  16  19
ATOM     19  O   UNL     1       2.334   3.727  -0.868  0.00  0.00    -0.495 OA
ATOM     20  C   UNL     1       3.524   3.077  -0.418  0.00  0.00    +0.277 C 
ENDBRANCH  16  19
ENDBRANCH   2  13
BRANCH   5  21
ATOM     21  S   UNL     1      -6.379   0.574   0.145  0.00  0.00    -0.076 S 
BRANCH  21  22
ATOM     22  C   UNL     1      -6.767  -1.162   0.479  0.00  0.00    +0.173 C 
BRANCH  22  23
ATOM     23  C   UNL     1      -8.260  -1.332   0.587  0.00  0.00    +0.231 C 
ATOM     24  O   UNL     1      -8.990  -0.373   0.452  0.00  0.00    -0.274 OA
ATOM     25  N   UNL     1      -8.784  -2.548   0.834  0.00  0.00    -0.239 N 
ATOM     26  C   UNL     1     -10.120  -2.700   0.931  0.00  0.00    +0.306 C 
ATOM     27  O   UNL     1     -10.852  -1.739   0.796  0.00  0.00    -0.252 OA
ATOM     28  N   UNL     1     -10.645  -3.916   1.179  0.00  0.00    -0.292 N 
ATOM     29  H   UNL     1      -8.200  -3.315   0.943  0.00  0.00    +0.159 HD
ATOM     30  H   UNL     1     -10.060  -4.683   1.287  0.00  0.00    +0.151 HD
BRANCH  28  31
ATOM     31  C   UNL     1     -12.096  -4.081   1.284  0.00  0.00    +0.180 C 
BRANCH  31  32
ATOM     32  C   UNL     1     -12.419  -5.526   1.562  0.00  0.00    +0.122 A 
ATOM     33  C   UNL     1     -12.532  -6.087   2.780  0.00  0.00    +0.046 A 
ATOM     34  C   UNL     1     -12.842  -7.451   2.575  0.00  0.00    +0.041 A 
ATOM     35  C   UNL     1     -12.900  -7.643   1.245  0.00  0.00    +0.195 A 
ATOM     36  O   UNL     1     -12.649  -6.472   0.637  0.00  0.00    -0.466 OA
ENDBRANCH  31  32
ENDBRANCH  28  31
ENDBRANCH  22  23
ENDBRANCH  21  22
ENDBRANCH   5  21
TORSDOF 8
