REMARK  Name = ZINC35640899
REMARK  9 active torsions:
REMARK  status: ('A' for Active; 'I' for Inactive)
REMARK    1  A    between atoms: C_1  and  C_2
REMARK    2  A    between atoms: C_2  and  O_3
REMARK    3  A    between atoms: O_3  and  C_4
REMARK    4  A    between atoms: C_4  and  C_6
REMARK    5  A    between atoms: C_7  and  C_24
REMARK    6  A    between atoms: N_8  and  C_21
REMARK    7  A    between atoms: C_12  and  C_14
REMARK    8  A    between atoms: C_21  and  C_22
REMARK    9  A    between atoms: C_24  and  N_25
REMARK                            x       y       z     vdW  Elec       q    Type
REMARK                         _______ _______ _______ _____ _____    ______ ____
ROOT
ATOM      1  C   UNL     1       1.218  -2.307  -1.782  0.00  0.00    +0.076 C 
ATOM      2  C   UNL     1       1.381  -3.582  -2.195  0.00  0.00    +0.011 C 
ATOM      3  N   UNL     1       1.979  -3.865  -3.390  0.00  0.00    -0.257 N 
ATOM      4  C   UNL     1       2.441  -2.929  -4.228  0.00  0.00    +0.307 C 
ATOM      5  O   UNL     1       2.959  -3.278  -5.271  0.00  0.00    -0.252 OA
ATOM      6  N   UNL     1       2.351  -1.612  -3.954  0.00  0.00    -0.288 N 
ATOM      7  C   UNL     1       1.715  -1.202  -2.691  0.00  0.00    +0.143 C 
ATOM      8  H   UNL     1       2.693  -0.951  -4.576  0.00  0.00    +0.151 HD
ENDROOT
BRANCH   7   9
ATOM      9  C   UNL     1       0.546  -0.310  -3.022  0.00  0.00    -0.021 A 
ATOM     10  C   UNL     1      -0.359  -0.690  -3.995  0.00  0.00    +0.006 A 
ATOM     11  C   UNL     1      -1.432   0.127  -4.300  0.00  0.00    +0.002 A 
ATOM     12  C   UNL     1      -1.600   1.325  -3.630  0.00  0.00    +0.020 A 
ATOM     13  C   UNL     1      -0.695   1.705  -2.656  0.00  0.00    +0.041 A 
ATOM     14  C   UNL     1       0.375   0.884  -2.348  0.00  0.00    +0.025 A 
ATOM     15 CL   UNL     1      -0.905   3.209  -1.815  0.00  0.00    -0.084 Cl
ENDBRANCH   7   9
BRANCH   1  16
ATOM     16  C   UNL     1       0.598  -2.012  -0.544  0.00  0.00    +0.339 C 
ATOM     17  O   UNL     1       0.120  -2.909   0.125  0.00  0.00    -0.245 OA
BRANCH  16  18
ATOM     18  O   UNL     1       0.536  -0.737  -0.107  0.00  0.00    -0.462 OA
BRANCH  18  20
ATOM     19  C   UNL     1      -0.077   0.982   1.477  0.00  0.00    +0.048 C 
ATOM     20  C   UNL     1      -0.104  -0.513   1.151  0.00  0.00    +0.229 C 
ENDBRANCH  18  20
ENDBRANCH  16  18
ENDBRANCH   1  16
BRANCH   3  21
ATOM     21  C   UNL     1       2.123  -5.271  -3.775  0.00  0.00    +0.141 C 
BRANCH  21  22
ATOM     22  C   UNL     1       0.943  -5.684  -4.617  0.00  0.00    -0.015 C 
ATOM     23  C   UNL     1       1.136  -6.207  -5.803  0.00  0.00    +0.005 C 
ENDBRANCH  21  22
ENDBRANCH   3  21
BRANCH   2  24
ATOM     24  C   UNL     1       0.895  -4.711  -1.323  0.00  0.00    -0.026 C 
BRANCH  24  25
ATOM     25  N   UNL     1       1.876  -4.965  -0.259  0.00  0.00    +0.383 N 
ATOM     26  C   UNL     1       3.128  -5.446  -0.855  0.00  0.00    -0.078 C 
ATOM     27  C   UNL     1       4.179  -5.634   0.241  0.00  0.00    -0.019 C 
ATOM     28  C   UNL     1       3.670  -6.660   1.258  0.00  0.00    -0.004 C 
ATOM     29  C   UNL     1       2.326  -6.184   1.818  0.00  0.00    -0.019 C 
ATOM     30  C   UNL     1       1.344  -5.975   0.663  0.00  0.00    -0.078 C 
ATOM     31  H   UNL     1       2.052  -4.109   0.245  0.00  0.00    -0.081 HD
ENDBRANCH  24  25
ENDBRANCH   2  24
TORSDOF 8
