REMARK  Name = ZINC09423033
REMARK  5 active torsions:
REMARK  status: ('A' for Active; 'I' for Inactive)
REMARK    1  A    between atoms: C_7  and  C_23
REMARK    2  A    between atoms: N_9  and  C_10
REMARK    3  A    between atoms: C_10  and  N_69
REMARK    4  A    between atoms: C_15  and  C_17
REMARK    5  A    between atoms: N_28  and  C_31
REMARK                            x       y       z     vdW  Elec       q    Type
REMARK                         _______ _______ _______ _____ _____    ______ ____
ROOT
ATOM      1  C   UNL     1      -1.090   1.839  -0.951  0.00  0.00    +0.001 A 
ATOM      2  C   UNL     1       0.117   1.166  -0.829  0.00  0.00    +0.002 A 
ATOM      3  C   UNL     1       1.262   1.837  -0.459  0.00  0.00    +0.026 A 
ATOM      4  C   UNL     1       1.212   3.203  -0.199  0.00  0.00    +0.048 A 
ATOM      5  C   UNL     1      -0.012   3.882  -0.317  0.00  0.00    +0.012 A 
ATOM      6  C   UNL     1      -1.161   3.191  -0.692  0.00  0.00    +0.011 A 
ATOM      7  C   UNL     1       0.273   5.289   0.021  0.00  0.00    +0.062 A 
ATOM      8  C   UNL     1       1.604   5.355   0.309  0.00  0.00    +0.097 A 
ATOM      9  N   UNL     1       2.163   4.127   0.181  0.00  0.00    -0.363 N 
ENDROOT
BRANCH   7  10
ATOM     10  C   UNL     1      -0.688   6.400   0.042  0.00  0.00    +0.249 C 
ATOM     11  O   UNL     1      -1.439   6.573  -0.899  0.00  0.00    -0.270 OA
ATOM     12  N   UNL     1      -0.737   7.228   1.105  0.00  0.00    -0.294 N 
ATOM     13  C   UNL     1      -1.749   8.292   1.186  0.00  0.00    +0.127 C 
ATOM     14  C   UNL     1      -2.455   8.183   2.546  0.00  0.00    +0.124 C 
ATOM     15  N   UNL     1      -1.450   8.200   3.617  0.00  0.00    -0.327 N 
ATOM     16  C   UNL     1      -0.557   7.037   3.528  0.00  0.00    +0.124 C 
ATOM     17  C   UNL     1       0.223   7.095   2.211  0.00  0.00    +0.127 C 
BRANCH  15  18
ATOM     18  C   UNL     1      -2.057   8.271   4.873  0.00  0.00    +0.031 A 
ATOM     19  C   UNL     1      -1.782   7.306   5.834  0.00  0.00    +0.023 A 
ATOM     20  C   UNL     1      -2.379   7.381   7.077  0.00  0.00    +0.003 A 
ATOM     21  C   UNL     1      -3.259   8.409   7.362  0.00  0.00    +0.020 A 
ATOM     22  C   UNL     1      -3.540   9.369   6.405  0.00  0.00    +0.043 A 
ATOM     23  C   UNL     1      -2.941   9.302   5.161  0.00  0.00    +0.043 A 
ATOM     24 CL   UNL     1      -4.645  10.658   6.768  0.00  0.00    -0.083 Cl
ENDBRANCH  15  18
ENDBRANCH   7  10
BRANCH   9  25
ATOM     25  C   UNL     1       3.577   3.824   0.413  0.00  0.00    +0.048 C 
BRANCH  25  31
ATOM     26  C   UNL     1       4.308   5.064  -1.533  0.00  0.00    -0.075 C 
ATOM     27  C   UNL     1       4.916   4.923  -2.930  0.00  0.00    -0.019 C 
ATOM     28  C   UNL     1       6.336   4.361  -2.809  0.00  0.00    -0.003 C 
ATOM     29  C   UNL     1       6.284   3.018  -2.076  0.00  0.00    -0.011 C 
ATOM     30  C   UNL     1       5.636   3.215  -0.704  0.00  0.00    -0.034 C 
ATOM     31  N   UNL     1       4.264   3.733  -0.891  0.00  0.00    +0.396 N 
ATOM     32  H   UNL     1       3.744   3.088  -1.498  0.00  0.00    -0.078 HD
BRANCH  30  33
ATOM     33  C   UNL     1       5.565   1.891   0.012  0.00  0.00    -0.043 A 
ATOM     34  C   UNL     1       6.503   1.565   0.980  0.00  0.00    +0.005 A 
ATOM     35  C   UNL     1       6.399   0.336   1.613  0.00  0.00    +0.020 A 
ATOM     36  C   UNL     1       5.371  -0.518   1.261  0.00  0.00    +0.111 A 
ATOM     37  N   UNL     1       4.496  -0.175   0.336  0.00  0.00    -0.263 NA
ATOM     38  C   UNL     1       4.561   0.988  -0.283  0.00  0.00    +0.112 A 
ENDBRANCH  30  33
ENDBRANCH  25  31
ENDBRANCH   9  25
TORSDOF 5
