REMARK  Name = ZINC06229110
REMARK  6 active torsions:
REMARK  status: ('A' for Active; 'I' for Inactive)
REMARK    1  A    between atoms: C_4  and  C_7
REMARK    2  A    between atoms: N_8  and  C_9
REMARK    3  A    between atoms: C_12  and  S_15
REMARK    4  A    between atoms: S_15  and  N_18
REMARK    5  A    between atoms: N_25  and  S_26
REMARK    6  A    between atoms: S_26  and  C_29
REMARK                            x       y       z     vdW  Elec       q    Type
REMARK                         _______ _______ _______ _____ _____    ______ ____
ROOT
ATOM      1  C   UNL     1       4.290  -1.537   1.105  0.00  0.00    +0.146 C 
ATOM      2  N   UNL     1       5.508  -1.074   1.255  0.00  0.00    -0.231 NA
ATOM      3  N   UNL     1       3.705  -1.546  -0.141  0.00  0.00    -0.199 N 
ATOM      4  H   UNL     1       4.155  -1.126  -0.891  0.00  0.00    +0.175 HD
ENDROOT
BRANCH   1   8
ATOM      5  C   UNL     1       2.152  -3.010   4.467  0.00  0.00    +0.000 A 
ATOM      6  C   UNL     1       3.035  -3.837   3.796  0.00  0.00    +0.001 A 
ATOM      7  C   UNL     1       3.732  -3.365   2.703  0.00  0.00    +0.011 A 
ATOM      8  C   UNL     1       3.546  -2.050   2.275  0.00  0.00    +0.016 A 
ATOM      9  C   UNL     1       2.653  -1.220   2.957  0.00  0.00    +0.011 A 
ATOM     10  C   UNL     1       1.962  -1.705   4.048  0.00  0.00    +0.001 A 
ENDBRANCH   1   8
BRANCH   2  11
ATOM     11  C   UNL     1       6.242  -0.713   0.158  0.00  0.00    +0.066 A 
ATOM     12  C   UNL     1       6.527  -1.653  -0.836  0.00  0.00    +0.030 A 
ATOM     13  C   UNL     1       7.267  -1.282  -1.939  0.00  0.00    +0.031 A 
ATOM     14  C   UNL     1       7.728   0.017  -2.062  0.00  0.00    +0.109 A 
ATOM     15  C   UNL     1       7.450   0.953  -1.081  0.00  0.00    +0.031 A 
ATOM     16  C   UNL     1       6.706   0.598   0.024  0.00  0.00    +0.030 A 
BRANCH  14  17
ATOM     17  S   UNL     1       8.673   0.481  -3.475  0.00  0.00    +0.073 S 
ATOM     18  O   UNL     1       9.449   1.609  -3.092  0.00  0.00    -0.150 OA
ATOM     19  O   UNL     1       9.259  -0.710  -3.981  0.00  0.00    -0.150 OA
BRANCH  17  20
ATOM     20  N   UNL     1       7.606   1.010  -4.626  0.00  0.00    -0.199 N 
ATOM     21  C   UNL     1       6.854   2.158  -4.402  0.00  0.00    +0.138 A 
ATOM     22  C   UNL     1       5.956   2.593  -5.370  0.00  0.00    +0.045 A 
ATOM     23  C   UNL     1       5.214   3.737  -5.134  0.00  0.00    +0.005 A 
ATOM     24  C   UNL     1       5.397   4.409  -3.933  0.00  0.00    +0.020 A 
ATOM     25  C   UNL     1       6.306   3.920  -3.016  0.00  0.00    +0.113 A 
ATOM     26  N   UNL     1       6.996   2.823  -3.266  0.00  0.00    -0.239 NA
ATOM     27  H   UNL     1       7.506   0.519  -5.456  0.00  0.00    +0.175 HD
ENDBRANCH  17  20
ENDBRANCH  14  17
ENDBRANCH   2  11
BRANCH   3  28
ATOM     28  S   UNL     1       2.234  -2.274  -0.359  0.00  0.00    +0.073 S 
ATOM     29  O   UNL     1       2.483  -3.668  -0.473  0.00  0.00    -0.150 OA
ATOM     30  O   UNL     1       1.363  -1.733   0.625  0.00  0.00    -0.150 OA
BRANCH  28  31
ATOM     31  C   UNL     1       1.617  -1.743  -1.923  0.00  0.00    +0.109 A 
ATOM     32  C   UNL     1       0.953  -0.535  -2.030  0.00  0.00    +0.029 A 
ATOM     33  C   UNL     1       0.470  -0.119  -3.256  0.00  0.00    +0.002 A 
ATOM     34  C   UNL     1       0.651  -0.910  -4.375  0.00  0.00    +0.000 A 
ATOM     35  C   UNL     1       1.315  -2.118  -4.268  0.00  0.00    +0.002 A 
ATOM     36  C   UNL     1       1.802  -2.532  -3.043  0.00  0.00    +0.029 A 
ENDBRANCH  28  31
ENDBRANCH   3  28
TORSDOF 6
