REMARK  Name = ZINC45340108
REMARK  6 active torsions:
REMARK  status: ('A' for Active; 'I' for Inactive)
REMARK    1  A    between atoms: C_6  and  C_7
REMARK    2  A    between atoms: C_7  and  C_8
REMARK    3  A    between atoms: C_7  and  C_15
REMARK    4  A    between atoms: C_17  and  C_24
REMARK    5  A    between atoms: C_18  and  C_20
REMARK    6  A    between atoms: C_20  and  C_21
REMARK                            x       y       z     vdW  Elec       q    Type
REMARK                         _______ _______ _______ _____ _____    ______ ____
ROOT
ATOM      1  C   UNL     1      -1.265  -1.740   1.167  0.00  0.00    +0.091 A 
ATOM      2  N   UNL     1      -2.092  -1.819   2.177  0.00  0.00    -0.243 NA
ATOM      3  C   UNL     1      -1.937  -2.730   3.126  0.00  0.00    +0.084 A 
ATOM      4  C   UNL     1      -0.870  -3.577   2.991  0.00  0.00    +0.028 A 
ATOM      5  S   UNL     1      -0.166  -2.979   1.464  0.00  0.00    -0.075 S 
ENDROOT
BRANCH   3   6
ATOM      6  C   UNL     1      -2.870  -2.826   4.276  0.00  0.00    +0.019 A 
ATOM      7  C   UNL     1      -3.446  -1.673   4.821  0.00  0.00    +0.015 A 
ATOM      8  C   UNL     1      -4.309  -1.812   5.890  0.00  0.00    +0.044 A 
ATOM      9  C   UNL     1      -4.575  -3.085   6.388  0.00  0.00    +0.116 A 
ATOM     10  N   UNL     1      -4.013  -4.156   5.849  0.00  0.00    -0.240 NA
ATOM     11  C   UNL     1      -3.189  -4.065   4.824  0.00  0.00    +0.123 A 
ATOM     12  N   UNL     1      -5.442  -3.233   7.464  0.00  0.00    -0.343 N 
ATOM     13  H   UNL     1      -5.857  -2.453   7.864  0.00  0.00    +0.144 HD
ATOM     14  H   UNL     1      -5.632  -4.117   7.816  0.00  0.00    +0.144 HD
ENDBRANCH   3   6
BRANCH   1  15
ATOM     15  C   UNL     1      -1.293  -0.775   0.010  0.00  0.00    +0.104 C 
BRANCH  15  21
ATOM     16  C   UNL     1      -0.059   1.402  -0.028  0.00  0.00    +0.007 A 
ATOM     17  C   UNL     1       1.114   2.133  -0.048  0.00  0.00    +0.038 A 
ATOM     18  C   UNL     1       2.335   1.481  -0.050  0.00  0.00    +0.123 A 
ATOM     19  C   UNL     1       2.380   0.097  -0.033  0.00  0.00    +0.038 A 
ATOM     20  C   UNL     1       1.206  -0.631  -0.014  0.00  0.00    +0.007 A 
ATOM     21  C   UNL     1      -0.013   0.021  -0.011  0.00  0.00    -0.033 A 
ATOM     22  F   UNL     1       3.482   2.194  -0.070  0.00  0.00    -0.205 F 
ENDBRANCH  15  21
BRANCH  15  23
ATOM     23  C   UNL     1      -1.430  -1.541  -1.280  0.00  0.00    -0.033 A 
ATOM     24  C   UNL     1      -0.544  -2.560  -1.576  0.00  0.00    +0.007 A 
ATOM     25  C   UNL     1      -0.669  -3.263  -2.759  0.00  0.00    +0.038 A 
ATOM     26  C   UNL     1      -1.682  -2.947  -3.648  0.00  0.00    +0.123 A 
ATOM     27  C   UNL     1      -2.569  -1.926  -3.351  0.00  0.00    +0.038 A 
ATOM     28  C   UNL     1      -2.445  -1.228  -2.165  0.00  0.00    +0.007 A 
ATOM     29  F   UNL     1      -1.805  -3.634  -4.805  0.00  0.00    -0.205 F 
ENDBRANCH  15  23
ENDBRANCH   1  15
BRANCH   4  30
ATOM     30  C   UNL     1      -0.419  -4.706   3.882  0.00  0.00    +0.169 C 
BRANCH  30  31
ATOM     31  C   UNL     1      -1.081  -5.987   3.444  0.00  0.00    +0.361 C 
ATOM     32  O   UNL     1      -1.848  -5.984   2.496  0.00  0.00    -0.246 OA
ATOM     33  O   UNL     1      -0.849  -7.027   4.037  0.00  0.00    -0.246 OA
ENDBRANCH  30  31
ENDBRANCH   4  30
TORSDOF 6
