REMARK  Name = ZINC34721336
REMARK  7 active torsions:
REMARK  status: ('A' for Active; 'I' for Inactive)
REMARK    1  A    between atoms: C_6  and  C_7
REMARK    2  A    between atoms: C_7  and  N_8
REMARK    3  A    between atoms: N_8  and  C_9
REMARK    4  A    between atoms: N_8  and  C_27
REMARK    5  A    between atoms: C_9  and  C_10
REMARK    6  A    between atoms: C_13  and  C_15
REMARK    7  A    between atoms: N_17  and  C_18
REMARK                            x       y       z     vdW  Elec       q    Type
REMARK                         _______ _______ _______ _____ _____    ______ ____
ROOT
ATOM      1  C   UNL     1      -3.155  -1.851  -2.755  0.00  0.00    +0.090 A 
ATOM      2  C   UNL     1      -2.794  -2.968  -3.424  0.00  0.00    +0.043 A 
ATOM      3  C   UNL     1      -3.232  -2.815  -4.749  0.00  0.00    +0.055 A 
ATOM      4  C   UNL     1      -3.845  -1.597  -4.822  0.00  0.00    +0.189 A 
ATOM      5  O   UNL     1      -3.793  -1.030  -3.599  0.00  0.00    -0.457 OA
ENDROOT
BRANCH   4   6
ATOM      6  C   UNL     1      -4.458  -1.011  -6.018  0.00  0.00    +0.280 C 
ATOM      7  O   UNL     1      -4.447  -1.623  -7.070  0.00  0.00    -0.267 OA
ATOM      8  N   UNL     1      -5.034   0.206  -5.953  0.00  0.00    -0.298 N 
ATOM      9  H   UNL     1      -5.043   0.694  -5.114  0.00  0.00    +0.150 HD
BRANCH   8  10
ATOM     10  C   UNL     1      -5.646   0.791  -7.148  0.00  0.00    +0.159 C 
ATOM     11  C   UNL     1      -6.715   1.806  -6.734  0.00  0.00    +0.032 C 
ATOM     12  C   UNL     1      -7.749   1.976  -7.832  0.00  0.00    +0.004 C 
ATOM     13  C   UNL     1      -7.203   2.622  -9.092  0.00  0.00    +0.019 C 
ATOM     14  C   UNL     1      -6.194   1.703  -9.783  0.00  0.00    +0.104 C 
ATOM     15  N   UNL     1      -4.865   1.935  -9.194  0.00  0.00    -0.314 N 
ATOM     16  C   UNL     1      -4.589   1.507  -7.962  0.00  0.00    +0.233 C 
ATOM     17  O   UNL     1      -3.488   1.697  -7.490  0.00  0.00    -0.274 OA
ATOM     18  H   UNL     1      -4.185   2.399  -9.707  0.00  0.00    +0.149 HD
ENDBRANCH   8  10
ENDBRANCH   4   6
BRANCH   1  19
ATOM     19  C   UNL     1      -2.890  -1.578  -1.296  0.00  0.00    -0.002 C 
BRANCH  19  20
ATOM     20  N   UNL     1      -2.199  -0.289  -1.158  0.00  0.00    +0.389 N 
ATOM     21  H   UNL     1      -2.685   0.412  -1.697  0.00  0.00    -0.080 HD
BRANCH  20  22
ATOM     22  C   UNL     1      -0.821  -0.417  -1.648  0.00  0.00    -0.068 C 
ATOM     23  C   UNL     1      -0.837  -0.644  -3.161  0.00  0.00    -0.015 C 
ATOM     24  C   UNL     1       0.599  -0.777  -3.672  0.00  0.00    -0.002 C 
ATOM     25  C   UNL     1       1.278  -1.964  -2.985  0.00  0.00    -0.000 C 
ATOM     26  C   UNL     1       1.293  -1.736  -1.472  0.00  0.00    -0.002 C 
ATOM     27  C   UNL     1      -0.143  -1.603  -0.961  0.00  0.00    -0.015 C 
ENDBRANCH  20  22
BRANCH  20  28
ATOM     28  C   UNL     1      -2.181   0.107   0.257  0.00  0.00    -0.042 C 
BRANCH  28  34
ATOM     29  C   UNL     1      -2.471   2.590   0.136  0.00  0.00    +0.003 A 
ATOM     30  C   UNL     1      -1.979   3.877   0.248  0.00  0.00    +0.015 A 
ATOM     31  C   UNL     1      -0.658   4.083   0.603  0.00  0.00    +0.018 A 
ATOM     32  C   UNL     1       0.169   3.002   0.847  0.00  0.00    +0.015 A 
ATOM     33  C   UNL     1      -0.324   1.716   0.735  0.00  0.00    +0.003 A 
ATOM     34  C   UNL     1      -1.644   1.510   0.379  0.00  0.00    -0.064 A 
ATOM     35 BR   UNL     1       0.016   5.843   0.756  0.00  0.00    -0.050 Br
ENDBRANCH  28  34
ENDBRANCH  20  28
ENDBRANCH  19  20
ENDBRANCH   1  19
TORSDOF 7
