REMARK  Name = ZINC20641114
REMARK  10 active torsions:
REMARK  status: ('A' for Active; 'I' for Inactive)
REMARK    1  A    between atoms: C_1  and  C_2
REMARK    2  A    between atoms: C_2  and  O_3
REMARK    3  A    between atoms: O_3  and  C_4
REMARK    4  A    between atoms: C_4  and  C_6
REMARK    5  A    between atoms: C_12  and  O_31
REMARK    6  A    between atoms: C_17  and  C_30
REMARK    7  A    between atoms: N_18  and  C_22
REMARK    8  A    between atoms: C_23  and  C_29
REMARK    9  A    between atoms: C_27  and  C_28
REMARK   10  A    between atoms: O_31  and  C_32
REMARK                            x       y       z     vdW  Elec       q    Type
REMARK                         _______ _______ _______ _____ _____    ______ ____
ROOT
ATOM      1  C   UNL     1       3.446   2.534   1.620  0.00  0.00    +0.185 C 
ATOM      2  C   UNL     1       3.984   1.603   2.720  0.00  0.00    +0.125 C 
ATOM      3  C   UNL     1       3.946   2.350   4.034  0.00  0.00    +0.019 A 
ATOM      4  C   UNL     1       4.793   1.954   5.053  0.00  0.00    +0.054 A 
ATOM      5  C   UNL     1       4.766   2.610   6.274  0.00  0.00    +0.121 A 
ATOM      6  C   UNL     1       3.888   3.665   6.471  0.00  0.00    +0.049 A 
ATOM      7  C   UNL     1       3.047   4.062   5.452  0.00  0.00    +0.049 A 
ATOM      8  C   UNL     1       3.075   3.407   4.224  0.00  0.00    +0.129 A 
ATOM      9  O   UNL     1       2.236   3.834   3.244  0.00  0.00    -0.467 OA
ATOM     10  C   UNL     1       2.067   3.022   2.085  0.00  0.00    +0.196 C 
ATOM     11  N   UNL     1       1.220   1.869   2.377  0.00  0.00    -0.243 N 
ATOM     12  C   UNL     1       1.734   0.671   2.696  0.00  0.00    +0.141 C 
ATOM     13  S   UNL     1       0.667  -0.648   2.928  0.00  0.00    -0.018 S 
ATOM     14  N   UNL     1       3.054   0.467   2.834  0.00  0.00    -0.318 N 
ATOM     15  C   UNL     1       1.428   3.853   0.971  0.00  0.00    +0.080 C 
ATOM     16  H   UNL     1       3.441  -0.543   3.032  0.00  0.00    +0.148 HD
ENDROOT
BRANCH  11  17
ATOM     17  C   UNL     1      -0.170   2.020   2.329  0.00  0.00    +0.045 A 
ATOM     18  C   UNL     1      -0.867   1.682   1.177  0.00  0.00    -0.029 A 
ATOM     19  C   UNL     1      -2.240   1.832   1.133  0.00  0.00    +0.005 A 
ATOM     20  C   UNL     1      -2.919   2.318   2.235  0.00  0.00    +0.001 A 
ATOM     21  C   UNL     1      -2.228   2.651   3.385  0.00  0.00    +0.005 A 
ATOM     22  C   UNL     1      -0.856   2.508   3.434  0.00  0.00    -0.029 A 
ATOM     23  C   UNL     1      -0.103   2.875   4.687  0.00  0.00    +0.045 C 
ATOM     24  C   UNL     1      -0.128   1.151  -0.024  0.00  0.00    +0.045 C 
ENDBRANCH  11  17
BRANCH   1  25
ATOM     25  C   UNL     1       4.374   3.707   1.440  0.00  0.00    +0.318 C 
ATOM     26  O   UNL     1       3.980   4.828   1.660  0.00  0.00    -0.250 OA
BRANCH  25  27
ATOM     27  O   UNL     1       5.639   3.508   1.036  0.00  0.00    -0.465 OA
BRANCH  27  29
ATOM     28  C   UNL     1       7.871   4.261   0.420  0.00  0.00    +0.048 C 
ATOM     29  C   UNL     1       6.476   4.684   0.884  0.00  0.00    +0.229 C 
ENDBRANCH  27  29
ENDBRANCH  25  27
ENDBRANCH   1  25
BRANCH   5  30
ATOM     30  O   UNL     1       5.598   2.219   7.276  0.00  0.00    -0.495 OA
ATOM     31  C   UNL     1       5.514   2.940   8.507  0.00  0.00    +0.277 C 
ENDBRANCH   5  30
TORSDOF 5
