REMARK  Name = ZINC62346588
REMARK  11 active torsions:
REMARK  status: ('A' for Active; 'I' for Inactive)
REMARK    1  A    between atoms: C_1  and  C_2
REMARK    2  A    between atoms: C_2  and  C_3
REMARK    3  A    between atoms: C_3  and  N_4
REMARK    4  A    between atoms: N_4  and  C_5
REMARK    5  A    between atoms: N_4  and  C_8
REMARK    6  A    between atoms: C_5  and  C_6
REMARK    7  A    between atoms: C_6  and  C_7
REMARK    8  A    between atoms: C_8  and  C_9
REMARK    9  A    between atoms: C_9  and  C_11
REMARK   10  A    between atoms: C_18  and  C_21
REMARK   11  A    between atoms: N_19  and  C_20
REMARK                            x       y       z     vdW  Elec       q    Type
REMARK                         _______ _______ _______ _____ _____    ______ ____
ROOT
ATOM      1  C   UNL     1       3.173  -1.944  -1.952  0.00  0.00    +0.094 C 
ATOM      2 CL   UNL     1       3.721  -2.458  -0.312  0.00  0.00    -0.119 Cl
ENDROOT
BRANCH   1   3
ATOM      3  C   UNL     1       4.120  -2.485  -2.991  0.00  0.00    -0.029 A 
ATOM      4  C   UNL     1       4.377  -3.848  -3.043  0.00  0.00    +0.007 A 
ATOM      5  C   UNL     1       5.241  -4.361  -3.987  0.00  0.00    +0.028 A 
ATOM      6  C   UNL     1       5.858  -3.506  -4.891  0.00  0.00    +0.069 A 
ATOM      7  C   UNL     1       5.598  -2.127  -4.838  0.00  0.00    +0.090 A 
ATOM      8  C   UNL     1       4.714  -1.630  -3.875  0.00  0.00    +0.035 A 
ATOM      9  N   UNL     1       6.327  -1.548  -5.825  0.00  0.00    -0.233 NA
ATOM     10  C   UNL     1       7.000  -2.461  -6.464  0.00  0.00    +0.107 A 
ATOM     11  N   UNL     1       6.749  -3.686  -5.930  0.00  0.00    -0.331 N 
ATOM     12  C   UNL     1       7.318  -4.961  -6.375  0.00  0.00    +0.150 C 
ATOM     13  C   UNL     1       7.924  -2.198  -7.626  0.00  0.00    +0.086 C 
ENDBRANCH   1   3
BRANCH   1  14
ATOM     14  C   UNL     1       1.766  -2.486  -2.212  0.00  0.00    -0.055 C 
BRANCH  14  15
ATOM     15  N   UNL     1       0.842  -1.959  -1.199  0.00  0.00    +0.381 N 
ATOM     16  H   UNL     1       1.193  -2.176  -0.279  0.00  0.00    -0.082 HD
BRANCH  15  17
ATOM     17  C   UNL     1       0.731  -0.502  -1.349  0.00  0.00    -0.079 C 
BRANCH  17  19
ATOM     18  C   UNL     1      -0.122   1.593  -0.288  0.00  0.00    +0.002 C 
ATOM     19  C   UNL     1      -0.116   0.065  -0.209  0.00  0.00    -0.022 C 
ENDBRANCH  17  19
ENDBRANCH  15  17
BRANCH  15  20
ATOM     20  C   UNL     1      -0.481  -2.572  -1.377  0.00  0.00    -0.079 C 
BRANCH  20  21
ATOM     21  C   UNL     1      -0.393  -4.070  -1.078  0.00  0.00    -0.022 C 
ATOM     22  C   UNL     1      -1.794  -4.684  -1.133  0.00  0.00    +0.002 C 
ENDBRANCH  20  21
ENDBRANCH  15  20
ENDBRANCH  14  15
ENDBRANCH   1  14
TORSDOF 7
