REMARK  Name = ZINC33306569
REMARK  12 active torsions:
REMARK  status: ('A' for Active; 'I' for Inactive)
REMARK    1  A    between atoms: C_1  and  C_2
REMARK    2  A    between atoms: C_2  and  C_3
REMARK    3  A    between atoms: N_5  and  C_6
REMARK    4  A    between atoms: C_7  and  C_31
REMARK    5  A    between atoms: C_10  and  C_11
REMARK    6  A    between atoms: C_12  and  C_13
REMARK    7  A    between atoms: C_16  and  S_18
REMARK    8  A    between atoms: S_18  and  N_21
REMARK    9  A    between atoms: N_21  and  C_22
REMARK   10  A    between atoms: C_24  and  C_30
REMARK   11  A    between atoms: C_27  and  O_28
REMARK   12  A    between atoms: O_28  and  C_29
REMARK                            x       y       z     vdW  Elec       q    Type
REMARK                         _______ _______ _______ _____ _____    ______ ____
ROOT
ATOM      1  C   UNL     1       0.861   4.744  -1.866  0.00  0.00    +0.014 A 
ATOM      2  C   UNL     1      -0.434   4.491  -2.292  0.00  0.00    +0.017 A 
ATOM      3  C   UNL     1      -0.721   3.248  -2.804  0.00  0.00    +0.037 A 
ATOM      4  C   UNL     1       0.261   2.310  -2.865  0.00  0.00    +0.146 A 
ATOM      5  S   UNL     1       1.665   3.184  -2.194  0.00  0.00    -0.069 S 
ENDROOT
BRANCH   4   6
ATOM      6  S   UNL     1       0.172   0.654  -3.461  0.00  0.00    +0.079 S 
ATOM      7  O   UNL     1       1.226  -0.061  -2.831  0.00  0.00    -0.149 OA
ATOM      8  O   UNL     1      -1.188   0.257  -3.354  0.00  0.00    -0.149 OA
BRANCH   6   9
ATOM      9  N   UNL     1       0.528   0.696  -5.077  0.00  0.00    -0.212 N 
ATOM     10  H   UNL     1      -0.212   0.348  -5.813  0.00  0.00    +0.174 HD
BRANCH   9  11
ATOM     11  C   UNL     1       1.771   1.174  -5.508  0.00  0.00    +0.090 A 
ATOM     12  C   UNL     1       2.907   0.945  -4.745  0.00  0.00    +0.031 A 
ATOM     13  C   UNL     1       4.134   1.413  -5.175  0.00  0.00    -0.048 A 
ATOM     14  C   UNL     1       4.232   2.119  -6.360  0.00  0.00    +0.007 A 
ATOM     15  C   UNL     1       3.103   2.356  -7.123  0.00  0.00    +0.048 A 
ATOM     16  C   UNL     1       1.871   1.885  -6.702  0.00  0.00    +0.142 A 
ATOM     17  C   UNL     1       5.368   1.159  -4.347  0.00  0.00    +0.044 C 
BRANCH  16  18
ATOM     18  O   UNL     1       0.760   2.119  -7.451  0.00  0.00    -0.493 OA
ATOM     19  C   UNL     1       0.937   2.855  -8.662  0.00  0.00    +0.277 C 
ENDBRANCH  16  18
ENDBRANCH   9  11
ENDBRANCH   6   9
ENDBRANCH   4   6
BRANCH   1  21
ATOM     20  C   UNL     1       2.726   6.014  -0.939  0.00  0.00    +0.052 C 
ATOM     21  C   UNL     1       1.421   5.969  -1.296  0.00  0.00    +0.019 C 
BRANCH  20  26
ATOM     22  C   UNL     1       4.594   7.428   0.038  0.00  0.00    +0.103 A 
ATOM     23  C   UNL     1       4.701   8.744   0.521  0.00  0.00    +0.102 A 
ATOM     24  N   UNL     1       3.535   9.318   0.414  0.00  0.00    -0.081 NA
ATOM     25  O   UNL     1       2.624   8.394  -0.150  0.00  0.00    -0.353 OA
ATOM     26  C   UNL     1       3.286   7.238  -0.370  0.00  0.00    +0.182 A 
ATOM     27  C   UNL     1       5.951   9.382   1.068  0.00  0.00    +0.071 C 
BRANCH  22  30
ATOM     28  C   UNL     1       6.899   6.881  -0.211  0.00  0.00    +0.217 C 
ATOM     29  O   UNL     1       7.142   8.051  -0.418  0.00  0.00    -0.275 OA
ATOM     30  N   UNL     1       5.626   6.481  -0.020  0.00  0.00    -0.281 N 
ATOM     31  H   UNL     1       5.397   5.410   0.091  0.00  0.00    +0.155 HD
BRANCH  28  33
ATOM     32  C   UNL     1       9.352   6.585  -0.415  0.00  0.00    +0.013 C 
ATOM     33  C   UNL     1       8.020   5.875  -0.169  0.00  0.00    +0.093 C 
ENDBRANCH  28  33
ENDBRANCH  22  30
ENDBRANCH  20  26
ENDBRANCH   1  21
TORSDOF 8
