REMARK  Name = ZINC39636543
REMARK  12 active torsions:
REMARK  status: ('A' for Active; 'I' for Inactive)
REMARK    1  A    between atoms: C_1  and  C_2
REMARK    2  A    between atoms: C_5  and  C_37
REMARK    3  A    between atoms: C_6  and  C_8
REMARK    4  A    between atoms: C_8  and  N_9
REMARK    5  A    between atoms: C_10  and  C_12
REMARK    6  A    between atoms: C_23  and  C_25
REMARK    7  A    between atoms: C_27  and  O_35
REMARK    8  A    between atoms: C_28  and  O_33
REMARK    9  A    between atoms: C_29  and  O_31
REMARK   10  A    between atoms: O_31  and  C_32
REMARK   11  A    between atoms: O_33  and  C_34
REMARK   12  A    between atoms: O_35  and  C_36
REMARK                            x       y       z     vdW  Elec       q    Type
REMARK                         _______ _______ _______ _____ _____    ______ ____
ROOT
ATOM      1  C   UNL     1       2.628  -4.881   3.965  0.00  0.00    +0.100 C 
ATOM      2  C   UNL     1       3.395  -5.785   2.973  0.00  0.00    +0.121 C 
ATOM      3  N   UNL     1       4.220  -6.667   3.832  0.00  0.00    -0.296 N 
ATOM      4  C   UNL     1       3.340  -6.993   4.979  0.00  0.00    +0.115 C 
ATOM      5  C   UNL     1       2.594  -5.678   5.280  0.00  0.00    -0.004 C 
ATOM      6  C   UNL     1       3.309  -4.906   6.384  0.00  0.00    -0.010 C 
ATOM      7  C   UNL     1       3.212  -5.692   7.695  0.00  0.00    -0.082 C 
ATOM      8  N   UNL     1       1.801  -5.892   8.045  0.00  0.00    +0.379 N 
ATOM      9  C   UNL     1       1.143  -6.714   7.022  0.00  0.00    -0.082 C 
ATOM     10  C   UNL     1       1.152  -5.971   5.683  0.00  0.00    -0.010 C 
ATOM     11  C   UNL     1       5.486  -7.079   3.618  0.00  0.00    +0.247 C 
ATOM     12  O   UNL     1       6.125  -6.621   2.690  0.00  0.00    -0.270 OA
ATOM     13  H   UNL     1       1.740  -6.357   8.938  0.00  0.00    -0.086 HD
ATOM     14  H   UNL     1       1.340  -4.996   8.102  0.00  0.00    -0.086 HD
ENDROOT
BRANCH  11  15
ATOM     15  C   UNL     1       6.095  -8.085   4.509  0.00  0.00    +0.044 A 
ATOM     16  C   UNL     1       5.282  -8.925   5.275  0.00  0.00    +0.062 A 
ATOM     17  C   UNL     1       5.856  -9.867   6.108  0.00  0.00    +0.166 A 
ATOM     18  C   UNL     1       7.241  -9.979   6.186  0.00  0.00    +0.204 A 
ATOM     19  C   UNL     1       8.053  -9.142   5.425  0.00  0.00    +0.166 A 
ATOM     20  C   UNL     1       7.485  -8.203   4.585  0.00  0.00    +0.062 A 
BRANCH  19  21
ATOM     21  O   UNL     1       9.406  -9.254   5.503  0.00  0.00    -0.491 OA
ATOM     22  C   UNL     1      10.178  -8.364   4.694  0.00  0.00    +0.277 C 
ENDBRANCH  19  21
BRANCH  18  23
ATOM     23  O   UNL     1       7.802 -10.905   7.007  0.00  0.00    -0.488 OA
ATOM     24  C   UNL     1       8.055 -12.197   6.450  0.00  0.00    +0.277 C 
ENDBRANCH  18  23
BRANCH  17  25
ATOM     25  O   UNL     1       5.065 -10.685   6.854  0.00  0.00    -0.491 OA
ATOM     26  C   UNL     1       3.652 -10.515   6.726  0.00  0.00    +0.277 C 
ENDBRANCH  17  25
ENDBRANCH  11  15
BRANCH   1  28
ATOM     27  N   UNL     1       0.602  -3.474   3.776  0.00  0.00    -0.311 N 
ATOM     28  C   UNL     1       1.228  -4.628   3.469  0.00  0.00    +0.218 C 
ATOM     29  O   UNL     1       0.664  -5.461   2.792  0.00  0.00    -0.275 OA
ATOM     30  H   UNL     1       1.053  -2.808   4.318  0.00  0.00    +0.149 HD
BRANCH  27  31
ATOM     31  C   UNL     1      -0.759  -3.228   3.294  0.00  0.00    +0.139 C 
BRANCH  31  37
ATOM     32  C   UNL     1      -3.394  -0.444   6.511  0.00  0.00    +0.044 C 
ATOM     33  C   UNL     1      -2.486  -0.545   5.312  0.00  0.00    -0.050 A 
ATOM     34  C   UNL     1      -2.081   0.600   4.653  0.00  0.00    +0.003 A 
ATOM     35  C   UNL     1      -1.248   0.507   3.554  0.00  0.00    +0.004 A 
ATOM     36  C   UNL     1      -0.821  -0.732   3.114  0.00  0.00    -0.046 A 
ATOM     37  C   UNL     1      -1.225  -1.877   3.774  0.00  0.00    -0.027 A 
ATOM     38  C   UNL     1      -2.054  -1.784   4.876  0.00  0.00    +0.008 A 
ATOM     39  C   UNL     1       0.086  -0.834   1.915  0.00  0.00    +0.044 C 
ENDBRANCH  31  37
ENDBRANCH  27  31
ENDBRANCH   1  28
TORSDOF 7
