REMARK  Name = ZINC16120602
REMARK  9 active torsions:
REMARK  status: ('A' for Active; 'I' for Inactive)
REMARK    1  A    between atoms: C_1  and  C_2
REMARK    2  A    between atoms: C_2  and  C_3
REMARK    3  A    between atoms: C_2  and  C_4
REMARK    4  A    between atoms: C_2  and  C_5
REMARK    5  A    between atoms: C_12  and  C_14
REMARK    6  A    between atoms: N_16  and  N_17
REMARK    7  A    between atoms: N_17  and  S_18
REMARK    8  A    between atoms: S_18  and  C_21
REMARK    9  A    between atoms: C_24  and  N_27
REMARK                            x       y       z     vdW  Elec       q    Type
REMARK                         _______ _______ _______ _____ _____    ______ ____
ROOT
ATOM      1  C   UNL     1      -0.014   1.213   0.009  0.00  0.00    +0.265 C 
ATOM      2  O   UNL     1       0.002  -0.004   0.002  0.00  0.00    -0.268 OA
ATOM      3  N   UNL     1      -1.191   1.871   0.018  0.00  0.00    -0.227 N 
ATOM      4  H   UNL     1      -1.204   2.841   0.023  0.00  0.00    +0.171 HD
ENDROOT
BRANCH   1  11
ATOM      5  C   UNL     1       5.886   3.191  -0.500  0.00  0.00    -0.001 C 
ATOM      6  C   UNL     1       5.558   4.422   0.351  0.00  0.00    +0.009 C 
ATOM      7  C   UNL     1       4.147   4.909  -0.009  0.00  0.00    +0.043 C 
ATOM      8  C   UNL     1       3.225   3.729  -0.008  0.00  0.00    -0.006 A 
ATOM      9  C   UNL     1       3.578   2.409  -0.019  0.00  0.00    -0.036 A 
ATOM     10  C   UNL     1       2.543   1.487  -0.014  0.00  0.00    +0.024 A 
ATOM     11  C   UNL     1       1.245   1.963   0.001  0.00  0.00    +0.076 A 
ATOM     12  S   UNL     1       1.503   3.729  -0.000  0.00  0.00    -0.088 S 
ATOM     13  C   UNL     1       5.048   1.999  -0.036  0.00  0.00    +0.040 C 
BRANCH   5  15
ATOM     14  C   UNL     1       7.703   1.632  -1.213  0.00  0.00    +0.011 C 
ATOM     15  C   UNL     1       7.372   2.855  -0.355  0.00  0.00    -0.035 C 
ATOM     16  C   UNL     1       8.212   4.046  -0.818  0.00  0.00    +0.011 C 
ATOM     17  C   UNL     1       7.685   2.549   1.111  0.00  0.00    +0.011 C 
ENDBRANCH   5  15
ENDBRANCH   1  11
BRANCH   3  18
ATOM     18  N   UNL     1      -2.394   1.154   0.020  0.00  0.00    -0.108 NA
ATOM     19  H   UNL     1      -2.568   0.495  -0.671  0.00  0.00    +0.172 HD
BRANCH  18  20
ATOM     20  S   UNL     1      -3.521   1.431   1.201  0.00  0.00    +0.074 S 
ATOM     21  O   UNL     1      -4.670   0.671   0.853  0.00  0.00    -0.152 OA
ATOM     22  O   UNL     1      -2.852   1.273   2.445  0.00  0.00    -0.152 OA
BRANCH  20  23
ATOM     23  C   UNL     1      -3.986   3.126   1.091  0.00  0.00    +0.107 A 
ATOM     24  C   UNL     1      -3.298   4.080   1.817  0.00  0.00    +0.031 A 
ATOM     25  C   UNL     1      -3.660   5.412   1.727  0.00  0.00    +0.034 A 
ATOM     26  C   UNL     1      -4.716   5.787   0.918  0.00  0.00    +0.126 A 
ATOM     27  C   UNL     1      -5.407   4.833   0.196  0.00  0.00    +0.034 A 
ATOM     28  C   UNL     1      -5.042   3.502   0.282  0.00  0.00    +0.031 A 
BRANCH  26  29
ATOM     29  N   UNL     1      -5.106   7.212   0.824  0.00  0.00    +0.056 N 
ATOM     30  O   UNL     1      -6.036   7.543   0.111  0.00  0.00    -0.126 OA
ATOM     31  O   UNL     1      -4.497   8.053   1.461  0.00  0.00    -0.126 OA
ENDBRANCH  26  29
ENDBRANCH  20  23
ENDBRANCH  18  20
ENDBRANCH   3  18
TORSDOF 6
