REMARK  Name = ZINC35778068
REMARK  11 active torsions:
REMARK  status: ('A' for Active; 'I' for Inactive)
REMARK    1  A    between atoms: C_1  and  C_2
REMARK    2  A    between atoms: C_2  and  C_3
REMARK    3  A    between atoms: C_2  and  O_4
REMARK    4  A    between atoms: O_4  and  C_5
REMARK    5  A    between atoms: C_7  and  C_27
REMARK    6  A    between atoms: N_8  and  C_10
REMARK    7  A    between atoms: C_13  and  N_16
REMARK    8  A    between atoms: C_17  and  C_19
REMARK    9  A    between atoms: C_19  and  S_20
REMARK   10  A    between atoms: S_20  and  C_21
REMARK   11  A    between atoms: C_30  and  C_33
REMARK                            x       y       z     vdW  Elec       q    Type
REMARK                         _______ _______ _______ _____ _____    ______ ____
ROOT
ATOM      1  C   UNL     1      -1.297  -1.861  -0.406  0.00  0.00    +0.338 A 
ATOM      2  N   UNL     1      -2.524  -2.381  -0.382  0.00  0.00    -0.174 NA
ATOM      3  C   UNL     1      -2.605  -3.372  -1.247  0.00  0.00    +0.167 A 
ATOM      4  N   UNL     1      -1.392  -3.498  -1.849  0.00  0.00    -0.209 N 
ATOM      5  N   UNL     1      -0.571  -2.505  -1.289  0.00  0.00    -0.108 NA
ENDROOT
BRANCH   4   6
ATOM      6  C   UNL     1      -1.034  -4.427  -2.835  0.00  0.00    +0.068 A 
ATOM      7  C   UNL     1      -1.890  -4.672  -3.901  0.00  0.00    +0.029 A 
ATOM      8  C   UNL     1      -1.537  -5.587  -4.872  0.00  0.00    +0.025 A 
ATOM      9  C   UNL     1      -0.327  -6.263  -4.783  0.00  0.00    +0.034 A 
ATOM     10  C   UNL     1       0.529  -6.018  -3.717  0.00  0.00    +0.025 A 
ATOM     11  C   UNL     1       0.179  -5.098  -2.749  0.00  0.00    +0.029 A 
BRANCH   9  12
ATOM     12  N   UNL     1       0.031  -7.191  -5.769  0.00  0.00    -0.285 N 
ATOM     13  C   UNL     1       0.718  -8.301  -5.431  0.00  0.00    +0.227 C 
ATOM     14  O   UNL     1       1.098  -8.455  -4.290  0.00  0.00    -0.275 OA
ATOM     15  H   UNL     1      -0.215  -7.035  -6.694  0.00  0.00    +0.155 HD
BRANCH  13  16
ATOM     16  C   UNL     1       1.012  -9.350  -6.472  0.00  0.00    +0.170 C 
BRANCH  16  17
ATOM     17  S   UNL     1       1.944 -10.709  -5.714  0.00  0.00    -0.116 S 
BRANCH  17  18
ATOM     18  C   UNL     1       2.207 -11.838  -7.041  0.00  0.00    +0.008 A 
ATOM     19  C   UNL     1       1.725 -11.544  -8.311  0.00  0.00    +0.015 A 
ATOM     20  C   UNL     1       1.933 -12.431  -9.349  0.00  0.00    +0.001 A 
ATOM     21  C   UNL     1       2.621 -13.610  -9.125  0.00  0.00    +0.000 A 
ATOM     22  C   UNL     1       3.102 -13.906  -7.863  0.00  0.00    +0.001 A 
ATOM     23  C   UNL     1       2.903 -13.021  -6.822  0.00  0.00    +0.015 A 
ENDBRANCH  17  18
ENDBRANCH  16  17
ENDBRANCH  13  16
ENDBRANCH   9  12
ENDBRANCH   4   6
BRANCH   3  24
ATOM     24  C   UNL     1      -3.800  -4.201  -1.514  0.00  0.00    +0.019 A 
ATOM     25  C   UNL     1      -3.659  -5.486  -2.038  0.00  0.00    +0.012 A 
ATOM     26  C   UNL     1      -4.779  -6.254  -2.285  0.00  0.00    +0.013 A 
ATOM     27  C   UNL     1      -6.039  -5.752  -2.014  0.00  0.00    +0.055 A 
ATOM     28  C   UNL     1      -6.186  -4.478  -1.495  0.00  0.00    +0.013 A 
ATOM     29  C   UNL     1      -5.074  -3.702  -1.238  0.00  0.00    +0.012 A 
BRANCH  27  30
ATOM     30  C   UNL     1      -7.258  -6.596  -2.287  0.00  0.00    +0.417 C 
ATOM     31  F   UNL     1      -7.568  -7.348  -1.149  0.00  0.00    -0.166 F 
ATOM     32  F   UNL     1      -8.338  -5.766  -2.606  0.00  0.00    -0.166 F 
ATOM     33  F   UNL     1      -6.998  -7.456  -3.359  0.00  0.00    -0.166 F 
ENDBRANCH  27  30
ENDBRANCH   3  24
BRANCH   1  34
ATOM     34  O   UNL     1      -0.867  -0.824   0.359  0.00  0.00    -0.459 OA
BRANCH  34  36
ATOM     35  C   UNL     1       0.603   1.091   0.478  0.00  0.00    +0.052 C 
ATOM     36  C   UNL     1       0.488  -0.406   0.183  0.00  0.00    +0.171 C 
ATOM     37  C   UNL     1       1.391  -1.185   1.142  0.00  0.00    +0.052 C 
ENDBRANCH  34  36
ENDBRANCH   1  34
TORSDOF 9
