REMARK  Name = ZINC40476289
REMARK  9 active torsions:
REMARK  status: ('A' for Active; 'I' for Inactive)
REMARK    1  A    between atoms: C_1  and  C_2
REMARK    2  A    between atoms: C_2  and  C_3
REMARK    3  A    between atoms: C_3  and  C_4
REMARK    4  A    between atoms: C_4  and  C_5
REMARK    5  A    between atoms: C_5  and  S_6
REMARK    6  A    between atoms: S_6  and  C_7
REMARK    7  A    between atoms: C_18  and  C_20
REMARK    8  A    between atoms: C_30  and  C_32
REMARK    9  A    between atoms: C_30  and  C_33
REMARK                            x       y       z     vdW  Elec       q    Type
REMARK                         _______ _______ _______ _____ _____    ______ ____
ROOT
ATOM      1  C   UNL     1       2.402  -4.784   3.933  0.00  0.00    +0.171 A 
ATOM      2  N   UNL     1       2.608  -6.097   4.233  0.00  0.00    -0.302 N 
ATOM      3  H   UNL     1       2.271  -6.787   3.640  0.00  0.00    +0.171 HD
ATOM      4  C   UNL     1       3.279  -6.439   5.352  0.00  0.00    +0.258 A 
ATOM      5  O   UNL     1       3.472  -7.612   5.628  0.00  0.00    -0.267 OA
ATOM      6  C   UNL     1       3.751  -5.423   6.192  0.00  0.00    +0.069 A 
ATOM      7  C   UNL     1       3.511  -4.105   5.844  0.00  0.00    +0.135 A 
ATOM      8  N   UNL     1       2.849  -3.824   4.717  0.00  0.00    -0.208 NA
ATOM      9  N   UNL     1       3.960  -3.088   6.664  0.00  0.00    -0.302 N 
ATOM     10  C   UNL     1       4.280  -3.338   7.971  0.00  0.00    +0.017 C 
ATOM     11  C   UNL     1       4.549  -4.592   8.392  0.00  0.00    +0.024 C 
ATOM     12  C   UNL     1       4.506  -5.762   7.442  0.00  0.00    +0.092 C 
ATOM     13  C   UNL     1       4.884  -4.848   9.734  0.00  0.00    +0.162 C 
ATOM     14  O   UNL     1       5.100  -5.991  10.086  0.00  0.00    -0.292 OA
ATOM     15  C   UNL     1       4.979  -3.736  10.742  0.00  0.00    +0.086 C 
ATOM     16  C   UNL     1       5.361  -2.440  10.020  0.00  0.00    -0.023 C 
ATOM     17  C   UNL     1       4.322  -2.171   8.928  0.00  0.00    +0.058 C 
ATOM     18  C   UNL     1       6.746  -2.591   9.387  0.00  0.00    +0.011 C 
ATOM     19  C   UNL     1       5.372  -1.279  11.016  0.00  0.00    +0.011 C 
ATOM     20  H   UNL     1       4.049  -2.190   6.311  0.00  0.00    +0.153 HD
ENDROOT
BRANCH  12  21
ATOM     21  C   UNL     1       5.915  -6.153   7.077  0.00  0.00    -0.032 A 
ATOM     22  C   UNL     1       6.735  -5.251   6.425  0.00  0.00    +0.005 A 
ATOM     23  C   UNL     1       8.027  -5.609   6.089  0.00  0.00    +0.003 A 
ATOM     24  C   UNL     1       8.501  -6.868   6.405  0.00  0.00    +0.038 A 
ATOM     25  C   UNL     1       7.680  -7.772   7.058  0.00  0.00    +0.124 A 
ATOM     26  C   UNL     1       6.388  -7.410   7.399  0.00  0.00    +0.043 A 
ATOM     27  F   UNL     1       8.142  -9.003   7.367  0.00  0.00    -0.205 F 
ENDBRANCH  12  21
BRANCH   1  28
ATOM     28  S   UNL     1       1.527  -4.361   2.463  0.00  0.00    -0.088 S 
BRANCH  28  29
ATOM     29  C   UNL     1       1.503  -2.548   2.473  0.00  0.00    +0.077 C 
BRANCH  29  30
ATOM     30  C   UNL     1       0.763  -2.041   1.233  0.00  0.00    +0.011 C 
BRANCH  30  31
ATOM     31  C   UNL     1       0.742  -0.511   1.242  0.00  0.00    +0.001 C 
BRANCH  31  33
ATOM     32  C   UNL     1      -0.019   1.526   0.010  0.00  0.00    +0.004 C 
ATOM     33  C   UNL     1       0.002  -0.004   0.002  0.00  0.00    -0.003 C 
ENDBRANCH  31  33
ENDBRANCH  30  31
ENDBRANCH  29  30
ENDBRANCH  28  29
ENDBRANCH   1  28
TORSDOF 6
