REMARK  Name = ZINC06149411
REMARK  11 active torsions:
REMARK  status: ('A' for Active; 'I' for Inactive)
REMARK    1  A    between atoms: C_1  and  C_2
REMARK    2  A    between atoms: C_2  and  C_3
REMARK    3  A    between atoms: C_3  and  C_4
REMARK    4  A    between atoms: C_3  and  C_5
REMARK    5  A    between atoms: C_3  and  N_6
REMARK    6  A    between atoms: C_7  and  C_11
REMARK    7  A    between atoms: C_11  and  C_13
REMARK    8  A    between atoms: C_11  and  N_70
REMARK    9  A    between atoms: C_17  and  C_26
REMARK   10  A    between atoms: C_19  and  C_25
REMARK   11  A    between atoms: C_29  and  C_32
REMARK                            x       y       z     vdW  Elec       q    Type
REMARK                         _______ _______ _______ _____ _____    ______ ____
ROOT
ATOM      1  C   UNL     1       3.400   0.582   0.111  0.00  0.00    +0.039 C 
ENDROOT
BRANCH   1   2
ATOM      2  C   UNL     1       3.538   1.014   1.549  0.00  0.00    +0.011 A 
ATOM      3  C   UNL     1       2.460   1.496   2.216  0.00  0.00    +0.017 A 
ATOM      4  C   UNL     1       2.627   1.902   3.612  0.00  0.00    -0.001 A 
ATOM      5  C   UNL     1       1.550   2.401   4.354  0.00  0.00    +0.013 A 
ATOM      6  C   UNL     1       1.740   2.775   5.654  0.00  0.00    -0.050 A 
ATOM      7  C   UNL     1       2.990   2.664   6.246  0.00  0.00    +0.008 A 
ATOM      8  C   UNL     1       4.065   2.176   5.535  0.00  0.00    -0.026 A 
ATOM      9  C   UNL     1       3.896   1.788   4.209  0.00  0.00    +0.052 A 
ATOM     10  N   UNL     1       4.953   1.295   3.475  0.00  0.00    -0.322 N 
ATOM     11  H   UNL     1       5.854   1.215   3.900  0.00  0.00    +0.169 HD
ATOM     12  C   UNL     1       4.790   0.920   2.194  0.00  0.00    +0.251 A 
ATOM     13  O   UNL     1       5.746   0.488   1.575  0.00  0.00    -0.268 OA
ATOM     14  C   UNL     1       5.417   2.061   6.190  0.00  0.00    +0.046 C 
ATOM     15  C   UNL     1       0.580   3.314   6.452  0.00  0.00    +0.044 C 
ENDBRANCH   1   2
BRANCH   1  21
ATOM     16  C   UNL     1       5.234   1.897  -0.771  0.00  0.00    -0.072 C 
ATOM     17  C   UNL     1       5.596   2.833  -1.928  0.00  0.00    +0.017 C 
ATOM     18  C   UNL     1       4.704   4.043  -1.898  0.00  0.00    -0.048 C 
ATOM     19  C   UNL     1       3.584   4.083  -1.210  0.00  0.00    -0.041 C 
ATOM     20  C   UNL     1       3.090   2.932  -0.382  0.00  0.00    -0.049 C 
ATOM     21  N   UNL     1       3.772   1.691  -0.796  0.00  0.00    +0.392 N 
ATOM     22  H   UNL     1       3.483   1.452  -1.752  0.00  0.00    -0.080 HD
BRANCH  18  23
ATOM     23  C   UNL     1       5.102   5.236  -2.674  0.00  0.00    -0.022 A 
ATOM     24  C   UNL     1       5.170   5.176  -4.067  0.00  0.00    +0.011 A 
ATOM     25  C   UNL     1       5.537   6.294  -4.786  0.00  0.00    +0.039 A 
ATOM     26  C   UNL     1       5.850   7.472  -4.128  0.00  0.00    +0.123 A 
ATOM     27  C   UNL     1       5.789   7.536  -2.745  0.00  0.00    +0.039 A 
ATOM     28  C   UNL     1       5.418   6.426  -2.016  0.00  0.00    +0.011 A 
ATOM     29  F   UNL     1       6.214   8.563  -4.837  0.00  0.00    -0.205 F 
ENDBRANCH  18  23
ENDBRANCH   1  21
BRANCH   1  31
ATOM     30  N   UNL     1       1.506  -1.060  -0.362  0.00  0.00    -0.225 N 
ATOM     31  C   UNL     1       1.971   0.187  -0.160  0.00  0.00    +0.143 A 
ATOM     32  N   UNL     1       0.939   0.991  -0.243  0.00  0.00    -0.115 NA
ATOM     33  N   UNL     1      -0.105   0.276  -0.484  0.00  0.00    -0.023 NA
ATOM     34  N   UNL     1       0.234  -0.964  -0.557  0.00  0.00    -0.043 NA
BRANCH  30  35
ATOM     35  C   UNL     1       2.296  -2.293  -0.362  0.00  0.00    +0.061 C 
ATOM     36  C   UNL     1       3.297  -2.259  -1.518  0.00  0.00    +0.036 C 
ATOM     37  C   UNL     1       3.052  -2.414   0.963  0.00  0.00    +0.036 C 
BRANCH  35  39
ATOM     38  C   UNL     1       2.190  -4.784  -0.528  0.00  0.00    +0.006 C 
ATOM     39  C   UNL     1       1.365  -3.495  -0.529  0.00  0.00    +0.026 C 
ENDBRANCH  35  39
ENDBRANCH  30  35
ENDBRANCH   1  31
TORSDOF 6
