REMARK  Name = ZINC41602880
REMARK  3 active torsions:
REMARK  status: ('A' for Active; 'I' for Inactive)
REMARK    1  A    between atoms: C_3  and  C_6
REMARK    2  A    between atoms: C_6  and  C_7
REMARK    3  A    between atoms: N_18  and  C_21
REMARK                            x       y       z     vdW  Elec       q    Type
REMARK                         _______ _______ _______ _____ _____    ______ ____
ROOT
ATOM      1  C   UNL     1       4.263   2.013   1.387  0.00  0.00    +0.132 A 
ATOM      2  C   UNL     1       5.621   2.492   1.658  0.00  0.00    +0.296 A 
ATOM      3  O   UNL     1       6.374   2.765   0.735  0.00  0.00    -0.264 OA
ATOM      4  N   UNL     1       6.030   2.629   2.925  0.00  0.00    -0.174 NA
ATOM      5  H   UNL     1       3.383   1.682   4.453  0.00  0.00    +0.192 HD
ATOM      6  C   UNL     1       5.222   2.336   3.925  0.00  0.00    +0.215 A 
ATOM      7  N   UNL     1       3.959   1.891   3.701  0.00  0.00    -0.248 N 
ATOM      8  N   UNL     1       3.480   1.735   2.394  0.00  0.00    -0.170 NA
ATOM      9  N   UNL     1       5.664   2.484   5.212  0.00  0.00    -0.297 N 
ATOM     10  C   UNL     1       4.753   2.272   6.346  0.00  0.00    +0.127 C 
ATOM     11  C   UNL     1       5.368   1.222   7.279  0.00  0.00    +0.124 C 
ATOM     12  N   UNL     1       6.763   1.595   7.552  0.00  0.00    -0.327 N 
ATOM     13  C   UNL     1       7.674   1.808   6.419  0.00  0.00    +0.124 C 
ATOM     14  C   UNL     1       7.061   2.853   5.486  0.00  0.00    +0.127 C 
ENDROOT
BRANCH  12  15
ATOM     15  C   UNL     1       7.215   1.746   8.867  0.00  0.00    +0.030 A 
ATOM     16  C   UNL     1       8.496   2.222   9.111  0.00  0.00    +0.026 A 
ATOM     17  C   UNL     1       8.940   2.371  10.410  0.00  0.00    +0.040 A 
ATOM     18  C   UNL     1       8.109   2.046  11.469  0.00  0.00    +0.124 A 
ATOM     19  C   UNL     1       6.831   1.571  11.227  0.00  0.00    +0.040 A 
ATOM     20  C   UNL     1       6.380   1.426   9.930  0.00  0.00    +0.026 A 
ATOM     21  F   UNL     1       8.545   2.192  12.739  0.00  0.00    -0.205 F 
ENDBRANCH  12  15
BRANCH   1  22
ATOM     22  C   UNL     1       3.777   1.851  -0.030  0.00  0.00    +0.105 C 
BRANCH  22  25
ATOM     23  C   UNL     1      -0.005   1.392   0.001  0.00  0.00    +0.008 A 
ATOM     24  C   UNL     1       1.201   2.067  -0.008  0.00  0.00    +0.011 A 
ATOM     25  C   UNL     1       2.354   1.354  -0.019  0.00  0.00    -0.004 A 
ATOM     26  S   UNL     1       1.749  -0.326  -0.018  0.00  0.00    -0.101 S 
ATOM     27  C   UNL     1       0.001   0.036  -0.002  0.00  0.00    +0.045 A 
ENDBRANCH  22  25
ENDBRANCH   1  22
TORSDOF 3
