REMARK  Name = ZINC20689893
REMARK  10 active torsions:
REMARK  status: ('A' for Active; 'I' for Inactive)
REMARK    1  A    between atoms: C_1  and  C_2
REMARK    2  A    between atoms: C_2  and  N_3
REMARK    3  A    between atoms: N_3  and  C_4
REMARK    4  A    between atoms: N_3  and  C_6
REMARK    5  A    between atoms: C_4  and  C_5
REMARK    6  A    between atoms: C_6  and  C_7
REMARK    7  A    between atoms: C_7  and  N_8
REMARK    8  A    between atoms: C_9  and  C_11
REMARK    9  A    between atoms: C_24  and  C_27
REMARK   10  A    between atoms: C_30  and  C_32
REMARK                            x       y       z     vdW  Elec       q    Type
REMARK                         _______ _______ _______ _____ _____    ______ ____
ROOT
ATOM      1  C   UNL     1       1.468   2.483   1.759  0.00  0.00    +0.037 A 
ATOM      2  C   UNL     1       0.304   1.720   1.892  0.00  0.00    +0.015 A 
ATOM      3  C   UNL     1       0.397   0.397   2.257  0.00  0.00    +0.024 A 
ATOM      4  C   UNL     1       1.643  -0.179   2.492  0.00  0.00    +0.031 A 
ATOM      5  C   UNL     1       2.807   0.570   2.360  0.00  0.00    -0.019 A 
ATOM      6  C   UNL     1       2.713   1.901   1.994  0.00  0.00    +0.019 A 
ATOM      7  C   UNL     1       4.153  -0.013   2.582  0.00  0.00    +0.049 C 
ATOM      8  C   UNL     1       4.716   0.474   3.896  0.00  0.00    -0.023 C 
ATOM      9  C   UNL     1       5.406  -0.478   4.475  0.00  0.00    -0.030 C 
ATOM     10  C   UNL     1       5.404  -1.752   3.613  0.00  0.00    +0.033 C 
ATOM     11  C   UNL     1       4.148  -1.548   2.717  0.00  0.00    +0.029 C 
ATOM     12  C   UNL     1       2.929  -1.997   3.529  0.00  0.00    +0.111 C 
ATOM     13  N   UNL     1       1.713  -1.520   2.864  0.00  0.00    -0.336 N 
ATOM     14  H   UNL     1       0.883  -2.215   2.670  0.00  0.00    +0.147 HD
ENDROOT
BRANCH  12  15
ATOM     15  C   UNL     1       3.005  -1.418   4.918  0.00  0.00    +0.010 A 
ATOM     16  C   UNL     1       3.398  -2.014   6.071  0.00  0.00    +0.013 A 
ATOM     17  C   UNL     1       3.390  -1.279   7.242  0.00  0.00    +0.011 A 
ATOM     18  C   UNL     1       2.979   0.013   7.205  0.00  0.00    -0.013 A 
ATOM     19  S   UNL     1       2.593   0.228   5.475  0.00  0.00    -0.097 S 
ATOM     20  C   UNL     1       2.876   1.008   8.331  0.00  0.00    +0.051 C 
ENDBRANCH  12  15
BRANCH   1  22
ATOM     21  N   UNL     1       0.175   4.465   1.142  0.00  0.00    -0.313 N 
ATOM     22  C   UNL     1       1.379   3.903   1.370  0.00  0.00    +0.244 C 
ATOM     23  O   UNL     1       2.391   4.566   1.254  0.00  0.00    -0.270 OA
ATOM     24  H   UNL     1      -0.741   3.865   1.246  0.00  0.00    +0.149 HD
BRANCH  21  25
ATOM     25  C   UNL     1       0.087   5.875   0.755  0.00  0.00    +0.086 C 
BRANCH  25  26
ATOM     26  C   UNL     1      -1.381   6.260   0.558  0.00  0.00    -0.060 C 
BRANCH  26  27
ATOM     27  N   UNL     1      -1.470   7.673   0.170  0.00  0.00    +0.380 N 
ATOM     28  H   UNL     1      -0.898   8.261   0.903  0.00  0.00    -0.082 HD
BRANCH  27  30
ATOM     29  C   UNL     1      -1.625   7.072  -2.199  0.00  0.00    -0.017 C 
ATOM     30  C   UNL     1      -0.870   7.895  -1.153  0.00  0.00    -0.082 C 
ENDBRANCH  27  30
BRANCH  27  31
ATOM     31  C   UNL     1      -2.861   8.142   0.203  0.00  0.00    -0.082 C 
ATOM     32  C   UNL     1      -2.885   9.672   0.182  0.00  0.00    -0.017 C 
ENDBRANCH  27  31
ENDBRANCH  26  27
ENDBRANCH  25  26
ENDBRANCH  21  25
ENDBRANCH   1  22
TORSDOF 7
