REMARK  Name = ZINC09456730
REMARK  9 active torsions:
REMARK  status: ('A' for Active; 'I' for Inactive)
REMARK    1  A    between atoms: C_1  and  C_2
REMARK    2  A    between atoms: C_6  and  O_8
REMARK    3  A    between atoms: O_8  and  C_9
REMARK    4  A    between atoms: C_9  and  C_10
REMARK    5  A    between atoms: C_10  and  C_11
REMARK    6  A    between atoms: C_11  and  O_12
REMARK    7  A    between atoms: O_12  and  C_13
REMARK    8  A    between atoms: C_16  and  C_19
REMARK    9  A    between atoms: C_29  and  C_31
REMARK                            x       y       z     vdW  Elec       q    Type
REMARK                         _______ _______ _______ _____ _____    ______ ____
ROOT
ATOM      1  C   UNL     1      -0.600  -8.298   5.464  0.00  0.00    +0.121 A 
ATOM      2  C   UNL     1      -0.306  -8.903   4.246  0.00  0.00    +0.046 A 
ATOM      3  C   UNL     1      -0.050 -10.244   4.191  0.00  0.00    +0.011 A 
ATOM      4  C   UNL     1      -0.082 -11.010   5.364  0.00  0.00    -0.024 A 
ATOM      5  C   UNL     1      -0.378 -10.395   6.589  0.00  0.00    +0.011 A 
ATOM      6  C   UNL     1      -0.628  -9.052   6.633  0.00  0.00    +0.046 A 
ENDROOT
BRANCH   4   7
ATOM      7  C   UNL     1       0.192 -12.448   5.312  0.00  0.00    +0.024 C 
ATOM      8  C   UNL     1       0.883 -13.055   6.335  0.00  0.00    +0.081 C 
ATOM      9  C   UNL     1       1.027 -14.536   6.416  0.00  0.00    +0.153 C 
ATOM     10  N   UNL     1       1.110 -15.308   5.364  0.00  0.00    -0.283 NA
ATOM     11  N   UNL     1       1.065 -15.024   7.739  0.00  0.00    -0.152 N 
ATOM     12  C   UNL     1       1.462 -14.150   8.729  0.00  0.00    +0.181 C 
ATOM     13  N   UNL     1       1.722 -12.872   8.607  0.00  0.00    -0.152 NA
ATOM     14  C   UNL     1       1.532 -12.270   7.415  0.00  0.00    +0.273 C 
ATOM     15  O   UNL     1       1.878 -11.114   7.229  0.00  0.00    -0.268 OA
ATOM     16  S   UNL     1       1.498 -15.194  10.162  0.00  0.00    -0.032 S 
ATOM     17  C   UNL     1       0.892 -16.685   9.383  0.00  0.00    +0.136 C 
ATOM     18  N   UNL     1       0.751 -16.308   8.133  0.00  0.00    -0.164 NA
ATOM     19  H   UNL     1       1.203 -16.267   5.473  0.00  0.00    +0.188 HD
BRANCH  17  20
ATOM     20  C   UNL     1       0.622 -18.000   9.988  0.00  0.00    +0.046 A 
ATOM     21  C   UNL     1       0.763 -18.395  11.294  0.00  0.00    +0.018 A 
ATOM     22  C   UNL     1       0.444 -19.691  11.630  0.00  0.00    +0.008 A 
ATOM     23  C   UNL     1       0.001 -20.536  10.663  0.00  0.00    +0.046 A 
ATOM     24  S   UNL     1       0.018 -19.491   9.215  0.00  0.00    -0.095 S 
ENDBRANCH  17  20
ENDBRANCH   4   7
BRANCH   1  25
ATOM     25  O   UNL     1      -0.854  -6.966   5.513  0.00  0.00    -0.492 OA
BRANCH  25  26
ATOM     26  C   UNL     1      -0.808  -6.251   4.277  0.00  0.00    +0.232 C 
BRANCH  26  27
ATOM     27  C   UNL     1      -1.119  -4.774   4.530  0.00  0.00    +0.082 C 
BRANCH  27  28
ATOM     28  C   UNL     1      -1.070  -4.009   3.206  0.00  0.00    +0.232 C 
BRANCH  28  29
ATOM     29  O   UNL     1      -1.360  -2.630   3.442  0.00  0.00    -0.492 OA
BRANCH  29  35
ATOM     30  C   UNL     1      -1.925   1.850   1.589  0.00  0.00    +0.044 C 
ATOM     31  C   UNL     1      -1.629   0.382   1.420  0.00  0.00    -0.047 A 
ATOM     32  C   UNL     1      -1.354  -0.126   0.163  0.00  0.00    +0.003 A 
ATOM     33  C   UNL     1      -1.081  -1.472   0.004  0.00  0.00    +0.004 A 
ATOM     34  C   UNL     1      -1.083  -2.313   1.101  0.00  0.00    +0.045 A 
ATOM     35  C   UNL     1      -1.358  -1.805   2.362  0.00  0.00    +0.121 A 
ATOM     36  C   UNL     1      -1.625  -0.453   2.520  0.00  0.00    +0.049 A 
ENDBRANCH  29  35
ENDBRANCH  28  29
ENDBRANCH  27  28
ENDBRANCH  26  27
ENDBRANCH  25  26
ENDBRANCH   1  25
TORSDOF 8
