REMARK  Name = ZINC04763826
REMARK  11 active torsions:
REMARK  status: ('A' for Active; 'I' for Inactive)
REMARK    1  A    between atoms: C_1  and  C_2
REMARK    2  A    between atoms: C_7  and  C_19
REMARK    3  A    between atoms: C_9  and  C_13
REMARK    4  A    between atoms: C_10  and  C_12
REMARK    5  A    between atoms: C_13  and  O_15
REMARK    6  A    between atoms: O_15  and  C_16
REMARK    7  A    between atoms: C_16  and  C_17
REMARK    8  A    between atoms: C_16  and  C_18
REMARK    9  A    between atoms: C_28  and  C_30
REMARK   10  A    between atoms: C_30  and  O_32
REMARK   11  A    between atoms: O_32  and  C_33
REMARK                            x       y       z     vdW  Elec       q    Type
REMARK                         _______ _______ _______ _____ _____    ______ ____
ROOT
ATOM      1  C   UNL     1       4.720   1.587   3.600  0.00  0.00    +0.009 C 
ATOM      2  C   UNL     1       5.840   0.546   3.540  0.00  0.00    +0.013 C 
ATOM      3  C   UNL     1       6.601   0.686   2.220  0.00  0.00    +0.055 C 
ATOM      4  C   UNL     1       5.666   0.427   1.065  0.00  0.00    +0.016 C 
ATOM      5  C   UNL     1       4.623  -0.420   1.191  0.00  0.00    +0.025 C 
ATOM      6  C   UNL     1       3.695  -0.679   0.032  0.00  0.00    +0.092 C 
ATOM      7  C   UNL     1       4.319  -0.249  -1.263  0.00  0.00    +0.065 C 
ATOM      8  C   UNL     1       5.369   0.590  -1.287  0.00  0.00    +0.016 C 
ATOM      9  N   UNL     1       5.899   1.068  -0.121  0.00  0.00    -0.321 N 
ATOM     10  C   UNL     1       5.964   1.007  -2.607  0.00  0.00    +0.061 C 
ATOM     11  C   UNL     1       4.371  -1.085   2.405  0.00  0.00    +0.176 C 
ATOM     12  O   UNL     1       3.431  -1.852   2.482  0.00  0.00    -0.291 OA
ATOM     13  C   UNL     1       5.243  -0.863   3.611  0.00  0.00    +0.171 C 
ATOM     14  H   UNL     1       6.519   1.977  -0.143  0.00  0.00    +0.152 HD
ENDROOT
BRANCH   6  15
ATOM     15  C   UNL     1       2.415   0.089   0.242  0.00  0.00    -0.035 A 
ATOM     16  C   UNL     1       1.213  -0.587   0.342  0.00  0.00    +0.006 A 
ATOM     17  C   UNL     1       0.038   0.116   0.534  0.00  0.00    +0.020 A 
ATOM     18  C   UNL     1       0.066   1.496   0.627  0.00  0.00    +0.041 A 
ATOM     19  C   UNL     1       1.270   2.172   0.527  0.00  0.00    +0.020 A 
ATOM     20  C   UNL     1       2.443   1.468   0.335  0.00  0.00    +0.006 A 
ATOM     21 CL   UNL     1      -1.409   2.381   0.861  0.00  0.00    -0.084 Cl
ENDBRANCH   6  15
BRANCH   7  22
ATOM     22  C   UNL     1       3.793  -0.737  -2.482  0.00  0.00    +0.338 C 
ATOM     23  O   UNL     1       4.003  -1.887  -2.819  0.00  0.00    -0.245 OA
BRANCH  22  24
ATOM     24  O   UNL     1       3.058   0.074  -3.272  0.00  0.00    -0.459 OA
BRANCH  24  25
ATOM     25  C   UNL     1       2.558  -0.484  -4.489  0.00  0.00    +0.171 C 
ATOM     26  C   UNL     1       1.239   0.198  -4.859  0.00  0.00    +0.052 C 
ATOM     27  C   UNL     1       3.577  -0.264  -5.608  0.00  0.00    +0.052 C 
ENDBRANCH  24  25
ENDBRANCH  22  24
ENDBRANCH   7  22
BRANCH  13  28
ATOM     28  C   UNL     1       4.417  -0.999   4.863  0.00  0.00    +0.318 C 
ATOM     29  O   UNL     1       4.314  -0.065   5.624  0.00  0.00    -0.250 OA
BRANCH  28  30
ATOM     30  O   UNL     1       3.794  -2.157   5.135  0.00  0.00    -0.467 OA
ATOM     31  C   UNL     1       3.016  -2.216   6.359  0.00  0.00    +0.280 C 
ENDBRANCH  28  30
ENDBRANCH  13  28
TORSDOF 6
