REMARK  Name = ZINC24974351
REMARK  10 active torsions:
REMARK  status: ('A' for Active; 'I' for Inactive)
REMARK    1  A    between atoms: C_1  and  O_2
REMARK    2  A    between atoms: O_2  and  C_3
REMARK    3  A    between atoms: C_6  and  C_9
REMARK    4  A    between atoms: C_9  and  C_10
REMARK    5  A    between atoms: C_10  and  C_11
REMARK    6  A    between atoms: N_14  and  C_17
REMARK    7  A    between atoms: C_17  and  N_18
REMARK    8  A    between atoms: N_21  and  C_30
REMARK    9  A    between atoms: C_22  and  C_24
REMARK   10  A    between atoms: C_30  and  C_31
REMARK                            x       y       z     vdW  Elec       q    Type
REMARK                         _______ _______ _______ _____ _____    ______ ____
ROOT
ATOM      1  C   UNL     1      -1.737   4.591   0.018  0.00  0.00    +0.072 C 
ENDROOT
BRANCH   1   5
ATOM      2  C   UNL     1      -3.753   5.074  -3.722  0.00  0.00    -0.014 C 
ATOM      3  C   UNL     1      -3.480   6.302  -2.849  0.00  0.00    -0.015 C 
ATOM      4  C   UNL     1      -3.235   5.852  -1.407  0.00  0.00    -0.076 C 
ATOM      5  N   UNL     1      -2.088   4.935  -1.367  0.00  0.00    +0.393 N 
ATOM      6  C   UNL     1      -2.347   3.727  -2.160  0.00  0.00    -0.076 C 
ATOM      7  C   UNL     1      -2.565   4.113  -3.625  0.00  0.00    -0.015 C 
ATOM      8  H   UNL     1      -1.228   5.453  -1.816  0.00  0.00    -0.079 HD
BRANCH   2   9
ATOM      9  C   UNL     1      -3.939   5.512  -5.176  0.00  0.00    +0.008 C 
BRANCH   9  10
ATOM     10  C   UNL     1      -4.335   4.303  -6.026  0.00  0.00    +0.035 C 
BRANCH  10  14
ATOM     11  C   UNL     1      -4.853   5.527 -10.088  0.00  0.00    +0.120 A 
ATOM     12  C   UNL     1      -3.609   5.101  -9.644  0.00  0.00    +0.046 A 
ATOM     13  C   UNL     1      -3.444   4.706  -8.331  0.00  0.00    +0.007 A 
ATOM     14  C   UNL     1      -4.517   4.735  -7.459  0.00  0.00    -0.047 A 
ATOM     15  C   UNL     1      -5.759   5.154  -7.900  0.00  0.00    +0.007 A 
ATOM     16  C   UNL     1      -5.927   5.556  -9.211  0.00  0.00    +0.046 A 
BRANCH  11  18
ATOM     17  C   UNL     1      -6.325   6.344 -11.767  0.00  0.00    +0.277 C 
ATOM     18  O   UNL     1      -5.017   5.917 -11.380  0.00  0.00    -0.495 OA
ENDBRANCH  11  18
ENDBRANCH  10  14
ENDBRANCH   9  10
ENDBRANCH   2   9
ENDBRANCH   1   5
BRANCH   1  19
ATOM     19  N   UNL     1      -0.757   3.502   0.017  0.00  0.00    -0.257 N 
ATOM     20  C   UNL     1       0.585   3.637  -0.008  0.00  0.00    +0.177 A 
ATOM     21  S   UNL     1       1.451   5.112  -0.043  0.00  0.00    -0.011 S 
ATOM     22  N   UNL     1       1.120   2.400   0.000  0.00  0.00    -0.296 N 
ATOM     23  C   UNL     1       0.088   1.482   0.030  0.00  0.00    +0.163 A 
ATOM     24  N   UNL     1      -1.043   2.130   0.035  0.00  0.00    -0.152 NA
BRANCH  23  25
ATOM     25  C   UNL     1       0.240   0.010   0.048  0.00  0.00    +0.022 A 
ATOM     26  C   UNL     1      -0.801  -0.816   0.485  0.00  0.00    +0.031 A 
ATOM     27  C   UNL     1      -0.618  -2.183   0.480  0.00  0.00    +0.111 A 
ATOM     28  N   UNL     1       0.523  -2.712   0.081  0.00  0.00    -0.263 NA
ATOM     29  C   UNL     1       1.532  -1.970  -0.334  0.00  0.00    +0.111 A 
ATOM     30  C   UNL     1       1.433  -0.594  -0.367  0.00  0.00    +0.031 A 
ENDBRANCH  23  25
BRANCH  22  31
ATOM     31  C   UNL     1       2.550   2.083  -0.019  0.00  0.00    +0.200 C 
BRANCH  31  32
ATOM     32  C   UNL     1       3.047   2.095  -1.442  0.00  0.00    +0.125 A 
ATOM     33  C   UNL     1       3.538   3.164  -2.094  0.00  0.00    +0.046 A 
ATOM     34  C   UNL     1       3.885   2.727  -3.393  0.00  0.00    +0.041 A 
ATOM     35  C   UNL     1       3.578   1.419  -3.460  0.00  0.00    +0.195 A 
ATOM     36  O   UNL     1       3.071   1.042  -2.275  0.00  0.00    -0.466 OA
ENDBRANCH  31  32
ENDBRANCH  22  31
ENDBRANCH   1  19
TORSDOF 9
