REMARK  Name = ZINC07672811
REMARK  12 active torsions:
REMARK  status: ('A' for Active; 'I' for Inactive)
REMARK    1  A    between atoms: C_1  and  C_2
REMARK    2  A    between atoms: C_2  and  C_3
REMARK    3  A    between atoms: C_2  and  C_4
REMARK    4  A    between atoms: C_7  and  O_10
REMARK    5  A    between atoms: O_10  and  C_11
REMARK    6  A    between atoms: C_11  and  C_12
REMARK    7  A    between atoms: C_15  and  S_18
REMARK    8  A    between atoms: N_16  and  N_17
REMARK    9  A    between atoms: S_18  and  C_19
REMARK   10  A    between atoms: C_19  and  C_20
REMARK   11  A    between atoms: C_23  and  O_27
REMARK   12  A    between atoms: O_27  and  C_28
REMARK                            x       y       z     vdW  Elec       q    Type
REMARK                         _______ _______ _______ _____ _____    ______ ____
ROOT
ATOM      1  C   UNL     1      -0.282   1.804  -2.290  0.00  0.00    +0.189 A 
ATOM      2  N   UNL     1      -1.301   2.230  -2.982  0.00  0.00    -0.128 NA
ATOM      3  N   UNL     1      -2.363   2.213  -2.259  0.00  0.00    -0.121 NA
ATOM      4  C   UNL     1      -2.077   1.768  -1.057  0.00  0.00    +0.209 A 
ATOM      5  N   UNL     1      -0.741   1.490  -1.041  0.00  0.00    -0.225 N 
ENDROOT
BRANCH   5   6
ATOM      6  N   UNL     1      -0.012   1.005   0.008  0.00  0.00    -0.295 N 
ATOM      7  H   UNL     1       0.002  -0.004   0.002  0.00  0.00    +0.163 HD
ATOM      8  H   UNL     1       0.925   1.379   0.001  0.00  0.00    +0.163 HD
ENDBRANCH   5   6
BRANCH   1   9
ATOM      9  C   UNL     1       1.139   1.680  -2.777  0.00  0.00    +0.306 C 
BRANCH   9  10
ATOM     10  O   UNL     1       1.337   0.381  -3.340  0.00  0.00    -0.484 OA
BRANCH  10  14
ATOM     11  C   UNL     1       5.092  -0.462  -4.826  0.00  0.00    -0.045 A 
ATOM     12  C   UNL     1       4.095  -1.418  -4.887  0.00  0.00    +0.007 A 
ATOM     13  C   UNL     1       2.837  -1.138  -4.390  0.00  0.00    +0.046 A 
ATOM     14  C   UNL     1       2.574   0.103  -3.830  0.00  0.00    +0.121 A 
ATOM     15  C   UNL     1       3.575   1.063  -3.775  0.00  0.00    +0.046 A 
ATOM     16  C   UNL     1       4.833   0.776  -4.268  0.00  0.00    +0.007 A 
BRANCH  11  18
ATOM     17  C   UNL     1       6.804   0.218  -6.486  0.00  0.00    +0.012 C 
ATOM     18  C   UNL     1       6.463  -0.771  -5.369  0.00  0.00    +0.013 C 
ATOM     19  C   UNL     1       7.496  -0.647  -4.247  0.00  0.00    +0.012 C 
ENDBRANCH  11  18
ENDBRANCH  10  14
ENDBRANCH   9  10
ENDBRANCH   1   9
BRANCH   4  20
ATOM     20  S   UNL     1      -3.205   1.567   0.281  0.00  0.00    -0.080 S 
BRANCH  20  21
ATOM     21  C   UNL     1      -4.733   2.133  -0.507  0.00  0.00    +0.112 C 
BRANCH  21  22
ATOM     22  C   UNL     1      -5.869   2.046   0.479  0.00  0.00    -0.034 A 
ATOM     23  C   UNL     1      -6.622   0.889   0.565  0.00  0.00    +0.008 A 
ATOM     24  C   UNL     1      -7.661   0.804   1.472  0.00  0.00    +0.049 A 
ATOM     25  C   UNL     1      -7.957   1.885   2.289  0.00  0.00    +0.155 A 
ATOM     26  C   UNL     1      -7.204   3.049   2.197  0.00  0.00    +0.165 A 
ATOM     27  C   UNL     1      -6.161   3.126   1.291  0.00  0.00    +0.046 A 
ATOM     28  F   UNL     1      -7.489   4.104   2.992  0.00  0.00    -0.202 F 
BRANCH  25  29
ATOM     29  O   UNL     1      -8.983   1.806   3.178  0.00  0.00    -0.492 OA
ATOM     30  C   UNL     1      -9.713   0.579   3.217  0.00  0.00    +0.277 C 
ENDBRANCH  25  29
ENDBRANCH  21  22
ENDBRANCH  20  21
ENDBRANCH   4  20
TORSDOF 9
