REMARK  Name = ZINC38562588
REMARK  9 active torsions:
REMARK  status: ('A' for Active; 'I' for Inactive)
REMARK    1  A    between atoms: C_1  and  C_2
REMARK    2  A    between atoms: C_2  and  C_3
REMARK    3  A    between atoms: C_3  and  C_4
REMARK    4  A    between atoms: C_5  and  C_9
REMARK    5  A    between atoms: N_11  and  C_12
REMARK    6  A    between atoms: C_12  and  C_13
REMARK    7  A    between atoms: C_13  and  C_15
REMARK    8  A    between atoms: C_13  and  S_20
REMARK    9  A    between atoms: S_20  and  C_23
REMARK                            x       y       z     vdW  Elec       q    Type
REMARK                         _______ _______ _______ _____ _____    ______ ____
ROOT
ATOM      1  C   UNL     1      -1.414  -4.032  -5.884  0.00  0.00    +0.189 C 
ENDROOT
BRANCH   1   2
ATOM      2  C   UNL     1      -1.427  -3.577  -7.321  0.00  0.00    +0.016 A 
ATOM      3  C   UNL     1      -0.520  -3.813  -8.299  0.00  0.00    +0.013 A 
ATOM      4  C   UNL     1      -0.741  -3.291  -9.560  0.00  0.00    +0.008 A 
ATOM      5  C   UNL     1      -1.859  -2.557  -9.780  0.00  0.00    +0.045 A 
ATOM      6  S   UNL     1      -2.646  -2.593  -8.178  0.00  0.00    -0.100 S 
ENDBRANCH   1   2
BRANCH   1   7
ATOM      7  S   UNL     1      -2.880  -5.049  -5.559  0.00  0.00    +0.006 S 
ATOM      8  O   UNL     1      -2.794  -5.632  -4.265  0.00  0.00    -0.169 OA
ATOM      9  O   UNL     1      -4.054  -4.361  -5.966  0.00  0.00    -0.169 OA
BRANCH   7  10
ATOM     10  C   UNL     1      -2.745  -6.407  -6.673  0.00  0.00    +0.089 A 
ATOM     11  C   UNL     1      -3.299  -6.321  -7.937  0.00  0.00    +0.028 A 
ATOM     12  C   UNL     1      -3.193  -7.386  -8.812  0.00  0.00    +0.022 A 
ATOM     13  C   UNL     1      -2.534  -8.538  -8.422  0.00  0.00    +0.041 A 
ATOM     14  C   UNL     1      -1.980  -8.624  -7.157  0.00  0.00    +0.022 A 
ATOM     15  C   UNL     1      -2.081  -7.556  -6.285  0.00  0.00    +0.028 A 
ATOM     16 CL   UNL     1      -2.401  -9.876  -9.520  0.00  0.00    -0.084 Cl
ENDBRANCH   7  10
ENDBRANCH   1   7
BRANCH   1  17
ATOM     17  C   UNL     1      -1.426  -2.810  -4.963  0.00  0.00    +0.136 C 
BRANCH  17  20
ATOM     18  C   UNL     1      -1.421  -2.343  -2.571  0.00  0.00    +0.254 C 
ATOM     19  O   UNL     1      -1.439  -1.155  -2.833  0.00  0.00    -0.270 OA
ATOM     20  N   UNL     1      -1.414  -3.252  -3.566  0.00  0.00    -0.309 N 
ATOM     21  H   UNL     1      -1.400  -4.199  -3.357  0.00  0.00    +0.149 HD
BRANCH  18  23
ATOM     22  C   UNL     1      -1.413  -2.041   0.005  0.00  0.00    +0.084 A 
ATOM     23  C   UNL     1      -1.408  -2.787  -1.168  0.00  0.00    +0.117 A 
ATOM     24  S   UNL     1      -1.383  -4.437  -0.488  0.00  0.00    +0.041 S 
ATOM     25  N   UNL     1      -1.381  -4.041   1.085  0.00  0.00    -0.110 NA
ATOM     26  N   UNL     1      -1.392  -2.756   1.102  0.00  0.00    -0.145 NA
BRANCH  22  27
ATOM     27  C   UNL     1      -1.433  -0.534   0.013  0.00  0.00    +0.058 C 
BRANCH  27  29
ATOM     28  C   UNL     1      -0.019   1.526   0.010  0.00  0.00    +0.004 C 
ATOM     29  C   UNL     1       0.002  -0.004   0.002  0.00  0.00    +0.003 C 
ENDBRANCH  27  29
ENDBRANCH  22  27
ENDBRANCH  18  23
ENDBRANCH  17  20
ENDBRANCH   1  17
TORSDOF 8
