REMARK  Name = ZINC58852947
REMARK  9 active torsions:
REMARK  status: ('A' for Active; 'I' for Inactive)
REMARK    1  A    between atoms: C_1  and  C_2
REMARK    2  A    between atoms: C_4  and  C_15
REMARK    3  A    between atoms: C_5  and  C_14
REMARK    4  A    between atoms: N_6  and  C_7
REMARK    5  A    between atoms: N_16  and  N_17
REMARK    6  A    between atoms: C_18  and  C_20
REMARK    7  A    between atoms: C_20  and  N_21
REMARK    8  A    between atoms: N_21  and  S_28
REMARK    9  A    between atoms: S_28  and  C_31
REMARK                            x       y       z     vdW  Elec       q    Type
REMARK                         _______ _______ _______ _____ _____    ______ ____
ROOT
ATOM      1  N   UNL     1       0.071  -5.710  -1.697  0.00  0.00    -0.206 N 
ATOM      2  C   UNL     1       0.090  -6.927  -1.116  0.00  0.00    +0.251 C 
ATOM      3  O   UNL     1       0.096  -7.021   0.093  0.00  0.00    -0.272 OA
ATOM      4  H   UNL     1       0.066  -5.635  -2.664  0.00  0.00    +0.177 HD
ENDROOT
BRANCH   1   6
ATOM      5  C   UNL     1       0.042  -3.384  -1.463  0.00  0.00    +0.140 C 
ATOM      6  N   UNL     1       0.059  -4.556  -0.904  0.00  0.00    -0.188 NA
BRANCH   5  10
ATOM      7  C   UNL     1      -0.018   1.503   0.010  0.00  0.00    +0.064 C 
ATOM      8  C   UNL     1       0.002  -0.004   0.002  0.00  0.00    +0.022 A 
ATOM      9  C   UNL     1       0.008  -0.781  -1.097  0.00  0.00    +0.032 A 
ATOM     10  C   UNL     1       0.029  -2.170  -0.628  0.00  0.00    +0.016 A 
ATOM     11  C   UNL     1       0.034  -2.113   0.736  0.00  0.00    +0.030 A 
ATOM     12  N   UNL     1       0.024  -0.804   1.109  0.00  0.00    -0.316 N 
ATOM     13  C   UNL     1       0.053  -3.296   1.669  0.00  0.00    +0.064 C 
BRANCH  12  14
ATOM     14  C   UNL     1       0.030  -0.345   2.433  0.00  0.00    +0.065 A 
ATOM     15  C   UNL     1      -1.168  -0.139   3.104  0.00  0.00    +0.027 A 
ATOM     16  C   UNL     1      -1.158   0.314   4.409  0.00  0.00    +0.002 A 
ATOM     17  C   UNL     1       0.043   0.562   5.048  0.00  0.00    +0.002 A 
ATOM     18  C   UNL     1       1.238   0.359   4.383  0.00  0.00    +0.022 A 
ATOM     19  C   UNL     1       1.236  -0.100   3.079  0.00  0.00    +0.065 A 
ATOM     20 CL   UNL     1       2.736  -0.363   2.247  0.00  0.00    -0.081 Cl
ENDBRANCH  12  14
ENDBRANCH   5  10
ENDBRANCH   1   6
BRANCH   2  21
ATOM     21  C   UNL     1       0.103  -8.169  -1.970  0.00  0.00    +0.230 C 
BRANCH  21  22
ATOM     22  N   UNL     1       0.122  -9.353  -1.108  0.00  0.00    -0.177 N 
ATOM     23  C   UNL     1      -1.069  -9.869  -0.609  0.00  0.00    +0.141 A 
ATOM     24  C   UNL     1      -2.275  -9.259  -0.937  0.00  0.00    +0.045 A 
ATOM     25  C   UNL     1      -3.452  -9.783  -0.434  0.00  0.00    +0.005 A 
ATOM     26  C   UNL     1      -3.383 -10.904   0.384  0.00  0.00    +0.020 A 
ATOM     27  C   UNL     1      -2.151 -11.458   0.668  0.00  0.00    +0.113 A 
ATOM     28  N   UNL     1      -1.044 -10.940   0.170  0.00  0.00    -0.239 NA
BRANCH  22  29
ATOM     29  S   UNL     1       1.562 -10.077  -0.728  0.00  0.00    +0.076 S 
ATOM     30  O   UNL     1       1.263 -11.427  -0.397  0.00  0.00    -0.150 OA
ATOM     31  O   UNL     1       2.476  -9.730  -1.759  0.00  0.00    -0.150 OA
BRANCH  29  32
ATOM     32  C   UNL     1       2.154  -9.316   0.747  0.00  0.00    +0.109 A 
ATOM     33  C   UNL     1       2.965  -8.199   0.671  0.00  0.00    +0.029 A 
ATOM     34  C   UNL     1       3.429  -7.603   1.828  0.00  0.00    +0.002 A 
ATOM     35  C   UNL     1       3.083  -8.123   3.062  0.00  0.00    +0.000 A 
ATOM     36  C   UNL     1       2.272  -9.239   3.138  0.00  0.00    +0.002 A 
ATOM     37  C   UNL     1       1.804  -9.834   1.980  0.00  0.00    +0.029 A 
ENDBRANCH  29  32
ENDBRANCH  22  29
ENDBRANCH  21  22
ENDBRANCH   2  21
TORSDOF 7
