REMARK  Name = ZINC01321118
REMARK  8 active torsions:
REMARK  status: ('A' for Active; 'I' for Inactive)
REMARK    1  A    between atoms: C_1  and  C_2
REMARK    2  A    between atoms: C_2  and  C_4
REMARK    3  A    between atoms: C_2  and  N_7
REMARK    4  A    between atoms: C_4  and  C_6
REMARK    5  A    between atoms: C_18  and  C_22
REMARK    6  A    between atoms: C_22  and  C_23
REMARK    7  A    between atoms: C_22  and  C_24
REMARK    8  A    between atoms: C_22  and  C_25
REMARK                            x       y       z     vdW  Elec       q    Type
REMARK                         _______ _______ _______ _____ _____    ______ ____
ROOT
ATOM      1  N   UNL     1      -0.022  -6.354   1.628  0.00  0.00    -0.200 N 
ATOM      2  C   UNL     1       0.412  -5.075   1.522  0.00  0.00    +0.279 A 
ATOM      3  O   UNL     1       1.545  -4.746   1.830  0.00  0.00    -0.265 OA
ATOM      4  C   UNL     1      -0.550  -4.132   1.023  0.00  0.00    +0.079 A 
ATOM      5  C   UNL     1      -0.340  -2.712   0.817  0.00  0.00    -0.023 A 
ATOM      6  C   UNL     1      -1.391  -2.005   0.334  0.00  0.00    -0.004 A 
ATOM      7  S   UNL     1      -2.696  -3.192   0.136  0.00  0.00    -0.071 S 
ATOM      8  C   UNL     1      -1.832  -4.627   0.698  0.00  0.00    +0.138 A 
ATOM      9  N   UNL     1      -2.198  -5.898   0.825  0.00  0.00    -0.123 NA
ATOM     10  N   UNL     1      -1.317  -6.737   1.276  0.00  0.00    -0.061 NA
ATOM     11  C   UNL     1      -1.437  -0.539   0.033  0.00  0.00    +0.046 C 
ATOM     12  C   UNL     1       0.002  -0.004   0.002  0.00  0.00    -0.000 C 
ATOM     13  C   UNL     1       0.742  -0.515   1.242  0.00  0.00    +0.009 C 
ATOM     14  C   UNL     1       0.986  -2.019   1.118  0.00  0.00    +0.037 C 
ENDROOT
BRANCH  12  15
ATOM     15  C   UNL     1      -0.019   1.526   0.010  0.00  0.00    -0.035 C 
ATOM     16  C   UNL     1       1.417   2.055  -0.000  0.00  0.00    +0.011 C 
ATOM     17  C   UNL     1      -0.759   2.033  -1.229  0.00  0.00    +0.011 C 
ATOM     18  C   UNL     1      -0.735   2.019   1.269  0.00  0.00    +0.011 C 
ENDBRANCH  12  15
BRANCH   1  20
ATOM     19  C   UNL     1       0.328  -8.003   3.400  0.00  0.00    +0.041 C 
ATOM     20  C   UNL     1       0.903  -7.374   2.129  0.00  0.00    +0.175 C 
BRANCH  20  21
ATOM     21  C   UNL     1       1.091  -8.440   1.081  0.00  0.00    +0.154 C 
ATOM     22  O   UNL     1       0.327  -8.513   0.149  0.00  0.00    -0.295 OA
ATOM     23  C   UNL     1       2.234  -9.416   1.196  0.00  0.00    +0.088 C 
ENDBRANCH  20  21
ENDBRANCH   1  20
TORSDOF 3
