REMARK  Name = ZINC12135870
REMARK  10 active torsions:
REMARK  status: ('A' for Active; 'I' for Inactive)
REMARK    1  A    between atoms: C_1  and  C_2
REMARK    2  A    between atoms: C_2  and  C_3
REMARK    3  A    between atoms: C_3  and  C_4
REMARK    4  A    between atoms: C_7  and  N_10
REMARK    5  A    between atoms: C_11  and  C_13
REMARK    6  A    between atoms: C_13  and  S_14
REMARK    7  A    between atoms: S_14  and  C_15
REMARK    8  A    between atoms: C_18  and  C_26
REMARK    9  A    between atoms: N_19  and  C_20
REMARK   10  A    between atoms: C_26  and  N_63
REMARK                            x       y       z     vdW  Elec       q    Type
REMARK                         _______ _______ _______ _____ _____    ______ ____
ROOT
ATOM      1  C   UNL     1       1.061   2.240  -0.009  0.00  0.00    +0.197 A 
ATOM      2  N   UNL     1       0.592   3.466  -0.007  0.00  0.00    -0.122 NA
ATOM      3  N   UNL     1      -0.693   3.443  -0.002  0.00  0.00    -0.135 NA
ATOM      4  C   UNL     1      -1.120   2.212  -0.006  0.00  0.00    +0.122 A 
ATOM      5  N   UNL     1      -0.017   1.399  -0.005  0.00  0.00    -0.276 N 
ENDROOT
BRANCH   5   6
ATOM      6  C   UNL     1       0.002  -0.003  -0.005  0.00  0.00    +0.050 A 
ATOM      7  C   UNL     1      -0.506  -0.706  -1.089  0.00  0.00    +0.026 A 
ATOM      8  C   UNL     1      -0.482  -2.087  -1.089  0.00  0.00    +0.002 A 
ATOM      9  C   UNL     1       0.038  -2.770  -0.004  0.00  0.00    +0.000 A 
ATOM     10  C   UNL     1       0.540  -2.073   1.079  0.00  0.00    +0.002 A 
ATOM     11  C   UNL     1       0.523  -0.692   1.082  0.00  0.00    +0.026 A 
ENDBRANCH   5   6
BRANCH   1  12
ATOM     12  S   UNL     1       2.759   1.768  -0.017  0.00  0.00    -0.076 S 
BRANCH  12  13
ATOM     13  C   UNL     1       3.539   3.401  -0.021  0.00  0.00    +0.173 C 
BRANCH  13  15
ATOM     14  N   UNL     1       5.832   4.331  -0.031  0.00  0.00    -0.285 N 
ATOM     15  C   UNL     1       5.038   3.241  -0.028  0.00  0.00    +0.227 C 
ATOM     16  O   UNL     1       5.530   2.133  -0.030  0.00  0.00    -0.275 OA
ATOM     17  H   UNL     1       5.440   5.216  -0.097  0.00  0.00    +0.155 HD
BRANCH  14  21
ATOM     18  C   UNL     1       9.966   3.897   0.241  0.00  0.00    -0.047 A 
ATOM     19  C   UNL     1       9.218   2.962  -0.451  0.00  0.00    +0.005 A 
ATOM     20  C   UNL     1       7.847   3.103  -0.543  0.00  0.00    +0.023 A 
ATOM     21  C   UNL     1       7.220   4.185   0.060  0.00  0.00    +0.033 A 
ATOM     22  C   UNL     1       7.975   5.125   0.750  0.00  0.00    +0.023 A 
ATOM     23  C   UNL     1       9.345   4.975   0.843  0.00  0.00    +0.005 A 
BRANCH  18  24
ATOM     24  C   UNL     1      11.462   3.740   0.339  0.00  0.00    +0.035 C 
BRANCH  24  26
ATOM     25  C   UNL     1      13.646   4.295  -0.738  0.00  0.00    +0.004 C 
ATOM     26  C   UNL     1      12.128   4.455  -0.838  0.00  0.00    +0.001 C 
ENDBRANCH  24  26
ENDBRANCH  18  24
ENDBRANCH  14  21
ENDBRANCH  13  15
ENDBRANCH  12  13
ENDBRANCH   1  12
BRANCH   4  27
ATOM     27  C   UNL     1      -2.559   1.765  -0.007  0.00  0.00    -0.001 C 
BRANCH  27  33
ATOM     28  C   UNL     1      -2.320   0.531   2.061  0.00  0.00    -0.078 C 
ATOM     29  C   UNL     1      -2.727   0.503   3.536  0.00  0.00    -0.019 C 
ATOM     30  C   UNL     1      -4.241   0.296   3.639  0.00  0.00    -0.004 C 
ATOM     31  C   UNL     1      -4.954   1.417   2.877  0.00  0.00    -0.019 C 
ATOM     32  C   UNL     1      -4.482   1.418   1.421  0.00  0.00    -0.078 C 
ATOM     33  N   UNL     1      -3.022   1.646   1.391  0.00  0.00    +0.384 N 
ATOM     34  H   UNL     1      -2.811   2.519   1.887  0.00  0.00    -0.081 HD
ENDBRANCH  27  33
ENDBRANCH   4  27
TORSDOF 9
