REMARK  Name = ZINC64871211
REMARK  7 active torsions:
REMARK  status: ('A' for Active; 'I' for Inactive)
REMARK    1  A    between atoms: C_1  and  C_2
REMARK    2  A    between atoms: C_2  and  O_3
REMARK    3  A    between atoms: O_3  and  C_4
REMARK    4  A    between atoms: C_7  and  C_10
REMARK    5  A    between atoms: C_13  and  C_17
REMARK    6  A    between atoms: N_27  and  C_30
REMARK    7  A    between atoms: C_30  and  C_31
REMARK                            x       y       z     vdW  Elec       q    Type
REMARK                         _______ _______ _______ _____ _____    ______ ____
ROOT
ATOM      1  C   UNL     1       1.189  -8.777   3.877  0.00  0.00    -0.000 A 
ATOM      2  C   UNL     1       2.559  -8.776   3.659  0.00  0.00    +0.008 A 
ATOM      3  C   UNL     1       3.349  -9.779   4.180  0.00  0.00    +0.016 A 
ATOM      4  C   UNL     1       2.762 -10.796   4.929  0.00  0.00    +0.063 A 
ATOM      5  C   UNL     1       1.374 -10.795   5.150  0.00  0.00    +0.056 A 
ATOM      6  C   UNL     1       0.596  -9.776   4.623  0.00  0.00    +0.034 A 
ATOM      7  N   UNL     1       0.817 -11.820   5.901  0.00  0.00    -0.307 N 
ATOM      8  H   UNL     1      -0.140 -11.833   6.061  0.00  0.00    +0.170 HD
ATOM      9  C   UNL     1       1.590 -12.796   6.408  0.00  0.00    +0.330 A 
ATOM     10  O   UNL     1       1.063 -13.676   7.060  0.00  0.00    -0.246 OA
ATOM     11  N   UNL     1       2.919 -12.840   6.225  0.00  0.00    -0.256 N 
ATOM     12  C   UNL     1       3.560 -11.891   5.510  0.00  0.00    +0.265 A 
ATOM     13  O   UNL     1       4.764 -11.938   5.349  0.00  0.00    -0.267 OA
ENDROOT
BRANCH   1  16
ATOM     14  C   UNL     1       1.144  -6.059   1.764  0.00  0.00    +0.180 C 
ATOM     15  N   UNL     1       1.134  -6.431   3.199  0.00  0.00    -0.265 NA
ATOM     16  C   UNL     1       0.341  -7.673   3.300  0.00  0.00    +0.242 C 
ATOM     17  O   UNL     1      -0.079  -8.019   1.967  0.00  0.00    -0.274 OA
ATOM     18  N   UNL     1      -0.056  -6.744   1.214  0.00  0.00    -0.177 NA
ATOM     19  H   UNL     1       2.072  -6.571   3.543  0.00  0.00    +0.127 HD
ATOM     20  H   UNL     1       0.044  -6.908   0.223  0.00  0.00    +0.156 HD
BRANCH  14  24
ATOM     21  C   UNL     1       0.802  -1.824   1.306  0.00  0.00    +0.121 A 
ATOM     22  C   UNL     1       0.260  -2.673   0.351  0.00  0.00    +0.046 A 
ATOM     23  C   UNL     1       0.372  -4.041   0.502  0.00  0.00    +0.010 A 
ATOM     24  C   UNL     1       1.024  -4.566   1.603  0.00  0.00    -0.014 A 
ATOM     25  C   UNL     1       1.565  -3.722   2.555  0.00  0.00    +0.010 A 
ATOM     26  C   UNL     1       1.460  -2.353   2.406  0.00  0.00    +0.046 A 
BRANCH  21  27
ATOM     27  O   UNL     1       0.693  -0.477   1.160  0.00  0.00    -0.492 OA
BRANCH  27  29
ATOM     28  C   UNL     1      -0.019   1.526   0.010  0.00  0.00    +0.048 C 
ATOM     29  C   UNL     1       0.002  -0.004   0.002  0.00  0.00    +0.225 C 
ENDBRANCH  27  29
ENDBRANCH  21  27
ENDBRANCH  14  24
ENDBRANCH   1  16
BRANCH  11  30
ATOM     30  C   UNL     1       3.688 -13.940   6.812  0.00  0.00    +0.165 C 
BRANCH  30  31
ATOM     31  C   UNL     1       3.764 -15.081   5.831  0.00  0.00    -0.027 A 
ATOM     32  C   UNL     1       2.789 -16.061   5.834  0.00  0.00    +0.007 A 
ATOM     33  C   UNL     1       2.858 -17.108   4.934  0.00  0.00    +0.020 A 
ATOM     34  C   UNL     1       3.903 -17.174   4.030  0.00  0.00    +0.041 A 
ATOM     35  C   UNL     1       4.878 -16.193   4.027  0.00  0.00    +0.020 A 
ATOM     36  C   UNL     1       4.805 -15.143   4.923  0.00  0.00    +0.007 A 
ATOM     37 CL   UNL     1       3.990 -18.489   2.899  0.00  0.00    -0.084 Cl
ENDBRANCH  30  31
ENDBRANCH  11  30
TORSDOF 6
