REMARK  Name = ZINC46791811
REMARK  7 active torsions:
REMARK  status: ('A' for Active; 'I' for Inactive)
REMARK    1  A    between atoms: C_1  and  C_2
REMARK    2  A    between atoms: C_7  and  C_10
REMARK    3  A    between atoms: C_14  and  C_17
REMARK    4  A    between atoms: C_17  and  N_18
REMARK    5  A    between atoms: C_19  and  C_21
REMARK    6  A    between atoms: C_21  and  N_22
REMARK    7  A    between atoms: C_23  and  C_25
REMARK                            x       y       z     vdW  Elec       q    Type
REMARK                         _______ _______ _______ _____ _____    ______ ____
ROOT
ATOM      1  N   UNL     1      -3.369  -5.796  -4.369  0.00  0.00    -0.310 N 
ATOM      2  C   UNL     1      -3.827  -6.645  -5.310  0.00  0.00    +0.230 C 
ATOM      3  O   UNL     1      -4.914  -7.167  -5.179  0.00  0.00    -0.274 OA
ATOM      4  H   UNL     1      -2.500  -5.378  -4.474  0.00  0.00    +0.149 HD
ENDROOT
BRANCH   1   5
ATOM      5  C   UNL     1      -4.185  -5.503  -3.188  0.00  0.00    +0.141 C 
BRANCH   5  17
ATOM      6  C   UNL     1      -0.045  -2.168   3.728  0.00  0.00    +0.039 C 
ATOM      7  C   UNL     1      -0.987  -1.773   2.589  0.00  0.00    +0.133 C 
ATOM      8  C   UNL     1      -0.596  -2.529   1.315  0.00  0.00    +0.137 C 
ATOM      9  N   UNL     1      -1.389  -1.995   0.196  0.00  0.00    -0.312 N 
ATOM     10  C   UNL     1      -1.418  -0.537   0.002  0.00  0.00    +0.137 C 
ATOM     11  C   UNL     1      -1.770   0.122   1.341  0.00  0.00    +0.133 C 
ATOM     12  O   UNL     1      -0.886  -0.366   2.353  0.00  0.00    -0.371 OA
ATOM     13  C   UNL     1      -3.214  -0.218   1.714  0.00  0.00    +0.039 C 
ATOM     14  C   UNL     1      -2.091  -2.844  -0.652  0.00  0.00    +0.099 A 
ATOM     15  C   UNL     1      -2.927  -2.308  -1.627  0.00  0.00    +0.042 A 
ATOM     16  C   UNL     1      -3.619  -3.164  -2.464  0.00  0.00    +0.010 A 
ATOM     17  C   UNL     1      -3.451  -4.533  -2.299  0.00  0.00    -0.014 A 
ATOM     18  C   UNL     1      -2.604  -4.995  -1.311  0.00  0.00    +0.089 A 
ATOM     19  N   UNL     1      -1.953  -4.155  -0.530  0.00  0.00    -0.349 N 
ATOM     20  H   UNL     1      -1.361  -4.507   0.154  0.00  0.00    +0.167 HD
ENDBRANCH   5  17
ENDBRANCH   1   5
BRANCH   2  21
ATOM     21  C   UNL     1      -2.989  -6.946  -6.526  0.00  0.00    +0.200 C 
BRANCH  21  22
ATOM     22  N   UNL     1      -3.702  -7.889  -7.390  0.00  0.00    -0.302 N 
ATOM     23  C   UNL     1      -3.140  -8.305  -8.543  0.00  0.00    +0.253 C 
ATOM     24  O   UNL     1      -2.041  -7.897  -8.865  0.00  0.00    -0.270 OA
ATOM     25  H   UNL     1      -4.579  -8.214  -7.133  0.00  0.00    +0.150 HD
BRANCH  23  26
ATOM     26  C   UNL     1      -3.856  -9.250  -9.409  0.00  0.00    +0.093 A 
ATOM     27  C   UNL     1      -3.455  -9.783 -10.595  0.00  0.00    +0.068 A 
ATOM     28  C   UNL     1      -4.295 -10.681 -11.280  0.00  0.00    +0.008 A 
ATOM     29  C   UNL     1      -4.059 -11.337 -12.515  0.00  0.00    +0.010 A 
ATOM     30  C   UNL     1      -4.984 -12.180 -13.043  0.00  0.00    +0.001 A 
ATOM     31  C   UNL     1      -6.189 -12.434 -12.399  0.00  0.00    +0.001 A 
ATOM     32  C   UNL     1      -6.459 -11.818 -11.194  0.00  0.00    +0.016 A 
ATOM     33  C   UNL     1      -5.530 -10.959 -10.647  0.00  0.00    +0.021 A 
ATOM     34  S   UNL     1      -5.462  -9.988  -9.162  0.00  0.00    -0.082 S 
ATOM     35 CL   UNL     1      -1.911  -9.357 -11.263  0.00  0.00    -0.082 Cl
ENDBRANCH  23  26
ENDBRANCH  21  22
ENDBRANCH   2  21
TORSDOF 5
