REMARK  Name = ZINC22450119
REMARK  4 active torsions:
REMARK  status: ('A' for Active; 'I' for Inactive)
REMARK    1  A    between atoms: C_1  and  C_2
REMARK    2  A    between atoms: C_3  and  C_18
REMARK    3  A    between atoms: C_14  and  C_17
REMARK    4  A    between atoms: C_18  and  C_19
REMARK                            x       y       z     vdW  Elec       q    Type
REMARK                         _______ _______ _______ _____ _____    ______ ____
ROOT
ATOM      1  C   UNL     1      -1.332  -0.745  -0.256  0.00  0.00    +0.066 C 
ATOM      2  C   UNL     1      -0.026  -0.005  -0.119  0.00  0.00    +0.050 A 
ATOM      3  C   UNL     1      -0.003   1.357  -0.195  0.00  0.00    +0.042 A 
ATOM      4  C   UNL     1       1.228   2.024  -0.065  0.00  0.00    +0.256 A 
ATOM      5  O   UNL     1       1.285   3.241  -0.129  0.00  0.00    -0.267 OA
ATOM      6  N   UNL     1       2.345   1.292   0.132  0.00  0.00    -0.295 N 
ATOM      7  H   UNL     1       3.319   1.793   0.237  0.00  0.00    +0.172 HD
ATOM      8  C   UNL     1       2.261  -0.064   0.199  0.00  0.00    +0.198 A 
ATOM      9  N   UNL     1       1.104  -0.682   0.076  0.00  0.00    -0.221 NA
ATOM     10  N   UNL     1       3.399  -0.799   0.398  0.00  0.00    -0.301 N 
ATOM     11  C   UNL     1       4.156  -0.295   1.551  0.00  0.00    +0.108 C 
ATOM     12  C   UNL     1       5.487  -1.043   1.655  0.00  0.00    +0.019 C 
ATOM     13  C   UNL     1       5.214  -2.541   1.816  0.00  0.00    +0.006 C 
ATOM     14  C   UNL     1       4.382  -3.031   0.627  0.00  0.00    +0.003 C 
ATOM     15  C   UNL     1       3.084  -2.225   0.552  0.00  0.00    +0.111 C 
ATOM     16  C   UNL     1       4.054  -4.514   0.810  0.00  0.00    +0.009 C 
ENDROOT
BRANCH   3  17
ATOM     17  C   UNL     1      -1.275   2.133  -0.422  0.00  0.00    +0.077 C 
BRANCH  17  18
ATOM     18  C   UNL     1      -1.449   2.393  -1.896  0.00  0.00    -0.043 A 
ATOM     19  C   UNL     1      -0.852   3.496  -2.478  0.00  0.00    +0.004 A 
ATOM     20  C   UNL     1      -1.008   3.733  -3.831  0.00  0.00    +0.000 A 
ATOM     21  C   UNL     1      -1.768   2.872  -4.600  0.00  0.00    +0.000 A 
ATOM     22  C   UNL     1      -2.369   1.772  -4.017  0.00  0.00    +0.000 A 
ATOM     23  C   UNL     1      -2.210   1.533  -2.665  0.00  0.00    +0.004 A 
ENDBRANCH  17  18
ENDBRANCH   3  17
TORSDOF 2
