REMARK  Name = ZINC64785118
REMARK  11 active torsions:
REMARK  status: ('A' for Active; 'I' for Inactive)
REMARK    1  A    between atoms: C_1  and  C_2
REMARK    2  A    between atoms: C_2  and  O_3
REMARK    3  A    between atoms: O_3  and  C_4
REMARK    4  A    between atoms: C_4  and  C_6
REMARK    5  A    between atoms: C_6  and  N_7
REMARK    6  A    between atoms: N_7  and  C_8
REMARK    7  A    between atoms: C_8  and  C_9
REMARK    8  A    between atoms: C_9  and  C_10
REMARK    9  A    between atoms: C_9  and  C_11
REMARK   10  A    between atoms: C_12  and  C_14
REMARK   11  A    between atoms: C_17  and  C_19
REMARK                            x       y       z     vdW  Elec       q    Type
REMARK                         _______ _______ _______ _____ _____    ______ ____
ROOT
ATOM      1  N   UNL     1       1.434  -4.058   1.544  0.00  0.00    -0.285 N 
ATOM      2  C   UNL     1       0.542  -4.699   2.326  0.00  0.00    +0.266 C 
ATOM      3  O   UNL     1       0.502  -5.915   2.332  0.00  0.00    -0.268 OA
ENDROOT
BRANCH   2   4
ATOM      4  C   UNL     1      -0.384  -3.927   3.173  0.00  0.00    +0.133 A 
ATOM      5  C   UNL     1      -1.229  -4.567   4.039  0.00  0.00    +0.080 A 
ATOM      6  S   UNL     1      -2.055  -3.287   4.755  0.00  0.00    -0.075 S 
ATOM      7  C   UNL     1      -1.255  -1.951   3.885  0.00  0.00    +0.112 A 
ATOM      8  N   UNL     1      -0.406  -2.603   3.111  0.00  0.00    -0.234 NA
BRANCH   7   9
ATOM      9  C   UNL     1      -1.479  -0.494   4.003  0.00  0.00    +0.042 A 
ATOM     10  C   UNL     1      -0.655   0.400   3.318  0.00  0.00    +0.013 A 
ATOM     11  C   UNL     1      -0.870   1.758   3.432  0.00  0.00    +0.001 A 
ATOM     12  C   UNL     1      -1.900   2.236   4.224  0.00  0.00    +0.003 A 
ATOM     13  C   UNL     1      -2.720   1.357   4.907  0.00  0.00    +0.039 A 
ATOM     14  C   UNL     1      -2.520  -0.007   4.797  0.00  0.00    +0.133 A 
ATOM     15  F   UNL     1      -3.326  -0.865   5.460  0.00  0.00    -0.205 F 
ENDBRANCH   7   9
ENDBRANCH   2   4
BRANCH   1  16
ATOM     16  C   UNL     1       1.542  -2.598   1.602  0.00  0.00    +0.228 C 
BRANCH  16  17
ATOM     17  C   UNL     1       0.515  -1.981   0.689  0.00  0.00    +0.325 C 
ATOM     18  O   UNL     1      -0.232  -2.688   0.054  0.00  0.00    -0.249 OA
BRANCH  17  19
ATOM     19  O   UNL     1       0.429  -0.646   0.580  0.00  0.00    -0.464 OA
BRANCH  19  21
ATOM     20  C   UNL     1      -0.514   1.399  -0.296  0.00  0.00    +0.048 C 
ATOM     21  C   UNL     1      -0.568  -0.130  -0.304  0.00  0.00    +0.229 C 
ENDBRANCH  19  21
ENDBRANCH  17  19
ENDBRANCH  16  17
ENDBRANCH   1  16
BRANCH   1  22
ATOM     22  C   UNL     1       2.294  -4.821   0.636  0.00  0.00    +0.111 C 
BRANCH  22  23
ATOM     23  C   UNL     1       3.635  -5.100   1.318  0.00  0.00    +0.000 C 
ATOM     24  C   UNL     1       3.417  -6.039   2.507  0.00  0.00    +0.009 C 
ATOM     25  C   UNL     1       4.588  -5.757   0.318  0.00  0.00    +0.009 C 
ENDBRANCH  22  23
ENDBRANCH   1  22
TORSDOF 8
