REMARK  Name = ZINC19891750
REMARK  8 active torsions:
REMARK  status: ('A' for Active; 'I' for Inactive)
REMARK    1  A    between atoms: C_4  and  C_7
REMARK    2  A    between atoms: C_7  and  C_9
REMARK    3  A    between atoms: C_7  and  N_16
REMARK    4  A    between atoms: N_19  and  C_22
REMARK    5  A    between atoms: C_22  and  C_23
REMARK    6  A    between atoms: C_23  and  C_25
REMARK    7  A    between atoms: C_23  and  O_39
REMARK    8  A    between atoms: C_25  and  N_26
REMARK                            x       y       z     vdW  Elec       q    Type
REMARK                         _______ _______ _______ _____ _____    ______ ____
ROOT
ATOM      1  N   UNL     1       7.333   0.416  -5.312  0.00  0.00    +0.389 N 
ATOM      2  C   UNL     1       7.692   1.624  -4.556  0.00  0.00    -0.062 C 
ATOM      3  C   UNL     1       7.387   1.403  -3.073  0.00  0.00    +0.066 C 
ATOM      4  N   UNL     1       5.961   1.088  -2.910  0.00  0.00    -0.303 NA
ATOM      5  C   UNL     1       5.601  -0.120  -3.667  0.00  0.00    +0.066 C 
ATOM      6  C   UNL     1       5.907   0.101  -5.150  0.00  0.00    -0.062 C 
ATOM      7  H   UNL     1       7.915  -0.425  -4.907  0.00  0.00    -0.080 HD
ENDROOT
BRANCH   1   8
ATOM      8  C   UNL     1       7.682   0.561  -6.732  0.00  0.00    -0.007 C 
BRANCH   8   9
ATOM      9  C   UNL     1       9.166   0.790  -6.864  0.00  0.00    -0.057 A 
ATOM     10  C   UNL     1      10.047   0.093  -6.058  0.00  0.00    +0.004 A 
ATOM     11  C   UNL     1      11.408   0.298  -6.183  0.00  0.00    +0.020 A 
ATOM     12  C   UNL     1      11.888   1.210  -7.106  0.00  0.00    +0.041 A 
ATOM     13  C   UNL     1      11.005   1.912  -7.908  0.00  0.00    +0.020 A 
ATOM     14  C   UNL     1       9.645   1.701  -7.786  0.00  0.00    +0.004 A 
ATOM     15 CL   UNL     1      13.597   1.475  -7.257  0.00  0.00    -0.084 Cl
ENDBRANCH   8   9
BRANCH   8  19
ATOM     16  C   UNL     1       6.599  -2.996  -8.835  0.00  0.00    +0.000 A 
ATOM     17  C   UNL     1       6.391  -1.760  -9.416  0.00  0.00    +0.000 A 
ATOM     18  C   UNL     1       6.741  -0.608  -8.736  0.00  0.00    +0.002 A 
ATOM     19  C   UNL     1       7.300  -0.694  -7.474  0.00  0.00    -0.057 A 
ATOM     20  C   UNL     1       7.513  -1.931  -6.895  0.00  0.00    +0.002 A 
ATOM     21  C   UNL     1       7.158  -3.082  -7.574  0.00  0.00    +0.000 A 
ENDBRANCH   8  19
ENDBRANCH   1   8
BRANCH   4  22
ATOM     22  C   UNL     1       5.612   0.943  -1.491  0.00  0.00    +0.117 C 
BRANCH  22  23
ATOM     23  C   UNL     1       5.532   2.326  -0.842  0.00  0.00    +0.148 C 
BRANCH  23  24
ATOM     24  O   UNL     1       4.522   3.101  -1.493  0.00  0.00    -0.389 OA
ATOM     25  H   UNL     1       4.319   4.130  -1.162  0.00  0.00    +0.210 HD
ENDBRANCH  23  24
BRANCH  23  26
ATOM     26  C   UNL     1       5.181   2.175   0.640  0.00  0.00    +0.155 C 
BRANCH  26  27
ATOM     27  N   UNL     1       5.221   3.488   1.288  0.00  0.00    -0.337 N 
ATOM     28  C   UNL     1       6.341   4.043   1.882  0.00  0.00    +0.050 A 
ATOM     29  C   UNL     1       7.644   3.582   2.037  0.00  0.00    +0.026 A 
ATOM     30  C   UNL     1       8.579   4.359   2.685  0.00  0.00    +0.002 A 
ATOM     31  C   UNL     1       8.234   5.604   3.188  0.00  0.00    +0.001 A 
ATOM     32  C   UNL     1       6.949   6.081   3.040  0.00  0.00    +0.010 A 
ATOM     33  C   UNL     1       5.993   5.303   2.391  0.00  0.00    +0.008 A 
ATOM     34  C   UNL     1       4.567   5.503   2.074  0.00  0.00    +0.008 A 
ATOM     35  C   UNL     1       4.145   4.351   1.394  0.00  0.00    +0.050 A 
ATOM     36  C   UNL     1       2.825   4.258   0.965  0.00  0.00    +0.026 A 
ATOM     37  C   UNL     1       1.945   5.291   1.209  0.00  0.00    +0.002 A 
ATOM     38  C   UNL     1       2.364   6.428   1.883  0.00  0.00    +0.001 A 
ATOM     39  C   UNL     1       3.667   6.539   2.315  0.00  0.00    +0.010 A 
ENDBRANCH  26  27
ENDBRANCH  23  26
ENDBRANCH  22  23
ENDBRANCH   4  22
TORSDOF 8
