REMARK  Name = ZINC56468047
REMARK  4 active torsions:
REMARK  status: ('A' for Active; 'I' for Inactive)
REMARK    1  A    between atoms: C_1  and  C_2
REMARK    2  A    between atoms: C_4  and  C_14
REMARK    3  A    between atoms: C_19  and  N_22
REMARK    4  A    between atoms: C_23  and  C_25
REMARK                            x       y       z     vdW  Elec       q    Type
REMARK                         _______ _______ _______ _____ _____    ______ ____
ROOT
ATOM      1  C   UNL     1       2.002   0.086  -1.407  0.00  0.00    +0.260 C 
ATOM      2  O   UNL     1       2.958  -0.656  -1.498  0.00  0.00    -0.271 OA
ATOM      3  N   UNL     1       2.182   1.421  -1.425  0.00  0.00    -0.298 N 
ATOM      4  C   UNL     1       1.049   2.332  -1.214  0.00  0.00    +0.109 C 
ATOM      5  C   UNL     1       0.991   3.326  -2.378  0.00  0.00    +0.041 C 
ATOM      6  C   UNL     1       2.344   4.027  -2.513  0.00  0.00    +0.076 C 
ATOM      7  C   UNL     1       3.430   2.992  -2.815  0.00  0.00    +0.041 C 
ATOM      8  C   UNL     1       3.516   1.994  -1.649  0.00  0.00    +0.109 C 
ENDROOT
BRANCH   1  11
ATOM      9  C   UNL     1       0.328   0.700   0.915  0.00  0.00    +0.056 C 
ATOM     10  C   UNL     1       0.265  -0.657   0.210  0.00  0.00    +0.220 C 
ATOM     11  C   UNL     1       0.614  -0.486  -1.274  0.00  0.00    +0.299 C 
ATOM     12  O   UNL     1       0.560  -1.773  -1.899  0.00  0.00    -0.472 OA
ATOM     13  C   UNL     1       1.174  -2.797  -1.244  0.00  0.00    +0.163 A 
ATOM     14  C   UNL     1       1.477  -3.961  -1.934  0.00  0.00    +0.049 A 
ATOM     15  C   UNL     1       2.097  -5.010  -1.283  0.00  0.00    +0.004 A 
ATOM     16  C   UNL     1       2.417  -4.902   0.058  0.00  0.00    +0.004 A 
ATOM     17  C   UNL     1       2.119  -3.744   0.751  0.00  0.00    +0.049 A 
ATOM     18  C   UNL     1       1.498  -2.687   0.102  0.00  0.00    +0.163 A 
ATOM     19  O   UNL     1       1.218  -1.550   0.796  0.00  0.00    -0.481 OA
ENDBRANCH   1  11
BRANCH   6  20
ATOM     20  N   UNL     1       2.283   5.002  -3.605  0.00  0.00    -0.308 N 
ATOM     21  C   UNL     1       3.114   6.063  -3.609  0.00  0.00    +0.245 C 
ATOM     22  O   UNL     1       3.916   6.211  -2.706  0.00  0.00    -0.270 OA
ATOM     23  H   UNL     1       1.643   4.884  -4.325  0.00  0.00    +0.149 HD
BRANCH  21  24
ATOM     24  C   UNL     1       3.052   7.042  -4.706  0.00  0.00    +0.044 A 
ATOM     25  C   UNL     1       3.929   8.187  -4.747  0.00  0.00    +0.020 A 
ATOM     26  C   UNL     1       3.772   9.007  -5.805  0.00  0.00    +0.046 A 
ATOM     27  S   UNL     1       2.457   8.235  -6.723  0.00  0.00    -0.104 S 
ATOM     28  C   UNL     1       2.158   6.906  -5.744  0.00  0.00    +0.058 A 
ENDBRANCH  21  24
ENDBRANCH   6  20
TORSDOF 3
