REMARK  Name = ZINC43641810
REMARK  6 active torsions:
REMARK  status: ('A' for Active; 'I' for Inactive)
REMARK    1  A    between atoms: C_1  and  C_2
REMARK    2  A    between atoms: C_2  and  C_3
REMARK    3  A    between atoms: C_3  and  N_4
REMARK    4  A    between atoms: C_6  and  C_10
REMARK    5  A    between atoms: C_7  and  C_9
REMARK    6  A    between atoms: C_19  and  O_27
REMARK                            x       y       z     vdW  Elec       q    Type
REMARK                         _______ _______ _______ _____ _____    ______ ____
ROOT
ATOM      1  C   UNL     1      -2.237  -5.309   1.238  0.00  0.00    +0.079 A 
ATOM      2  C   UNL     1      -3.038  -5.205   2.380  0.00  0.00    +0.048 A 
ATOM      3  C   UNL     1      -3.456  -6.368   3.000  0.00  0.00    +0.116 A 
ATOM      4  N   UNL     1      -3.090  -7.537   2.498  0.00  0.00    -0.223 NA
ATOM      5  C   UNL     1      -2.330  -7.607   1.414  0.00  0.00    +0.218 A 
ATOM      6  N   UNL     1      -1.913  -6.519   0.787  0.00  0.00    -0.214 NA
ATOM      7  N   UNL     1      -1.970  -8.850   0.922  0.00  0.00    -0.299 N 
ATOM      8  C   UNL     1      -1.124  -8.966  -0.274  0.00  0.00    +0.111 C 
ATOM      9  C   UNL     1      -1.829  -9.870  -1.289  0.00  0.00    +0.054 C 
ATOM     10  C   UNL     1      -2.165 -11.210  -0.629  0.00  0.00    +0.072 C 
ATOM     11  C   UNL     1      -2.852 -12.118  -1.653  0.00  0.00    +0.035 C 
ATOM     12  C   UNL     1      -4.129 -11.441  -2.155  0.00  0.00    +0.003 C 
ATOM     13  C   UNL     1      -5.074 -11.194  -0.979  0.00  0.00    +0.001 C 
ATOM     14  C   UNL     1      -4.387 -10.294   0.050  0.00  0.00    +0.008 C 
ATOM     15  C   UNL     1      -3.112 -10.974   0.550  0.00  0.00    +0.038 C 
ATOM     16  C   UNL     1      -2.420 -10.079   1.589  0.00  0.00    +0.114 C 
ENDROOT
BRANCH   1  19
ATOM     17  N   UNL     1      -1.413  -1.998   0.005  0.00  0.00    -0.271 N 
ATOM     18  C   UNL     1      -2.024  -2.800   0.897  0.00  0.00    +0.118 A 
ATOM     19  C   UNL     1      -1.763  -4.092   0.538  0.00  0.00    +0.041 A 
ATOM     20  C   UNL     1      -0.961  -4.056  -0.620  0.00  0.00    +0.069 A 
ATOM     21  N   UNL     1      -0.761  -2.805  -0.935  0.00  0.00    -0.176 NA
ATOM     22  C   UNL     1      -0.431  -5.253  -1.368  0.00  0.00    +0.068 C 
BRANCH  17  23
ATOM     23  C   UNL     1      -1.433  -0.534   0.013  0.00  0.00    +0.143 C 
BRANCH  23  25
ATOM     24  C   UNL     1      -0.019   1.526   0.010  0.00  0.00    +0.005 C 
ATOM     25  C   UNL     1       0.002  -0.004   0.002  0.00  0.00    +0.020 C 
ENDBRANCH  23  25
ENDBRANCH  17  23
ENDBRANCH   1  19
BRANCH  10  26
ATOM     26  O   UNL     1      -0.964 -11.827  -0.163  0.00  0.00    -0.388 OA
ATOM     27  H   UNL     1      -0.318 -12.008  -0.859  0.00  0.00    +0.210 HD
ENDBRANCH  10  26
TORSDOF 4
