REMARK  Name = ZINC02502284
REMARK  7 active torsions:
REMARK  status: ('A' for Active; 'I' for Inactive)
REMARK    1  A    between atoms: C_1  and  N_2
REMARK    2  A    between atoms: C_6  and  C_23
REMARK    3  A    between atoms: C_8  and  C_16
REMARK    4  A    between atoms: C_10  and  C_11
REMARK    5  A    between atoms: C_10  and  O_15
REMARK    6  A    between atoms: C_16  and  C_18
REMARK    7  A    between atoms: C_26  and  O_29
REMARK                            x       y       z     vdW  Elec       q    Type
REMARK                         _______ _______ _______ _____ _____    ______ ____
ROOT
ATOM      1  C   UNL     1      -0.018   1.461   0.010  0.00  0.00    +0.137 C 
ATOM      2  N   UNL     1       0.002  -0.004   0.002  0.00  0.00    -0.253 N 
ATOM      3  C   UNL     1       1.180  -0.645  -0.013  0.00  0.00    +0.305 C 
ATOM      4  O   UNL     1       2.203   0.013  -0.029  0.00  0.00    -0.253 OA
ATOM      5  N   UNL     1       1.275  -1.983  -0.009  0.00  0.00    -0.292 N 
ATOM      6  C   UNL     1       0.082  -2.831  -0.001  0.00  0.00    +0.120 C 
ATOM      7  C   UNL     1      -1.058  -2.089   0.705  0.00  0.00    +0.145 C 
ATOM      8  C   UNL     1      -1.264  -0.738   0.016  0.00  0.00    +0.245 C 
ATOM      9  H   UNL     1       2.152  -2.397  -0.012  0.00  0.00    +0.151 HD
ENDROOT
BRANCH   6  10
ATOM     10  C   UNL     1       0.380  -4.113   0.732  0.00  0.00    -0.026 A 
ATOM     11  C   UNL     1       1.153  -4.089   1.879  0.00  0.00    +0.009 A 
ATOM     12  C   UNL     1       1.423  -5.262   2.556  0.00  0.00    +0.046 A 
ATOM     13  C   UNL     1       0.928  -6.467   2.079  0.00  0.00    +0.117 A 
ATOM     14  C   UNL     1       0.158  -6.490   0.925  0.00  0.00    +0.046 A 
ATOM     15  C   UNL     1      -0.115  -5.313   0.255  0.00  0.00    +0.009 A 
BRANCH  13  16
ATOM     16  O   UNL     1       1.198  -7.624   2.740  0.00  0.00    -0.507 OA
ATOM     17  H   UNL     1       2.006  -8.066   2.445  0.00  0.00    +0.292 HD
ENDBRANCH  13  16
ENDBRANCH   6  10
BRANCH   8  18
ATOM     18  C   UNL     1      -1.737  -0.969  -1.420  0.00  0.00    +0.436 C 
ATOM     19  F   UNL     1      -0.776  -1.712  -2.114  0.00  0.00    -0.166 F 
ATOM     20  F   UNL     1      -2.947  -1.671  -1.405  0.00  0.00    -0.166 F 
ATOM     21  F   UNL     1      -1.921   0.264  -2.055  0.00  0.00    -0.166 F 
ENDBRANCH   8  18
BRANCH   8  22
ATOM     22  O   UNL     1      -2.246   0.017   0.728  0.00  0.00    -0.364 OA
ATOM     23  H   UNL     1      -2.426   0.887   0.347  0.00  0.00    +0.212 HD
ENDBRANCH   8  22
BRANCH   7  24
ATOM     24  C   UNL     1      -0.698  -1.868   2.152  0.00  0.00    +0.180 C 
ATOM     25  O   UNL     1      -0.191  -0.821   2.499  0.00  0.00    -0.291 OA
BRANCH  24  26
ATOM     26  C   UNL     1      -0.951  -2.880   3.104  0.00  0.00    +0.055 A 
ATOM     27  C   UNL     1      -0.694  -2.882   4.472  0.00  0.00    +0.019 A 
ATOM     28  C   UNL     1      -1.047  -4.006   5.170  0.00  0.00    +0.008 A 
ATOM     29  C   UNL     1      -1.611  -5.052   4.506  0.00  0.00    +0.046 A 
ATOM     30  S   UNL     1      -1.676  -4.493   2.867  0.00  0.00    -0.094 S 
ENDBRANCH  24  26
ENDBRANCH   7  24
TORSDOF 6
