REMARK  Name = ZINC39440445
REMARK  10 active torsions:
REMARK  status: ('A' for Active; 'I' for Inactive)
REMARK    1  A    between atoms: C_1  and  C_2
REMARK    2  A    between atoms: C_4  and  C_30
REMARK    3  A    between atoms: C_8  and  C_12
REMARK    4  A    between atoms: C_12  and  S_13
REMARK    5  A    between atoms: S_13  and  C_14
REMARK    6  A    between atoms: C_14  and  C_16
REMARK    7  A    between atoms: C_14  and  C_17
REMARK    8  A    between atoms: C_23  and  S_25
REMARK    9  A    between atoms: S_25  and  C_26
REMARK   10  A    between atoms: C_26  and  C_27
REMARK                            x       y       z     vdW  Elec       q    Type
REMARK                         _______ _______ _______ _____ _____    ______ ____
ROOT
ATOM      1  C   UNL     1      -4.029  -5.250   6.260  0.00  0.00    +0.130 C 
ATOM      2  C   UNL     1      -3.853  -4.309   7.454  0.00  0.00    +0.029 C 
ENDROOT
BRANCH   1   3
ATOM      3  C   UNL     1      -5.363  -5.944   6.359  0.00  0.00    +0.231 C 
ATOM      4  O   UNL     1      -6.304  -5.546   5.705  0.00  0.00    -0.274 OA
ATOM      5  N   UNL     1      -5.511  -7.007   7.175  0.00  0.00    -0.262 N 
ATOM      6  C   UNL     1      -6.744  -7.648   7.267  0.00  0.00    +0.189 A 
ATOM      7  N   UNL     1      -7.885  -7.390   6.649  0.00  0.00    -0.125 NA
ATOM      8  N   UNL     1      -8.923  -8.078   6.847  0.00  0.00    -0.133 NA
ATOM      9  C   UNL     1      -8.935  -9.102   7.688  0.00  0.00    +0.160 A 
ATOM     10  S   UNL     1      -7.235  -9.062   8.249  0.00  0.00    -0.024 S 
ATOM     11  H   UNL     1      -4.759  -7.325   7.698  0.00  0.00    +0.157 HD
BRANCH   9  12
ATOM     12  S   UNL     1     -10.247 -10.194   8.125  0.00  0.00    -0.093 S 
BRANCH  12  13
ATOM     13  C   UNL     1     -11.653  -9.607   7.141  0.00  0.00    +0.103 C 
BRANCH  13  14
ATOM     14  C   UNL     1     -12.858 -10.466   7.423  0.00  0.00    -0.023 C 
ATOM     15  C   UNL     1     -13.912  -9.947   8.003  0.00  0.00    +0.005 C 
ENDBRANCH  13  14
ENDBRANCH  12  13
ENDBRANCH   9  12
ENDBRANCH   1   3
BRANCH   1  16
ATOM     16  S   UNL     1      -3.959  -4.293   4.721  0.00  0.00    -0.141 S 
BRANCH  16  17
ATOM     17  C   UNL     1      -2.262  -3.654   4.678  0.00  0.00    +0.143 C 
BRANCH  17  24
ATOM     18  C   UNL     1      -0.019   1.526   0.010  0.00  0.00    +0.024 C 
ATOM     19  C   UNL     1       0.002  -0.004   0.002  0.00  0.00    +0.076 C 
ATOM     20  C   UNL     1      -1.399  -0.565   0.089  0.00  0.00    -0.045 C 
ATOM     21  C   UNL     1      -1.704  -1.321   1.155  0.00  0.00    +0.071 C 
ATOM     22  C   UNL     1      -0.645  -1.546   2.162  0.00  0.00    +0.111 C 
ATOM     23  N   UNL     1      -0.881  -2.276   3.226  0.00  0.00    -0.227 NA
ATOM     24  C   UNL     1      -2.066  -2.829   3.432  0.00  0.00    +0.133 C 
ATOM     25  N   UNL     1      -3.079  -2.698   2.609  0.00  0.00    -0.161 NA
ATOM     26  C   UNL     1      -3.005  -1.988   1.478  0.00  0.00    +0.271 C 
ATOM     27  O   UNL     1      -3.966  -1.886   0.735  0.00  0.00    -0.268 OA
ATOM     28  S   UNL     1       0.764  -0.661   1.541  0.00  0.00    -0.098 S 
ATOM     29  C   UNL     1      -2.419  -0.284  -0.984  0.00  0.00    +0.041 C 
ENDBRANCH  17  24
ENDBRANCH  16  17
ENDBRANCH   1  16
TORSDOF 7
