REMARK  Name = ZINC36365849
REMARK  8 active torsions:
REMARK  status: ('A' for Active; 'I' for Inactive)
REMARK    1  A    between atoms: C_1  and  O_2
REMARK    2  A    between atoms: O_2  and  C_3
REMARK    3  A    between atoms: C_9  and  C_13
REMARK    4  A    between atoms: C_13  and  C_14
REMARK    5  A    between atoms: C_14  and  N_15
REMARK    6  A    between atoms: C_16  and  C_31
REMARK    7  A    between atoms: C_19  and  C_26
REMARK    8  A    between atoms: C_34  and  O_37
REMARK                            x       y       z     vdW  Elec       q    Type
REMARK                         _______ _______ _______ _____ _____    ______ ____
ROOT
ATOM      1  N   UNL     1      -0.693  -6.772   1.433  0.00  0.00    -0.285 N 
ATOM      2  C   UNL     1      -1.128  -8.170   1.532  0.00  0.00    +0.141 C 
ATOM      3  C   UNL     1       0.121  -9.006   1.480  0.00  0.00    +0.038 A 
ATOM      4  C   UNL     1       0.674 -10.250   1.498  0.00  0.00    +0.107 A 
ATOM      5  N   UNL     1       2.026 -10.078   1.390  0.00  0.00    -0.273 N 
ATOM      6  H   UNL     1       2.680 -10.794   1.376  0.00  0.00    +0.189 HD
ATOM      7  N   UNL     1       2.303  -8.825   1.309  0.00  0.00    -0.168 NA
ATOM      8  C   UNL     1       1.200  -8.103   1.357  0.00  0.00    +0.153 A 
ATOM      9  C   UNL     1       0.646  -6.737   1.327  0.00  0.00    +0.268 C 
ATOM     10  O   UNL     1       1.308  -5.723   1.224  0.00  0.00    -0.268 OA
ENDROOT
BRANCH   2  11
ATOM     11  C   UNL     1      -1.849  -8.396   2.836  0.00  0.00    -0.022 A 
ATOM     12  C   UNL     1      -1.386  -7.798   3.994  0.00  0.00    +0.009 A 
ATOM     13  C   UNL     1      -2.045  -8.005   5.190  0.00  0.00    +0.046 A 
ATOM     14  C   UNL     1      -3.173  -8.812   5.229  0.00  0.00    +0.117 A 
ATOM     15  C   UNL     1      -3.635  -9.411   4.066  0.00  0.00    +0.046 A 
ATOM     16  C   UNL     1      -2.976  -9.197   2.872  0.00  0.00    +0.009 A 
BRANCH  14  17
ATOM     17  O   UNL     1      -3.823  -9.017   6.405  0.00  0.00    -0.507 OA
ATOM     18  H   UNL     1      -4.520  -8.372   6.587  0.00  0.00    +0.292 HD
ENDBRANCH  14  17
ENDBRANCH   2  11
BRANCH   4  19
ATOM     19  C   UNL     1      -0.044 -11.531   1.614  0.00  0.00    +0.153 A 
ATOM     20  C   UNL     1       0.191 -12.649   0.871  0.00  0.00    +0.051 A 
ATOM     21  C   UNL     1      -0.720 -13.628   1.314  0.00  0.00    +0.042 A 
ATOM     22  C   UNL     1      -1.458 -13.068   2.293  0.00  0.00    +0.196 A 
ATOM     23  O   UNL     1      -1.043 -11.804   2.476  0.00  0.00    -0.461 OA
ENDBRANCH   4  19
BRANCH   1  24
ATOM     24  C   UNL     1      -1.577  -5.603   1.442  0.00  0.00    +0.114 C 
BRANCH  24  25
ATOM     25  C   UNL     1      -1.996  -5.270   0.008  0.00  0.00    +0.056 C 
BRANCH  25  32
ATOM     26  C   UNL     1      -1.201  -0.638   0.010  0.00  0.00    +0.121 A 
ATOM     27  C   UNL     1      -2.377   0.107   0.019  0.00  0.00    +0.047 A 
ATOM     28  C   UNL     1      -3.604  -0.518   0.027  0.00  0.00    +0.030 A 
ATOM     29  C   UNL     1      -3.676  -1.907   0.026  0.00  0.00    +0.047 A 
ATOM     30  C   UNL     1      -2.490  -2.663   0.016  0.00  0.00    +0.006 A 
ATOM     31  C   UNL     1      -1.251  -2.017   0.003  0.00  0.00    +0.056 A 
ATOM     32  C   UNL     1      -2.904  -4.068   0.017  0.00  0.00    -0.021 A 
ATOM     33  C   UNL     1      -4.247  -4.082   0.027  0.00  0.00    +0.087 A 
ATOM     34  N   UNL     1      -4.726  -2.801   0.032  0.00  0.00    -0.360 N 
ATOM     35  H   UNL     1      -5.665  -2.557   0.040  0.00  0.00    +0.165 HD
BRANCH  26  37
ATOM     36  C   UNL     1      -0.017   1.425   0.010  0.00  0.00    +0.277 C 
ATOM     37  O   UNL     1       0.002  -0.004   0.002  0.00  0.00    -0.495 OA
ENDBRANCH  26  37
ENDBRANCH  25  32
ENDBRANCH  24  25
ENDBRANCH   1  24
TORSDOF 7
