REMARK  Name = ZINC63349385
REMARK  7 active torsions:
REMARK  status: ('A' for Active; 'I' for Inactive)
REMARK    1  A    between atoms: C_1  and  C_2
REMARK    2  A    between atoms: C_2  and  C_3
REMARK    3  A    between atoms: C_8  and  N_9
REMARK    4  A    between atoms: C_10  and  C_12
REMARK    5  A    between atoms: C_12  and  S_13
REMARK    6  A    between atoms: S_13  and  C_14
REMARK    7  A    between atoms: N_24  and  C_25
REMARK                            x       y       z     vdW  Elec       q    Type
REMARK                         _______ _______ _______ _____ _____    ______ ____
ROOT
ATOM      1  C   UNL     1      -5.879  -0.428   5.245  0.00  0.00    +0.258 C 
ATOM      2  N   UNL     1      -6.477  -1.236   4.175  0.00  0.00    -0.242 NA
ATOM      3  C   UNL     1      -6.995  -0.444   3.299  0.00  0.00    +0.165 C 
ATOM      4  C   UNL     1      -6.790   0.969   3.707  0.00  0.00    +0.160 C 
ATOM      5  N   UNL     1      -7.262   1.917   2.918  0.00  0.00    -0.221 NA
ATOM      6  C   UNL     1      -7.902   1.634   1.794  0.00  0.00    +0.213 C 
ATOM      7  N   UNL     1      -8.133   0.424   1.348  0.00  0.00    -0.163 NA
ATOM      8  C   UNL     1      -7.726  -0.667   2.018  0.00  0.00    +0.290 C 
ATOM      9  O   UNL     1      -7.945  -1.789   1.598  0.00  0.00    -0.266 OA
ATOM     10  N   UNL     1      -6.112   0.979   4.889  0.00  0.00    -0.252 N 
ENDROOT
BRANCH  10  11
ATOM     11  C   UNL     1      -5.716   2.102   5.619  0.00  0.00    +0.038 A 
ATOM     12  C   UNL     1      -5.021   1.948   6.812  0.00  0.00    +0.023 A 
ATOM     13  C   UNL     1      -4.631   3.061   7.531  0.00  0.00    +0.002 A 
ATOM     14  C   UNL     1      -4.933   4.327   7.064  0.00  0.00    +0.000 A 
ATOM     15  C   UNL     1      -5.625   4.484   5.877  0.00  0.00    +0.002 A 
ATOM     16  C   UNL     1      -6.011   3.376   5.150  0.00  0.00    +0.023 A 
ENDBRANCH  10  11
BRANCH   1  17
ATOM     17  S   UNL     1      -4.098  -0.756   5.349  0.00  0.00    -0.106 S 
BRANCH  17  18
ATOM     18  C   UNL     1      -3.478  -0.347   3.694  0.00  0.00    +0.168 C 
BRANCH  18  20
ATOM     19  N   UNL     1      -1.309  -0.339   2.505  0.00  0.00    -0.285 N 
ATOM     20  C   UNL     1      -1.990  -0.578   3.643  0.00  0.00    +0.227 C 
ATOM     21  O   UNL     1      -1.405  -0.980   4.627  0.00  0.00    -0.275 OA
ATOM     22  H   UNL     1      -1.764   0.044   1.739  0.00  0.00    +0.155 HD
BRANCH  19  28
ATOM     23  C   UNL     1       0.600  -1.100   1.236  0.00  0.00    -0.026 A 
ATOM     24  C   UNL     1       1.948  -1.393   1.163  0.00  0.00    +0.005 A 
ATOM     25  C   UNL     1       2.753  -1.237   2.276  0.00  0.00    +0.000 A 
ATOM     26  C   UNL     1       2.212  -0.786   3.466  0.00  0.00    +0.002 A 
ATOM     27  C   UNL     1       0.865  -0.491   3.546  0.00  0.00    +0.023 A 
ATOM     28  C   UNL     1       0.055  -0.642   2.429  0.00  0.00    +0.037 A 
BRANCH  23  30
ATOM     29  C   UNL     1      -0.393   0.066  -0.714  0.00  0.00    +0.009 C 
ATOM     30  C   UNL     1      -0.277  -1.270   0.022  0.00  0.00    +0.033 C 
ENDBRANCH  23  30
ENDBRANCH  19  28
ENDBRANCH  18  20
ENDBRANCH  17  18
ENDBRANCH   1  17
TORSDOF 6
