REMARK  Name = ZINC66123474
REMARK  8 active torsions:
REMARK  status: ('A' for Active; 'I' for Inactive)
REMARK    1  A    between atoms: C_1  and  C_2
REMARK    2  A    between atoms: C_2  and  C_3
REMARK    3  A    between atoms: C_2  and  C_4
REMARK    4  A    between atoms: C_9  and  N_10
REMARK    5  A    between atoms: N_10  and  C_11
REMARK    6  A    between atoms: C_11  and  N_13
REMARK    7  A    between atoms: N_13  and  N_14
REMARK    8  A    between atoms: C_15  and  C_17
REMARK                            x       y       z     vdW  Elec       q    Type
REMARK                         _______ _______ _______ _____ _____    ______ ____
ROOT
ATOM      1  N   UNL     1       4.007  -2.314   1.562  0.00  0.00    -0.245 N 
ATOM      2  H   UNL     1       4.873  -2.737   1.672  0.00  0.00    +0.172 HD
ENDROOT
BRANCH   1   3
ATOM      3  N   UNL     1       3.216  -2.036   2.684  0.00  0.00    -0.231 N 
ATOM      4  C   UNL     1       3.658  -2.355   3.917  0.00  0.00    +0.260 C 
ATOM      5  O   UNL     1       4.743  -2.885   4.055  0.00  0.00    -0.269 OA
ATOM      6  H   UNL     1       2.350  -1.613   2.574  0.00  0.00    +0.173 HD
BRANCH   4   7
ATOM      7  C   UNL     1       2.823  -2.061   5.101  0.00  0.00    +0.039 A 
ATOM      8  C   UNL     1       1.573  -1.458   4.945  0.00  0.00    +0.013 A 
ATOM      9  C   UNL     1       0.798  -1.186   6.053  0.00  0.00    +0.007 A 
ATOM     10  C   UNL     1       1.256  -1.510   7.316  0.00  0.00    -0.017 A 
ATOM     11  C   UNL     1       2.497  -2.109   7.477  0.00  0.00    -0.016 A 
ATOM     12  C   UNL     1       3.278  -2.391   6.379  0.00  0.00    +0.019 A 
ATOM     13  C   UNL     1       2.698  -2.331   8.959  0.00  0.00    +0.195 C 
ATOM     14  O   UNL     1       1.750  -1.473   9.620  0.00  0.00    -0.371 OA
ATOM     15  C   UNL     1       0.656  -1.344   8.693  0.00  0.00    +0.195 C 
ENDBRANCH   4   7
ENDBRANCH   1   3
BRANCH   1  16
ATOM     16  C   UNL     1       3.565  -1.995   0.330  0.00  0.00    +0.151 C 
ATOM     17  S   UNL     1       4.532  -2.336  -1.042  0.00  0.00    -0.017 S 
BRANCH  16  18
ATOM     18  N   UNL     1       2.362  -1.407   0.176  0.00  0.00    -0.296 N 
ATOM     19  H   UNL     1       1.841  -1.157   0.956  0.00  0.00    +0.154 HD
BRANCH  18  25
ATOM     20  C   UNL     1       0.557  -1.508  -1.425  0.00  0.00    -0.024 A 
ATOM     21  C   UNL     1       0.066  -1.256  -2.692  0.00  0.00    +0.006 A 
ATOM     22  C   UNL     1       0.875  -0.662  -3.643  0.00  0.00    +0.000 A 
ATOM     23  C   UNL     1       2.177  -0.318  -3.330  0.00  0.00    +0.002 A 
ATOM     24  C   UNL     1       2.674  -0.567  -2.066  0.00  0.00    +0.023 A 
ATOM     25  C   UNL     1       1.863  -1.159  -1.107  0.00  0.00    +0.036 A 
BRANCH  20  27
ATOM     26  C   UNL     1      -1.536  -1.260  -0.119  0.00  0.00    +0.012 C 
ATOM     27  C   UNL     1      -0.325  -2.156  -0.389  0.00  0.00    +0.015 C 
ATOM     28  C   UNL     1      -0.801  -3.516  -0.903  0.00  0.00    +0.012 C 
ENDBRANCH  20  27
ENDBRANCH  18  25
ENDBRANCH  16  18
ENDBRANCH   1  16
TORSDOF 6
