REMARK  Name = ZINC39652624
REMARK  9 active torsions:
REMARK  status: ('A' for Active; 'I' for Inactive)
REMARK    1  A    between atoms: C_1  and  C_2
REMARK    2  A    between atoms: C_2  and  O_3
REMARK    3  A    between atoms: O_3  and  C_4
REMARK    4  A    between atoms: C_9  and  C_10
REMARK    5  A    between atoms: C_10  and  C_11
REMARK    6  A    between atoms: C_11  and  N_12
REMARK    7  A    between atoms: C_13  and  C_15
REMARK    8  A    between atoms: C_26  and  C_28
REMARK    9  A    between atoms: C_33  and  C_34
REMARK                            x       y       z     vdW  Elec       q    Type
REMARK                         _______ _______ _______ _____ _____    ______ ____
ROOT
ATOM      1  C   UNL     1      -7.271   1.883  -2.451  0.00  0.00    +0.100 C 
ATOM      2  C   UNL     1      -8.362   0.883  -2.005  0.00  0.00    +0.121 C 
ATOM      3  N   UNL     1      -9.518   1.173  -2.886  0.00  0.00    -0.296 N 
ATOM      4  C   UNL     1      -8.912   1.440  -4.213  0.00  0.00    +0.115 C 
ATOM      5  C   UNL     1      -7.635   2.245  -3.901  0.00  0.00    -0.004 C 
ATOM      6  C   UNL     1      -6.510   1.836  -4.846  0.00  0.00    -0.010 C 
ATOM      7  C   UNL     1      -6.869   2.259  -6.273  0.00  0.00    -0.082 C 
ATOM      8  N   UNL     1      -7.071   3.712  -6.319  0.00  0.00    +0.379 N 
ATOM      9  C   UNL     1      -8.215   4.086  -5.479  0.00  0.00    -0.082 C 
ATOM     10  C   UNL     1      -7.912   3.741  -4.018  0.00  0.00    -0.010 C 
ATOM     11  C   UNL     1     -10.824   1.191  -2.556  0.00  0.00    +0.247 C 
ATOM     12  O   UNL     1     -11.667   1.349  -3.417  0.00  0.00    -0.270 OA
ATOM     13  H   UNL     1      -6.241   4.176  -5.981  0.00  0.00    -0.086 HD
ATOM     14  H   UNL     1      -7.247   3.996  -7.271  0.00  0.00    -0.086 HD
ENDROOT
BRANCH  11  15
ATOM     15  C   UNL     1     -11.232   1.019  -1.145  0.00  0.00    +0.049 A 
ATOM     16  C   UNL     1     -10.533   0.142  -0.315  0.00  0.00    +0.013 A 
ATOM     17  C   UNL     1     -10.918  -0.013   1.000  0.00  0.00    +0.001 A 
ATOM     18  C   UNL     1     -11.996   0.698   1.497  0.00  0.00    +0.001 A 
ATOM     19  C   UNL     1     -12.694   1.569   0.679  0.00  0.00    +0.013 A 
ATOM     20  C   UNL     1     -12.315   1.738  -0.636  0.00  0.00    +0.067 A 
BRANCH  20  21
ATOM     21  C   UNL     1     -13.072   2.692  -1.524  0.00  0.00    +0.418 C 
ATOM     22  F   UNL     1     -14.105   3.288  -0.793  0.00  0.00    -0.166 F 
ATOM     23  F   UNL     1     -12.203   3.681  -1.995  0.00  0.00    -0.166 F 
ATOM     24  F   UNL     1     -13.612   1.991  -2.608  0.00  0.00    -0.166 F 
ENDBRANCH  20  21
ENDBRANCH  11  15
BRANCH   1  26
ATOM     25  N   UNL     1      -4.816   1.984  -2.162  0.00  0.00    -0.315 N 
ATOM     26  C   UNL     1      -5.912   1.235  -2.398  0.00  0.00    +0.218 C 
ATOM     27  O   UNL     1      -5.803   0.039  -2.567  0.00  0.00    -0.275 OA
ATOM     28  H   UNL     1      -4.903   2.941  -2.026  0.00  0.00    +0.149 HD
BRANCH  25  29
ATOM     29  C   UNL     1      -3.495   1.354  -2.110  0.00  0.00    +0.109 C 
BRANCH  29  30
ATOM     30  C   UNL     1      -2.433   2.418  -1.830  0.00  0.00    +0.057 C 
BRANCH  30  36
ATOM     31  C   UNL     1      -0.360   1.557  -2.947  0.00  0.00    +0.124 A 
ATOM     32  C   UNL     1       0.894   0.964  -2.894  0.00  0.00    +0.046 A 
ATOM     33  C   UNL     1       1.426   0.584  -1.677  0.00  0.00    +0.004 A 
ATOM     34  C   UNL     1       0.710   0.793  -0.512  0.00  0.00    +0.000 A 
ATOM     35  C   UNL     1      -0.539   1.382  -0.563  0.00  0.00    +0.007 A 
ATOM     36  C   UNL     1      -1.073   1.770  -1.776  0.00  0.00    -0.004 A 
BRANCH  31  37
ATOM     37  O   UNL     1      -0.885   1.932  -4.142  0.00  0.00    -0.492 OA
BRANCH  37  39
ATOM     38  C   UNL     1      -0.845   2.169  -6.547  0.00  0.00    +0.048 C 
ATOM     39  C   UNL     1      -0.094   1.682  -5.306  0.00  0.00    +0.225 C 
ENDBRANCH  37  39
ENDBRANCH  31  37
ENDBRANCH  30  36
ENDBRANCH  29  30
ENDBRANCH  25  29
ENDBRANCH   1  26
TORSDOF 8
