REMARK  Name = ZINC11972138
REMARK  10 active torsions:
REMARK  status: ('A' for Active; 'I' for Inactive)
REMARK    1  A    between atoms: C_1  and  C_2
REMARK    2  A    between atoms: C_3  and  C_4
REMARK    3  A    between atoms: C_4  and  N_5
REMARK    4  A    between atoms: C_8  and  C_12
REMARK    5  A    between atoms: C_8  and  C_20
REMARK    6  A    between atoms: C_12  and  C_13
REMARK    7  A    between atoms: C_13  and  C_14
REMARK    8  A    between atoms: C_25  and  C_26
REMARK    9  A    between atoms: C_25  and  N_70
REMARK   10  A    between atoms: C_31  and  C_32
REMARK                            x       y       z     vdW  Elec       q    Type
REMARK                         _______ _______ _______ _____ _____    ______ ____
ROOT
ATOM      1  N   UNL     1      -1.035   2.785   5.602  0.00  0.00    -0.212 N 
ATOM      2  C   UNL     1      -1.360   1.623   6.202  0.00  0.00    +0.248 C 
ATOM      3  O   UNL     1      -2.311   0.912   5.955  0.00  0.00    -0.273 OA
ATOM      4  C   UNL     1      -0.288   1.387   7.247  0.00  0.00    +0.115 C 
ATOM      5  N   UNL     1       0.596   2.557   7.107  0.00  0.00    -0.285 N 
ATOM      6  C   UNL     1       0.078   3.314   6.123  0.00  0.00    +0.310 C 
ATOM      7  O   UNL     1       0.567   4.363   5.749  0.00  0.00    -0.252 OA
ATOM      8  H   UNL     1       1.396   2.745   7.623  0.00  0.00    +0.151 HD
ENDROOT
BRANCH   4   9
ATOM      9  C   UNL     1       0.479   0.095   6.956  0.00  0.00    +0.018 C 
ATOM     10  C   UNL     1       1.638  -0.047   7.947  0.00  0.00    -0.013 C 
ATOM     11  C   UNL     1       2.437  -1.308   7.613  0.00  0.00    -0.078 C 
ATOM     12  C   UNL     1       1.857  -1.124   5.268  0.00  0.00    -0.078 C 
ATOM     13  C   UNL     1       1.040   0.143   5.532  0.00  0.00    -0.013 C 
ATOM     14  N   UNL     1       2.969  -1.189   6.239  0.00  0.00    +0.382 N 
ATOM     15  H   UNL     1       3.522  -0.326   6.170  0.00  0.00    -0.081 HD
BRANCH  14  16
ATOM     16  C   UNL     1       3.840  -2.343   5.933  0.00  0.00    -0.042 C 
BRANCH  16  17
ATOM     17  C   UNL     1       5.136  -2.183   6.685  0.00  0.00    -0.053 A 
ATOM     18  C   UNL     1       5.395  -2.968   7.790  0.00  0.00    +0.002 A 
ATOM     19  C   UNL     1       6.587  -2.826   8.479  0.00  0.00    +0.000 A 
ATOM     20  C   UNL     1       7.521  -1.890   8.072  0.00  0.00    +0.001 A 
ATOM     21  C   UNL     1       7.272  -1.095   6.972  0.00  0.00    +0.012 A 
ATOM     22  C   UNL     1       6.074  -1.237   6.269  0.00  0.00    +0.019 A 
BRANCH  22  23
ATOM     23  C   UNL     1       5.800  -0.389   5.091  0.00  0.00    +0.135 A 
ATOM     24  C   UNL     1       5.811   0.971   5.066  0.00  0.00    +0.050 A 
ATOM     25  C   UNL     1       5.501   1.355   3.746  0.00  0.00    +0.042 A 
ATOM     26  C   UNL     1       5.309   0.224   3.040  0.00  0.00    +0.196 A 
ATOM     27  O   UNL     1       5.491  -0.828   3.856  0.00  0.00    -0.463 OA
ENDBRANCH  22  23
ENDBRANCH  16  17
ENDBRANCH  14  16
ENDBRANCH   4   9
BRANCH   1  28
ATOM     28  C   UNL     1      -1.808   3.396   4.518  0.00  0.00    +0.206 C 
BRANCH  28  31
ATOM     29  C   UNL     1      -0.396   2.044   0.894  0.00  0.00    +0.106 C 
ATOM     30  C   UNL     1      -0.901   2.527   2.189  0.00  0.00    -0.104 C 
ATOM     31  C   UNL     1      -1.303   2.913   3.223  0.00  0.00    -0.083 C 
ENDBRANCH  28  31
ENDBRANCH   1  28
BRANCH   4  32
ATOM     32  C   UNL     1      -0.903   1.341   8.647  0.00  0.00    +0.040 C 
BRANCH  32  33
ATOM     33  C   UNL     1      -1.707   2.620   8.893  0.00  0.00    +0.038 C 
BRANCH  33  34
ATOM     34  C   UNL     1      -2.313   2.575  10.272  0.00  0.00    -0.047 A 
ATOM     35  C   UNL     1      -3.570   2.031  10.457  0.00  0.00    +0.003 A 
ATOM     36  C   UNL     1      -4.124   1.986  11.722  0.00  0.00    +0.000 A 
ATOM     37  C   UNL     1      -3.425   2.494  12.801  0.00  0.00    +0.000 A 
ATOM     38  C   UNL     1      -2.170   3.042  12.616  0.00  0.00    +0.000 A 
ATOM     39  C   UNL     1      -1.614   3.083  11.351  0.00  0.00    +0.003 A 
ENDBRANCH  33  34
ENDBRANCH  32  33
ENDBRANCH   4  32
TORSDOF 9
