REMARK  Name = ZINC39609425
REMARK  9 active torsions:
REMARK  status: ('A' for Active; 'I' for Inactive)
REMARK    1  A    between atoms: C_1  and  C_2
REMARK    2  A    between atoms: C_2  and  O_3
REMARK    3  A    between atoms: O_3  and  C_4
REMARK    4  A    between atoms: C_8  and  C_10
REMARK    5  A    between atoms: C_10  and  C_11
REMARK    6  A    between atoms: C_11  and  N_12
REMARK    7  A    between atoms: C_13  and  C_15
REMARK    8  A    between atoms: C_26  and  C_28
REMARK    9  A    between atoms: C_34  and  C_36
REMARK                            x       y       z     vdW  Elec       q    Type
REMARK                         _______ _______ _______ _____ _____    ______ ____
ROOT
ATOM      1  C   UNL     1       1.880  -5.827  -8.463  0.00  0.00    +0.100 C 
ATOM      2  C   UNL     1       2.577  -7.161  -8.113  0.00  0.00    +0.121 C 
ATOM      3  N   UNL     1       1.601  -8.207  -8.499  0.00  0.00    -0.299 N 
ATOM      4  C   UNL     1       1.010  -7.710  -9.765  0.00  0.00    +0.115 C 
ATOM      5  C   UNL     1       0.855  -6.191  -9.550  0.00  0.00    -0.004 C 
ATOM      6  C   UNL     1       1.166  -5.441 -10.842  0.00  0.00    -0.010 C 
ATOM      7  C   UNL     1       0.100  -5.774 -11.890  0.00  0.00    -0.082 C 
ATOM      8  N   UNL     1      -1.224  -5.390 -11.383  0.00  0.00    +0.379 N 
ATOM      9  C   UNL     1      -1.554  -6.184 -10.193  0.00  0.00    -0.082 C 
ATOM     10  C   UNL     1      -0.558  -5.868  -9.074  0.00  0.00    -0.010 C 
ATOM     11  C   UNL     1       1.314  -9.351  -7.846  0.00  0.00    +0.236 C 
ATOM     12  O   UNL     1       0.483 -10.112  -8.294  0.00  0.00    -0.274 OA
ATOM     13  H   UNL     1      -1.218  -4.410 -11.142  0.00  0.00    -0.086 HD
ATOM     14  H   UNL     1      -1.917  -5.554 -12.098  0.00  0.00    -0.086 HD
ENDROOT
BRANCH  11  15
ATOM     15  C   UNL     1       2.027  -9.684  -6.561  0.00  0.00    +0.162 C 
ATOM     16  C   UNL     1       3.421 -10.270  -6.871  0.00  0.00    +0.033 C 
ATOM     17  C   UNL     1       3.577 -11.382  -5.800  0.00  0.00    +0.021 C 
ATOM     18  C   UNL     1       2.125 -11.909  -5.686  0.00  0.00    +0.109 C 
ATOM     19  N   UNL     1       1.274 -10.709  -5.823  0.00  0.00    -0.283 N 
ATOM     20  C   UNL     1       0.019 -10.573  -5.351  0.00  0.00    +0.320 C 
ATOM     21  O   UNL     1      -0.585  -9.536  -5.524  0.00  0.00    -0.266 OA
BRANCH  20  22
ATOM     22  C   UNL     1      -0.633 -11.711  -4.608  0.00  0.00    +0.470 C 
ATOM     23  F   UNL     1      -1.924 -11.335  -4.221  0.00  0.00    -0.162 F 
ATOM     24  F   UNL     1      -0.705 -12.832  -5.442  0.00  0.00    -0.162 F 
ATOM     25  F   UNL     1       0.123 -12.021  -3.473  0.00  0.00    -0.162 F 
ENDBRANCH  20  22
ENDBRANCH  11  15
BRANCH   1  27
ATOM     26  N   UNL     1       1.011  -3.934  -7.130  0.00  0.00    -0.315 N 
ATOM     27  C   UNL     1       1.183  -5.265  -7.251  0.00  0.00    +0.218 C 
ATOM     28  O   UNL     1       0.776  -6.011  -6.386  0.00  0.00    -0.275 OA
ATOM     29  H   UNL     1       1.336  -3.338  -7.822  0.00  0.00    +0.149 HD
BRANCH  26  30
ATOM     30  C   UNL     1       0.333  -3.388  -5.952  0.00  0.00    +0.109 C 
BRANCH  30  31
ATOM     31  C   UNL     1       0.270  -1.863  -6.061  0.00  0.00    +0.054 C 
BRANCH  31  36
ATOM     32  C   UNL     1      -2.440  -0.610  -3.744  0.00  0.00    +0.121 A 
ATOM     33  C   UNL     1      -1.703  -0.268  -2.619  0.00  0.00    +0.045 A 
ATOM     34  C   UNL     1      -0.333  -0.443  -2.614  0.00  0.00    +0.004 A 
ATOM     35  C   UNL     1       0.304  -0.960  -3.727  0.00  0.00    +0.004 A 
ATOM     36  C   UNL     1      -0.428  -1.301  -4.849  0.00  0.00    -0.042 A 
ATOM     37  C   UNL     1      -1.799  -1.133  -4.858  0.00  0.00    +0.049 A 
BRANCH  32  38
ATOM     38  O   UNL     1      -3.788  -0.439  -3.752  0.00  0.00    -0.492 OA
BRANCH  38  40
ATOM     39  C   UNL     1      -5.893   0.223  -2.767  0.00  0.00    +0.048 C 
ATOM     40  C   UNL     1      -4.380   0.104  -2.571  0.00  0.00    +0.225 C 
ENDBRANCH  38  40
ENDBRANCH  32  38
ENDBRANCH  31  36
ENDBRANCH  30  31
ENDBRANCH  26  30
ENDBRANCH   1  27
TORSDOF 8
