REMARK  Name = ZINC06089908
REMARK  14 active torsions:
REMARK  status: ('A' for Active; 'I' for Inactive)
REMARK    1  A    between atoms: C_1  and  C_2
REMARK    2  A    between atoms: C_2  and  O_3
REMARK    3  A    between atoms: O_3  and  C_4
REMARK    4  A    between atoms: C_7  and  N_10
REMARK    5  A    between atoms: N_10  and  C_11
REMARK    6  A    between atoms: C_11  and  N_13
REMARK    7  A    between atoms: N_13  and  C_14
REMARK    8  A    between atoms: N_13  and  C_19
REMARK    9  A    between atoms: C_14  and  C_15
REMARK   10  A    between atoms: C_15  and  C_16
REMARK   11  A    between atoms: C_16  and  N_64
REMARK   12  A    between atoms: C_17  and  N_64
REMARK   13  A    between atoms: C_18  and  N_64
REMARK   14  A    between atoms: C_19  and  C_20
REMARK                            x       y       z     vdW  Elec       q    Type
REMARK                         _______ _______ _______ _____ _____    ______ ____
ROOT
ATOM      1  N   UNL     1       1.315   3.728   1.557  0.00  0.00    -0.308 N 
ENDROOT
BRANCH   1   2
ATOM      2  C   UNL     1       0.233   3.988   2.318  0.00  0.00    +0.137 C 
ATOM      3  S   UNL     1      -1.283   3.306   1.910  0.00  0.00    -0.018 S 
BRANCH   2   4
ATOM      4  N   UNL     1       0.345   4.784   3.400  0.00  0.00    -0.297 N 
ATOM      5  H   UNL     1       1.215   5.121   3.666  0.00  0.00    +0.154 HD
BRANCH   4   9
ATOM      6  C   UNL     1      -3.046   5.796   5.605  0.00  0.00    +0.121 A 
ATOM      7  C   UNL     1      -2.845   4.482   5.205  0.00  0.00    +0.047 A 
ATOM      8  C   UNL     1      -1.722   4.147   4.475  0.00  0.00    +0.027 A 
ATOM      9  C   UNL     1      -0.795   5.124   4.140  0.00  0.00    +0.033 A 
ATOM     10  C   UNL     1      -0.994   6.437   4.544  0.00  0.00    +0.027 A 
ATOM     11  C   UNL     1      -2.120   6.773   5.270  0.00  0.00    +0.047 A 
BRANCH   6  12
ATOM     12  O   UNL     1      -4.152   6.126   6.324  0.00  0.00    -0.492 OA
BRANCH  12  14
ATOM     13  C   UNL     1      -5.589   7.673   7.499  0.00  0.00    +0.048 C 
ATOM     14  C   UNL     1      -4.295   7.496   6.702  0.00  0.00    +0.225 C 
ENDBRANCH  12  14
ENDBRANCH   6  12
ENDBRANCH   4   9
ENDBRANCH   2   4
ENDBRANCH   1   2
BRANCH   1  15
ATOM     15  C   UNL     1       2.613   4.312   1.906  0.00  0.00    +0.105 C 
BRANCH  15  16
ATOM     16  C   UNL     1       2.767   5.666   1.211  0.00  0.00    +0.000 C 
BRANCH  16  17
ATOM     17  C   UNL     1       4.122   6.275   1.576  0.00  0.00    -0.078 C 
BRANCH  17  20
ATOM     18  C   UNL     1       5.444   8.297   1.415  0.00  0.00    -0.097 C 
ATOM     19  C   UNL     1       4.340   7.414  -0.550  0.00  0.00    -0.097 C 
ATOM     20  N   UNL     1       4.246   7.591   0.914  0.00  0.00    +0.376 N 
ATOM     21  H   UNL     1       3.414   8.153   1.130  0.00  0.00    -0.083 HD
ENDBRANCH  17  20
ENDBRANCH  16  17
ENDBRANCH  15  16
ENDBRANCH   1  15
BRANCH   1  22
ATOM     22  C   UNL     1       1.193   2.863   0.382  0.00  0.00    +0.147 C 
BRANCH  22  23
ATOM     23  C   UNL     1       1.445   1.432   0.783  0.00  0.00    +0.035 A 
ATOM     24  C   UNL     1       0.400   0.621   1.086  0.00  0.00    +0.020 A 
ATOM     25  C   UNL     1       0.677  -0.762   1.471  0.00  0.00    +0.003 A 
ATOM     26  C   UNL     1      -0.362  -1.644   1.794  0.00  0.00    +0.059 A 
ATOM     27  C   UNL     1      -0.070  -2.941   2.152  0.00  0.00    +0.167 A 
ATOM     28  C   UNL     1       1.259  -3.380   2.195  0.00  0.00    +0.168 A 
ATOM     29  C   UNL     1       2.291  -2.516   1.878  0.00  0.00    +0.075 A 
ATOM     30  C   UNL     1       2.013  -1.204   1.514  0.00  0.00    +0.053 A 
ATOM     31  N   UNL     1       3.031  -0.328   1.194  0.00  0.00    -0.322 N 
ATOM     32  H   UNL     1       3.980  -0.643   1.224  0.00  0.00    +0.169 HD
ATOM     33  C   UNL     1       2.765   0.941   0.841  0.00  0.00    +0.254 A 
ATOM     34  O   UNL     1       3.689   1.687   0.563  0.00  0.00    -0.268 OA
ATOM     35  O   UNL     1       1.271  -4.690   2.575  0.00  0.00    -0.453 OA
ATOM     36  C   UNL     1      -0.072  -5.164   2.366  0.00  0.00    +0.466 C 
ATOM     37  O   UNL     1      -0.881  -3.982   2.506  0.00  0.00    -0.453 OA
ENDBRANCH  22  23
ENDBRANCH   1  22
TORSDOF 11
