REMARK  Name = ZINC36173513
REMARK  9 active torsions:
REMARK  status: ('A' for Active; 'I' for Inactive)
REMARK    1  A    between atoms: C_1  and  C_2
REMARK    2  A    between atoms: C_2  and  C_4
REMARK    3  A    between atoms: C_2  and  C_12
REMARK    4  A    between atoms: C_4  and  C_5
REMARK    5  A    between atoms: N_14  and  C_15
REMARK    6  A    between atoms: C_15  and  C_16
REMARK    7  A    between atoms: C_16  and  C_17
REMARK    8  A    between atoms: C_20  and  S_23
REMARK    9  A    between atoms: S_23  and  N_26
REMARK                            x       y       z     vdW  Elec       q    Type
REMARK                         _______ _______ _______ _____ _____    ______ ____
ROOT
ATOM      1  C   UNL     1       0.731  -0.503   1.223  0.00  0.00    +0.216 C 
ATOM      2  O   UNL     1       0.159  -1.213   2.023  0.00  0.00    -0.276 OA
ATOM      3  N   UNL     1       2.019  -0.161   1.426  0.00  0.00    -0.315 N 
ATOM      4  H   UNL     1       2.476   0.406   0.786  0.00  0.00    +0.149 HD
ENDROOT
BRANCH   1   6
ATOM      5  C   UNL     1      -0.019   1.526   0.010  0.00  0.00    +0.017 C 
ATOM      6  C   UNL     1       0.002  -0.004   0.002  0.00  0.00    +0.076 C 
BRANCH   6   7
ATOM      7  C   UNL     1      -1.433  -0.534   0.013  0.00  0.00    +0.047 C 
BRANCH   7   8
ATOM      8  C   UNL     1      -2.125  -0.137  -1.266  0.00  0.00    -0.046 A 
ATOM      9  C   UNL     1      -2.808   1.063  -1.339  0.00  0.00    +0.006 A 
ATOM     10  C   UNL     1      -3.442   1.427  -2.512  0.00  0.00    +0.038 A 
ATOM     11  C   UNL     1      -3.393   0.591  -3.614  0.00  0.00    +0.123 A 
ATOM     12  C   UNL     1      -2.708  -0.611  -3.539  0.00  0.00    +0.038 A 
ATOM     13  C   UNL     1      -2.071  -0.971  -2.368  0.00  0.00    +0.006 A 
ATOM     14  F   UNL     1      -4.012   0.946  -4.760  0.00  0.00    -0.205 F 
ENDBRANCH   7   8
ENDBRANCH   6   7
ENDBRANCH   1   6
BRANCH   3  15
ATOM     15  C   UNL     1       2.727  -0.647   2.613  0.00  0.00    +0.109 C 
BRANCH  15  16
ATOM     16  C   UNL     1       4.163  -0.117   2.602  0.00  0.00    +0.054 C 
BRANCH  16  17
ATOM     17  C   UNL     1       4.891  -0.616   3.823  0.00  0.00    -0.046 A 
ATOM     18  C   UNL     1       4.868   0.121   4.992  0.00  0.00    +0.005 A 
ATOM     19  C   UNL     1       5.537  -0.336   6.111  0.00  0.00    +0.029 A 
ATOM     20  C   UNL     1       6.228  -1.532   6.063  0.00  0.00    +0.105 A 
ATOM     21  C   UNL     1       6.251  -2.271   4.894  0.00  0.00    +0.029 A 
ATOM     22  C   UNL     1       5.579  -1.815   3.775  0.00  0.00    +0.005 A 
BRANCH  20  23
ATOM     23  S   UNL     1       7.082  -2.115   7.490  0.00  0.00    +0.056 S 
ATOM     24  O   UNL     1       8.103  -2.987   7.024  0.00  0.00    -0.153 OA
ATOM     25  O   UNL     1       7.360  -0.975   8.291  0.00  0.00    -0.153 OA
BRANCH  23  26
ATOM     26  N   UNL     1       6.017  -3.049   8.349  0.00  0.00    -0.204 NA
ATOM     27  H   UNL     1       5.113  -3.178   8.023  0.00  0.00    +0.144 HD
ATOM     28  H   UNL     1       6.298  -3.467   9.178  0.00  0.00    +0.144 HD
ENDBRANCH  23  26
ENDBRANCH  20  23
ENDBRANCH  16  17
ENDBRANCH  15  16
ENDBRANCH   3  15
TORSDOF 8
