REMARK  Name = ZINC63530549
REMARK  7 active torsions:
REMARK  status: ('A' for Active; 'I' for Inactive)
REMARK    1  A    between atoms: C_1  and  C_2
REMARK    2  A    between atoms: C_5  and  C_8
REMARK    3  A    between atoms: C_8  and  N_9
REMARK    4  A    between atoms: C_10  and  C_12
REMARK    5  A    between atoms: C_14  and  S_23
REMARK    6  A    between atoms: C_18  and  C_22
REMARK    7  A    between atoms: S_23  and  C_24
REMARK                            x       y       z     vdW  Elec       q    Type
REMARK                         _______ _______ _______ _____ _____    ______ ____
ROOT
ATOM      1  C   UNL     1       2.702  -6.142  -0.072  0.00  0.00    +0.204 C 
ATOM      2  C   UNL     1       3.470  -6.345   1.215  0.00  0.00    +0.030 C 
ATOM      3  C   UNL     1       3.747  -7.707   1.277  0.00  0.00    +0.010 A 
ATOM      4  C   UNL     1       4.429  -8.498   2.228  0.00  0.00    +0.011 A 
ATOM      5  C   UNL     1       4.553  -9.835   2.027  0.00  0.00    +0.004 A 
ATOM      6  C   UNL     1       4.020 -10.456   0.897  0.00  0.00    -0.048 A 
ATOM      7  C   UNL     1       3.353  -9.758  -0.056  0.00  0.00    +0.029 A 
ATOM      8  C   UNL     1       3.184  -8.358   0.085  0.00  0.00    +0.044 A 
ATOM      9  N   UNL     1       2.587  -7.468  -0.689  0.00  0.00    -0.369 N 
ATOM     10  C   UNL     1       4.191 -11.944   0.730  0.00  0.00    +0.044 C 
ATOM     11  H   UNL     1       2.143  -7.660  -1.530  0.00  0.00    +0.161 HD
ENDROOT
BRANCH   1  13
ATOM     12  N   UNL     1       1.176  -4.268   0.453  0.00  0.00    -0.309 N 
ATOM     13  C   UNL     1       1.333  -5.587   0.223  0.00  0.00    +0.241 C 
ATOM     14  O   UNL     1       0.371  -6.326   0.253  0.00  0.00    -0.273 OA
ATOM     15  H   UNL     1       1.944  -3.677   0.429  0.00  0.00    +0.149 HD
BRANCH  12  16
ATOM     16  C   UNL     1      -0.155  -3.727   0.740  0.00  0.00    +0.139 C 
BRANCH  16  21
ATOM     17  C   UNL     1       0.218   1.978   1.577  0.00  0.00    +0.044 C 
ATOM     18  C   UNL     1       0.121   0.490   1.358  0.00  0.00    -0.050 A 
ATOM     19  C   UNL     1      -0.101  -0.009   0.089  0.00  0.00    +0.003 A 
ATOM     20  C   UNL     1      -0.190  -1.374  -0.112  0.00  0.00    +0.005 A 
ATOM     21  C   UNL     1      -0.057  -2.240   0.958  0.00  0.00    -0.030 A 
ATOM     22  C   UNL     1       0.165  -1.740   2.228  0.00  0.00    +0.005 A 
ATOM     23  C   UNL     1       0.259  -0.376   2.427  0.00  0.00    +0.003 A 
ENDBRANCH  16  21
ENDBRANCH  12  16
ENDBRANCH   1  13
BRANCH   2  24
ATOM     24  S   UNL     1       3.896  -5.183   2.322  0.00  0.00    -0.091 S 
BRANCH  24  25
ATOM     25  C   UNL     1       5.076  -4.193   1.468  0.00  0.00    +0.013 A 
ATOM     26  C   UNL     1       5.523  -4.573   0.208  0.00  0.00    +0.016 A 
ATOM     27  C   UNL     1       6.448  -3.794  -0.458  0.00  0.00    +0.021 A 
ATOM     28  C   UNL     1       6.931  -2.637   0.127  0.00  0.00    +0.041 A 
ATOM     29  C   UNL     1       6.488  -2.256   1.382  0.00  0.00    +0.021 A 
ATOM     30  C   UNL     1       5.558  -3.027   2.051  0.00  0.00    +0.016 A 
ATOM     31 CL   UNL     1       8.095  -1.661  -0.714  0.00  0.00    -0.084 Cl
ENDBRANCH  24  25
ENDBRANCH   2  24
TORSDOF 5
