REMARK  Name = ZINC08716007
REMARK  7 active torsions:
REMARK  status: ('A' for Active; 'I' for Inactive)
REMARK    1  A    between atoms: C_1  and  C_2
REMARK    2  A    between atoms: C_9  and  C_14
REMARK    3  A    between atoms: C_14  and  O_16
REMARK    4  A    between atoms: O_16  and  C_17
REMARK    5  A    between atoms: C_17  and  C_19
REMARK    6  A    between atoms: C_17  and  C_20
REMARK    7  A    between atoms: C_25  and  C_28
REMARK                            x       y       z     vdW  Elec       q    Type
REMARK                         _______ _______ _______ _____ _____    ______ ____
ROOT
ATOM      1  C   UNL     1      -1.135  -2.201   0.001  0.00  0.00    +0.259 C 
ATOM      2  C   UNL     1      -0.531  -2.695  -1.315  0.00  0.00    +0.062 C 
ENDROOT
BRANCH   1   3
ATOM      3  C   UNL     1      -1.156  -0.694   0.009  0.00  0.00    +0.259 C 
ATOM      4  O   UNL     1      -2.214  -0.102   0.023  0.00  0.00    -0.271 OA
ATOM      5  N   UNL     1       0.002  -0.004   0.002  0.00  0.00    -0.262 N 
ATOM      6  C   UNL     1      -0.017   1.385   0.010  0.00  0.00    +0.165 A 
ATOM      7  N   UNL     1       0.994   2.234   0.005  0.00  0.00    -0.225 NA
ATOM      8  C   UNL     1       0.792   3.543   0.013  0.00  0.00    +0.080 A 
ATOM      9  C   UNL     1      -0.487   4.025   0.028  0.00  0.00    +0.076 A 
ATOM     10  S   UNL     1      -1.416   2.497   0.021  0.00  0.00    -0.060 S 
ATOM     11  H   UNL     1       0.849  -0.478  -0.009  0.00  0.00    +0.157 HD
BRANCH   8  12
ATOM     12  C   UNL     1       1.944   4.478   0.008  0.00  0.00    +0.001 A 
ATOM     13  C   UNL     1       1.728   5.855   0.012  0.00  0.00    +0.010 A 
ATOM     14  C   UNL     1       2.803   6.720   0.012  0.00  0.00    +0.001 A 
ATOM     15  C   UNL     1       4.094   6.223  -0.004  0.00  0.00    +0.000 A 
ATOM     16  C   UNL     1       4.315   4.857  -0.013  0.00  0.00    +0.001 A 
ATOM     17  C   UNL     1       3.247   3.983  -0.007  0.00  0.00    +0.010 A 
ENDBRANCH   8  12
ENDBRANCH   1   3
BRANCH   1  18
ATOM     18  O   UNL     1      -2.491  -2.704   0.131  0.00  0.00    -0.449 OA
BRANCH  18  19
ATOM     19  C   UNL     1      -2.646  -3.894   0.744  0.00  0.00    +0.340 C 
ATOM     20  O   UNL     1      -1.675  -4.495   1.159  0.00  0.00    -0.245 OA
BRANCH  19  28
ATOM     21  C   UNL     1      -9.003  -8.786   1.935  0.00  0.00    +0.029 C 
ATOM     22  C   UNL     1      -7.797  -8.025   1.380  0.00  0.00    +0.134 C 
ATOM     23  C   UNL     1      -6.589  -8.305   2.233  0.00  0.00    +0.230 C 
ATOM     24  O   UNL     1      -6.554  -9.347   2.852  0.00  0.00    -0.274 OA
ATOM     25  N   UNL     1      -5.558  -7.472   2.345  0.00  0.00    -0.284 N 
ATOM     26  C   UNL     1      -5.417  -6.243   1.705  0.00  0.00    +0.048 A 
ATOM     27  C   UNL     1      -4.152  -5.703   1.542  0.00  0.00    +0.039 A 
ATOM     28  C   UNL     1      -3.994  -4.466   0.911  0.00  0.00    +0.061 A 
ATOM     29  C   UNL     1      -5.111  -3.774   0.433  0.00  0.00    +0.016 A 
ATOM     30  C   UNL     1      -6.368  -4.313   0.589  0.00  0.00    +0.017 A 
ATOM     31  C   UNL     1      -6.526  -5.541   1.219  0.00  0.00    +0.030 A 
ATOM     32  S   UNL     1      -8.136  -6.239   1.412  0.00  0.00    -0.111 S 
ATOM     33  H   UNL     1      -4.834  -7.747   2.930  0.00  0.00    +0.155 HD
ENDBRANCH  19  28
ENDBRANCH  18  19
ENDBRANCH   1  18
TORSDOF 5
