REMARK  Name = ZINC34747375
REMARK  5 active torsions:
REMARK  status: ('A' for Active; 'I' for Inactive)
REMARK    1  A    between atoms: C_4  and  C_7
REMARK    2  A    between atoms: C_7  and  C_8
REMARK    3  A    between atoms: C_8  and  N_9
REMARK    4  A    between atoms: N_28  and  C_29
REMARK    5  A    between atoms: C_29  and  C_30
REMARK                            x       y       z     vdW  Elec       q    Type
REMARK                         _______ _______ _______ _____ _____    ______ ____
ROOT
ATOM      1  N   UNL     1       6.055  -2.191   0.125  0.00  0.00    +0.382 N 
ATOM      2  C   UNL     1       7.212  -3.065  -0.107  0.00  0.00    -0.060 C 
ATOM      3  C   UNL     1       7.849  -3.436   1.236  0.00  0.00    +0.089 C 
ATOM      4  N   UNL     1       8.160  -2.196   1.963  0.00  0.00    -0.304 N 
ATOM      5  C   UNL     1       7.098  -1.187   2.101  0.00  0.00    +0.089 C 
ATOM      6  C   UNL     1       6.497  -0.922   0.717  0.00  0.00    -0.060 C 
ATOM      7  C   UNL     1       9.407  -1.985   2.498  0.00  0.00    +0.202 A 
ATOM      8  N   UNL     1      10.337  -1.406   1.767  0.00  0.00    -0.208 NA
ATOM      9  C   UNL     1      11.552  -1.190   2.259  0.00  0.00    +0.117 A 
ATOM     10  C   UNL     1      11.905  -1.562   3.567  0.00  0.00    +0.076 A 
ATOM     11  C   UNL     1      13.281  -1.260   3.968  0.00  0.00    -0.023 A 
ATOM     12  C   UNL     1      14.068  -0.660   3.052  0.00  0.00    -0.004 A 
ATOM     13  S   UNL     1      13.040  -0.463   1.621  0.00  0.00    -0.073 S 
ATOM     14  C   UNL     1      15.500  -0.251   3.214  0.00  0.00    +0.043 C 
ATOM     15  C   UNL     1      15.845  -0.278   4.710  0.00  0.00    +0.005 C 
ATOM     16  C   UNL     1      15.347  -1.599   5.305  0.00  0.00    +0.005 C 
ATOM     17  C   UNL     1      13.819  -1.602   5.355  0.00  0.00    +0.037 C 
ATOM     18  C   UNL     1      10.874  -2.188   4.337  0.00  0.00    +0.264 A 
ATOM     19  O   UNL     1      11.088  -2.544   5.483  0.00  0.00    -0.267 OA
ATOM     20  N   UNL     1       9.663  -2.373   3.780  0.00  0.00    -0.271 N 
ATOM     21  H   UNL     1       5.412  -2.649   0.754  0.00  0.00    -0.082 HD
ENDROOT
BRANCH   1  22
ATOM     22  C   UNL     1       5.380  -1.925  -1.152  0.00  0.00    -0.074 C 
BRANCH  22  23
ATOM     23  C   UNL     1       4.809  -3.231  -1.710  0.00  0.00    +0.016 C 
BRANCH  23  27
ATOM     24  C   UNL     1       2.847  -2.459  -5.424  0.00  0.00    +0.000 A 
ATOM     25  C   UNL     1       4.191  -2.782  -5.407  0.00  0.00    +0.000 A 
ATOM     26  C   UNL     1       4.826  -3.032  -4.205  0.00  0.00    +0.003 A 
ATOM     27  C   UNL     1       4.117  -2.958  -3.020  0.00  0.00    -0.049 A 
ATOM     28  C   UNL     1       2.774  -2.634  -3.038  0.00  0.00    +0.003 A 
ATOM     29  C   UNL     1       2.138  -2.385  -4.240  0.00  0.00    +0.000 A 
ENDBRANCH  23  27
ENDBRANCH  22  23
ENDBRANCH   1  22
BRANCH  20  30
ATOM     30  C   UNL     1       8.601  -3.008   4.564  0.00  0.00    +0.224 C 
BRANCH  30  31
ATOM     31  C   UNL     1       8.708  -4.505   4.433  0.00  0.00    +0.236 C 
ATOM     32  O   UNL     1       9.585  -4.994   3.752  0.00  0.00    -0.274 OA
ATOM     33  N   UNL     1       7.829  -5.302   5.073  0.00  0.00    -0.300 N 
ATOM     34  C   UNL     1       6.757  -4.725   5.896  0.00  0.00    +0.108 C 
ATOM     35  C   UNL     1       5.415  -5.296   5.430  0.00  0.00    +0.019 C 
ATOM     36  C   UNL     1       5.477  -6.825   5.461  0.00  0.00    +0.003 C 
ATOM     37  C   UNL     1       6.568  -7.312   4.505  0.00  0.00    +0.019 C 
ATOM     38  C   UNL     1       7.920  -6.764   4.956  0.00  0.00    +0.108 C 
ENDBRANCH  30  31
ENDBRANCH  20  30
TORSDOF 5
