REMARK  Name = ZINC19535955
REMARK  16 active torsions:
REMARK  status: ('A' for Active; 'I' for Inactive)
REMARK    1  A    between atoms: C_1  and  C_2
REMARK    2  A    between atoms: C_2  and  O_3
REMARK    3  A    between atoms: O_3  and  C_4
REMARK    4  A    between atoms: C_4  and  C_6
REMARK    5  A    between atoms: C_7  and  C_22
REMARK    6  A    between atoms: C_12  and  C_14
REMARK    7  A    between atoms: C_17  and  O_20
REMARK    8  A    between atoms: O_20  and  C_21
REMARK    9  A    between atoms: C_22  and  N_23
REMARK   10  A    between atoms: N_23  and  C_24
REMARK   11  A    between atoms: N_23  and  C_25
REMARK   12  A    between atoms: C_25  and  C_26
REMARK   13  A    between atoms: N_28  and  C_29
REMARK   14  A    between atoms: C_30  and  C_37
REMARK   15  A    between atoms: C_32  and  C_36
REMARK   16  A    between atoms: C_34  and  C_35
REMARK                            x       y       z     vdW  Elec       q    Type
REMARK                         _______ _______ _______ _____ _____    ______ ____
ROOT
ATOM      1  C   UNL     1      -5.074   1.544   3.708  0.00  0.00    +0.076 C 
ATOM      2  C   UNL     1      -4.915   1.286   2.392  0.00  0.00    +0.008 C 
ATOM      3  N   UNL     1      -5.764   0.444   1.732  0.00  0.00    -0.274 N 
ATOM      4  C   UNL     1      -6.800  -0.174   2.314  0.00  0.00    +0.304 C 
ATOM      5  O   UNL     1      -7.501  -0.906   1.643  0.00  0.00    -0.252 OA
ATOM      6  N   UNL     1      -7.089  -0.011   3.620  0.00  0.00    -0.288 N 
ATOM      7  C   UNL     1      -6.232   0.878   4.423  0.00  0.00    +0.143 C 
ATOM      8  H   UNL     1      -5.616   0.242   0.661  0.00  0.00    +0.156 HD
ATOM      9  H   UNL     1      -7.942  -0.524   4.090  0.00  0.00    +0.151 HD
ENDROOT
BRANCH   7  10
ATOM     10  C   UNL     1      -7.104   1.958   5.010  0.00  0.00    -0.022 A 
ATOM     11  C   UNL     1      -8.108   2.526   4.246  0.00  0.00    +0.009 A 
ATOM     12  C   UNL     1      -8.912   3.512   4.784  0.00  0.00    +0.046 A 
ATOM     13  C   UNL     1      -8.705   3.941   6.087  0.00  0.00    +0.120 A 
ATOM     14  C   UNL     1      -7.694   3.373   6.849  0.00  0.00    +0.046 A 
ATOM     15  C   UNL     1      -6.896   2.383   6.309  0.00  0.00    +0.009 A 
BRANCH  13  16
ATOM     16  O   UNL     1      -9.491   4.915   6.616  0.00  0.00    -0.495 OA
ATOM     17  C   UNL     1     -10.512   5.454   5.773  0.00  0.00    +0.277 C 
ENDBRANCH  13  16
ENDBRANCH   7  10
BRANCH   1  18
ATOM     18  C   UNL     1      -4.192   2.411   4.395  0.00  0.00    +0.339 C 
ATOM     19  O   UNL     1      -3.350   3.035   3.778  0.00  0.00    -0.245 OA
BRANCH  18  20
ATOM     20  O   UNL     1      -4.285   2.545   5.734  0.00  0.00    -0.462 OA
BRANCH  20  22
ATOM     21  C   UNL     1      -3.619   3.459   7.870  0.00  0.00    +0.048 C 
ATOM     22  C   UNL     1      -3.363   3.438   6.362  0.00  0.00    +0.229 C 
ENDBRANCH  20  22
ENDBRANCH  18  20
ENDBRANCH   1  18
BRANCH   2  23
ATOM     23  C   UNL     1      -3.779   1.931   1.642  0.00  0.00    -0.026 C 
BRANCH  23  24
ATOM     24  N   UNL     1      -4.197   3.257   1.167  0.00  0.00    +0.387 N 
ATOM     25  C   UNL     1      -5.261   3.145   0.161  0.00  0.00    -0.095 C 
ATOM     26  H   UNL     1      -4.601   3.812   2.027  0.00  0.00    -0.081 HD
BRANCH  24  27
ATOM     27  C   UNL     1      -3.052   4.013   0.641  0.00  0.00    +0.019 C 
BRANCH  27  28
ATOM     28  C   UNL     1      -3.464   5.441   0.394  0.00  0.00    +0.201 C 
ATOM     29  O   UNL     1      -4.599   5.795   0.632  0.00  0.00    -0.278 OA
ATOM     30  N   UNL     1      -2.569   6.327  -0.088  0.00  0.00    -0.287 N 
ATOM     31  H   UNL     1      -1.521   6.026  -0.232  0.00  0.00    +0.155 HD
BRANCH  30  32
ATOM     32  C   UNL     1      -2.973   7.628  -0.405  0.00  0.00    +0.039 A 
ATOM     33  C   UNL     1      -4.068   7.834  -1.234  0.00  0.00    -0.029 A 
ATOM     34  C   UNL     1      -4.468   9.120  -1.540  0.00  0.00    +0.008 A 
ATOM     35  C   UNL     1      -3.773  10.202  -1.030  0.00  0.00    -0.050 A 
ATOM     36  C   UNL     1      -2.679  10.000  -0.209  0.00  0.00    +0.008 A 
ATOM     37  C   UNL     1      -2.277   8.716   0.105  0.00  0.00    -0.029 A 
ATOM     38  C   UNL     1      -1.086   8.497   1.001  0.00  0.00    +0.045 C 
ATOM     39  C   UNL     1      -4.209  11.604  -1.371  0.00  0.00    +0.044 C 
ATOM     40  C   UNL     1      -4.822   6.656  -1.795  0.00  0.00    +0.045 C 
ENDBRANCH  30  32
ENDBRANCH  27  28
ENDBRANCH  24  27
ENDBRANCH  23  24
ENDBRANCH   2  23
TORSDOF 10
