REMARK  Name = ZINC02663328
REMARK  13 active torsions:
REMARK  status: ('A' for Active; 'I' for Inactive)
REMARK    1  A    between atoms: C_1  and  C_2
REMARK    2  A    between atoms: C_2  and  C_4
REMARK    3  A    between atoms: C_2  and  N_64
REMARK    4  A    between atoms: C_7  and  S_16
REMARK    5  A    between atoms: N_8  and  C_9
REMARK    6  A    between atoms: C_9  and  C_10
REMARK    7  A    between atoms: S_16  and  C_17
REMARK    8  A    between atoms: C_17  and  C_18
REMARK    9  A    between atoms: N_20  and  C_21
REMARK   10  A    between atoms: C_26  and  S_27
REMARK   11  A    between atoms: S_27  and  C_28
REMARK   12  A    between atoms: C_34  and  N_64
REMARK   13  A    between atoms: C_35  and  N_64
REMARK                            x       y       z     vdW  Elec       q    Type
REMARK                         _______ _______ _______ _____ _____    ______ ____
ROOT
ATOM      1  S   UNL     1      -4.149   2.008   3.621  0.00  0.00    -0.077 S 
ENDROOT
BRANCH   1   5
ATOM      2  C   UNL     1      -2.037   2.470   0.374  0.00  0.00    +0.120 A 
ATOM      3  N   UNL     1      -1.573   3.410   1.148  0.00  0.00    -0.135 NA
ATOM      4  N   UNL     1      -2.186   3.393   2.278  0.00  0.00    -0.123 NA
ATOM      5  C   UNL     1      -3.074   2.427   2.289  0.00  0.00    +0.192 A 
ATOM      6  N   UNL     1      -3.007   1.807   1.075  0.00  0.00    -0.303 N 
BRANCH   2   8
ATOM      7  C   UNL     1      -2.145   3.219  -1.987  0.00  0.00    -0.005 C 
ATOM      8  C   UNL     1      -1.584   2.165  -1.030  0.00  0.00    -0.003 C 
BRANCH   8  11
ATOM      9  C   UNL     1       0.365   1.776  -2.413  0.00  0.00    -0.096 C 
ATOM     10  C   UNL     1       0.407   3.508  -0.722  0.00  0.00    -0.096 C 
ATOM     11  N   UNL     1      -0.106   2.166  -1.067  0.00  0.00    +0.382 N 
ATOM     12  H   UNL     1       0.245   1.488  -0.381  0.00  0.00    -0.082 HD
ENDBRANCH   8  11
ENDBRANCH   2   8
BRANCH   6  13
ATOM     13  C   UNL     1      -3.808   0.669   0.616  0.00  0.00    +0.160 C 
BRANCH  13  14
ATOM     14  C   UNL     1      -3.103  -0.615   0.969  0.00  0.00    -0.028 A 
ATOM     15  C   UNL     1      -2.214  -1.184   0.075  0.00  0.00    +0.005 A 
ATOM     16  C   UNL     1      -1.564  -2.360   0.401  0.00  0.00    +0.000 A 
ATOM     17  C   UNL     1      -1.810  -2.972   1.615  0.00  0.00    +0.000 A 
ATOM     18  C   UNL     1      -2.702  -2.406   2.506  0.00  0.00    +0.000 A 
ATOM     19  C   UNL     1      -3.349  -1.228   2.183  0.00  0.00    +0.005 A 
ENDBRANCH  13  14
ENDBRANCH   6  13
ENDBRANCH   1   5
BRANCH   1  20
ATOM     20  C   UNL     1      -3.646   3.252   4.835  0.00  0.00    +0.173 C 
BRANCH  20  21
ATOM     21  C   UNL     1      -4.456   3.083   6.094  0.00  0.00    +0.228 C 
ATOM     22  O   UNL     1      -5.292   2.207   6.164  0.00  0.00    -0.275 OA
ATOM     23  N   UNL     1      -4.252   3.904   7.143  0.00  0.00    -0.284 N 
ATOM     24  H   UNL     1      -3.534   4.556   7.116  0.00  0.00    +0.155 HD
BRANCH  23  25
ATOM     25  C   UNL     1      -5.078   3.817   8.272  0.00  0.00    +0.047 A 
ATOM     26  C   UNL     1      -5.660   2.607   8.616  0.00  0.00    +0.024 A 
ATOM     27  C   UNL     1      -6.474   2.524   9.731  0.00  0.00    +0.002 A 
ATOM     28  C   UNL     1      -6.710   3.645  10.505  0.00  0.00    +0.001 A 
ATOM     29  C   UNL     1      -6.134   4.855  10.171  0.00  0.00    +0.017 A 
ATOM     30  C   UNL     1      -5.311   4.947   9.056  0.00  0.00    +0.034 A 
BRANCH  30  31
ATOM     31  S   UNL     1      -4.569   6.488   8.630  0.00  0.00    -0.088 S 
BRANCH  31  32
ATOM     32  C   UNL     1      -5.112   7.587   9.896  0.00  0.00    +0.013 A 
ATOM     33  C   UNL     1      -6.228   8.390   9.690  0.00  0.00    +0.015 A 
ATOM     34  C   UNL     1      -6.654   9.245  10.686  0.00  0.00    +0.001 A 
ATOM     35  C   UNL     1      -5.965   9.312  11.884  0.00  0.00    +0.000 A 
ATOM     36  C   UNL     1      -4.851   8.519  12.090  0.00  0.00    +0.001 A 
ATOM     37  C   UNL     1      -4.423   7.657  11.101  0.00  0.00    +0.015 A 
ENDBRANCH  31  32
ENDBRANCH  30  31
ENDBRANCH  23  25
ENDBRANCH  20  21
ENDBRANCH   1  20
TORSDOF 10
