REMARK  Name = ZINC12506912
REMARK  5 active torsions:
REMARK  status: ('A' for Active; 'I' for Inactive)
REMARK    1  A    between atoms: C_1  and  O_2
REMARK    2  A    between atoms: O_2  and  C_3
REMARK    3  A    between atoms: C_7  and  C_13
REMARK    4  A    between atoms: C_8  and  O_9
REMARK    5  A    between atoms: O_9  and  C_10
REMARK                            x       y       z     vdW  Elec       q    Type
REMARK                         _______ _______ _______ _____ _____    ______ ____
ROOT
ATOM      1  C   UNL     1       1.394  -4.134   2.219  0.00  0.00    +0.212 C 
ATOM      2  N   UNL     1       2.546  -4.548   3.043  0.00  0.00    -0.294 N 
ATOM      3  C   UNL     1       2.394  -4.533   4.422  0.00  0.00    +0.159 C 
ATOM      4  N   UNL     1       1.282  -5.204   4.934  0.00  0.00    -0.259 N 
ATOM      5  C   UNL     1       0.143  -5.155   4.133  0.00  0.00    +0.205 A 
ATOM      6  N   UNL     1       0.180  -4.662   2.850  0.00  0.00    -0.288 N 
ATOM      7  C   UNL     1      -1.091  -4.766   2.328  0.00  0.00    +0.076 A 
ATOM      8  C   UNL     1      -1.664  -4.445   1.104  0.00  0.00    +0.077 A 
ATOM      9  C   UNL     1      -3.008  -4.684   0.892  0.00  0.00    +0.164 A 
ATOM     10  C   UNL     1      -3.793  -5.243   1.896  0.00  0.00    +0.164 A 
ATOM     11  C   UNL     1      -3.240  -5.564   3.118  0.00  0.00    +0.079 A 
ATOM     12  C   UNL     1      -1.881  -5.329   3.346  0.00  0.00    +0.095 A 
ATOM     13  N   UNL     1      -1.066  -5.537   4.422  0.00  0.00    -0.214 NA
ATOM     14  O   UNL     1      -5.119  -5.476   1.664  0.00  0.00    -0.488 OA
ATOM     15  C   UNL     1      -5.941  -4.316   1.525  0.00  0.00    +0.232 C 
ATOM     16  C   UNL     1      -5.899  -3.793   0.097  0.00  0.00    +0.082 C 
ATOM     17  C   UNL     1      -4.517  -3.297  -0.297  0.00  0.00    +0.232 C 
ATOM     18  O   UNL     1      -3.576  -4.372  -0.311  0.00  0.00    -0.488 OA
ATOM     19  N   UNL     1       3.245  -3.924   5.198  0.00  0.00    -0.375 N 
ATOM     20  H   UNL     1       3.381  -4.823   2.634  0.00  0.00    +0.151 HD
ATOM     21  H   UNL     1       4.009  -3.466   4.815  0.00  0.00    +0.158 HD
ATOM     22  H   UNL     1       1.302  -5.670   5.784  0.00  0.00    +0.158 HD
ATOM     23  H   UNL     1       3.114  -3.929   6.160  0.00  0.00    +0.158 HD
ENDROOT
BRANCH   1  28
ATOM     24  C   UNL     1       0.861  -0.612   0.937  0.00  0.00    +0.162 A 
ATOM     25  C   UNL     1       1.201   0.137   2.052  0.00  0.00    +0.049 A 
ATOM     26  C   UNL     1       1.601  -0.496   3.214  0.00  0.00    +0.004 A 
ATOM     27  C   UNL     1       1.663  -1.876   3.267  0.00  0.00    +0.011 A 
ATOM     28  C   UNL     1       1.325  -2.630   2.158  0.00  0.00    +0.039 A 
ATOM     29  C   UNL     1       0.917  -2.002   0.992  0.00  0.00    +0.175 A 
BRANCH  24  31
ATOM     30  C   UNL     1       0.432   1.437  -0.191  0.00  0.00    +0.277 C 
ATOM     31  O   UNL     1       0.466   0.009  -0.207  0.00  0.00    -0.491 OA
ENDBRANCH  24  31
BRANCH  29  32
ATOM     32  O   UNL     1       0.579  -2.741  -0.098  0.00  0.00    -0.430 OA
BRANCH  32  33
ATOM     33  C   UNL     1       1.627  -3.060  -1.016  0.00  0.00    +0.541 C 
ATOM     34  F   UNL     1       2.180  -1.879  -1.521  0.00  0.00    -0.166 F 
ATOM     35  F   UNL     1       2.617  -3.795  -0.356  0.00  0.00    -0.166 F 
ENDBRANCH  32  33
ENDBRANCH  29  32
ENDBRANCH   1  28
TORSDOF 4
