REMARK  Name = ZINC39334682
REMARK  4 active torsions:
REMARK  status: ('A' for Active; 'I' for Inactive)
REMARK    1  A    between atoms: C_1  and  C_2
REMARK    2  A    between atoms: C_2  and  C_3
REMARK    3  A    between atoms: C_2  and  C_4
REMARK    4  A    between atoms: C_6  and  C_10
REMARK                            x       y       z     vdW  Elec       q    Type
REMARK                         _______ _______ _______ _____ _____    ______ ____
ROOT
ATOM      1  C   UNL     1      -1.412  -0.526   0.013  0.00  0.00    +0.064 C 
ATOM      2  C   UNL     1      -1.940  -1.303  -0.935  0.00  0.00    +0.029 C 
ATOM      3  C   UNL     1      -3.362  -1.543  -0.460  0.00  0.00    +0.181 C 
ATOM      4  N   UNL     1      -3.420  -0.792   0.805  0.00  0.00    -0.177 NA
ATOM      5  N   UNL     1      -2.315  -0.275   0.986  0.00  0.00    -0.158 NA
ENDROOT
BRANCH   3   6
ATOM      6  C   UNL     1      -4.371  -0.991  -1.469  0.00  0.00    +0.166 C 
ATOM      7  N   UNL     1      -5.775  -1.212  -1.020  0.00  0.00    -0.226 NA
ATOM      8  N   UNL     1      -6.632  -1.516  -2.015  0.00  0.00    -0.268 N 
ATOM      9  C   UNL     1      -6.199  -2.016  -3.196  0.00  0.00    +0.122 C 
ATOM     10  S   UNL     1      -4.417  -2.006  -3.010  0.00  0.00    -0.079 S 
ATOM     11  S   UNL     1      -7.127  -2.530  -4.540  0.00  0.00    -0.027 S 
ATOM     12  H   UNL     1      -5.815  -1.903  -0.285  0.00  0.00    +0.146 HD
ATOM     13  H   UNL     1      -7.582  -1.373  -1.882  0.00  0.00    +0.167 HD
ENDBRANCH   3   6
BRANCH   1  15
ATOM     14  C   UNL     1      -0.019   1.526   0.010  0.00  0.00    +0.014 C 
ATOM     15  C   UNL     1       0.002  -0.004   0.002  0.00  0.00    +0.033 C 
ATOM     16  C   UNL     1       0.742  -0.511   1.242  0.00  0.00    +0.014 C 
ENDBRANCH   1  15
TORSDOF 2
