REMARK  Name = ZINC38646267
REMARK  5 active torsions:
REMARK  status: ('A' for Active; 'I' for Inactive)
REMARK    1  A    between atoms: C_1  and  C_2
REMARK    2  A    between atoms: C_7  and  C_8
REMARK    3  A    between atoms: C_7  and  C_9
REMARK    4  A    between atoms: N_12  and  N_13
REMARK    5  A    between atoms: C_14  and  C_16
REMARK                            x       y       z     vdW  Elec       q    Type
REMARK                         _______ _______ _______ _____ _____    ______ ____
ROOT
ATOM      1  N   UNL     1      -3.670  -0.955  -0.127  0.00  0.00    -0.203 N 
ATOM      2  C   UNL     1      -4.867  -0.418  -0.433  0.00  0.00    +0.263 C 
ATOM      3  O   UNL     1      -4.938   0.739  -0.803  0.00  0.00    -0.268 OA
ATOM      4  H   UNL     1      -3.613  -1.878   0.168  0.00  0.00    +0.178 HD
ENDROOT
BRANCH   1  15
ATOM      5  C   UNL     1      -0.019   1.526   0.010  0.00  0.00    +0.018 C 
ATOM      6  C   UNL     1       0.002  -0.004   0.002  0.00  0.00    +0.013 C 
ATOM      7  C   UNL     1       0.746  -0.667  -1.197  0.00  0.00    +0.013 C 
ATOM      8  C   UNL     1       1.065  -2.101  -0.713  0.00  0.00    +0.005 C 
ATOM      9  C   UNL     1       0.474  -2.165   0.729  0.00  0.00    +0.001 C 
ATOM     10  C   UNL     1       0.727  -0.692   1.212  0.00  0.00    -0.021 C 
ATOM     11  C   UNL     1       2.218  -0.351   1.258  0.00  0.00    +0.012 C 
ATOM     12  C   UNL     1       0.034  -0.396   2.543  0.00  0.00    +0.012 C 
ATOM     13  C   UNL     1      -1.071  -2.146   0.514  0.00  0.00    +0.057 C 
ATOM     14  C   UNL     1      -1.369  -0.692   0.058  0.00  0.00    +0.044 C 
ATOM     15  N   UNL     1      -2.506  -0.182  -0.233  0.00  0.00    -0.188 NA
ENDBRANCH   1  15
BRANCH   2  16
ATOM     16  C   UNL     1      -6.093  -1.233  -0.321  0.00  0.00    +0.041 A 
ATOM     17  C   UNL     1      -6.015  -2.560   0.109  0.00  0.00    +0.016 A 
ATOM     18  C   UNL     1      -7.162  -3.318   0.213  0.00  0.00    +0.042 A 
ATOM     19  C   UNL     1      -8.392  -2.766  -0.109  0.00  0.00    +0.158 A 
ATOM     20  C   UNL     1      -8.477  -1.448  -0.537  0.00  0.00    +0.159 A 
ATOM     21  C   UNL     1      -7.335  -0.679  -0.638  0.00  0.00    +0.054 A 
ATOM     22  F   UNL     1      -9.678  -0.916  -0.850  0.00  0.00    -0.202 F 
ATOM     23  F   UNL     1      -9.513  -3.514  -0.006  0.00  0.00    -0.202 F 
ENDBRANCH   2  16
TORSDOF 2
