REMARK  Name = ZINC19206151
REMARK  9 active torsions:
REMARK  status: ('A' for Active; 'I' for Inactive)
REMARK    1  A    between atoms: C_1  and  C_2
REMARK    2  A    between atoms: C_3  and  C_24
REMARK    3  A    between atoms: C_8  and  C_10
REMARK    4  A    between atoms: C_10  and  S_11
REMARK    5  A    between atoms: S_11  and  C_12
REMARK    6  A    between atoms: C_15  and  C_21
REMARK    7  A    between atoms: C_17  and  N_18
REMARK    8  A    between atoms: C_27  and  O_30
REMARK    9  A    between atoms: O_30  and  C_31
REMARK                            x       y       z     vdW  Elec       q    Type
REMARK                         _______ _______ _______ _____ _____    ______ ____
ROOT
ATOM      1  C   UNL     1      -5.424  -1.709   0.017  0.00  0.00    +0.054 C 
ATOM      2  C   UNL     1      -4.436  -0.572   0.019  0.00  0.00    +0.016 A 
ATOM      3  C   UNL     1      -4.658   0.777   0.028  0.00  0.00    +0.083 A 
ATOM      4  N   UNL     1      -3.625   1.606   0.028  0.00  0.00    -0.224 NA
ATOM      5  C   UNL     1      -2.384   1.155   0.020  0.00  0.00    +0.165 A 
ATOM      6  S   UNL     1      -2.648  -0.612   0.003  0.00  0.00    -0.057 S 
ATOM      7  N   UNL     1      -1.191   1.867   0.018  0.00  0.00    -0.264 N 
ATOM      8  C   UNL     1      -0.014   1.209   0.009  0.00  0.00    +0.229 C 
ATOM      9  O   UNL     1       0.002  -0.004   0.002  0.00  0.00    -0.275 OA
ATOM     10  H   UNL     1      -1.206   2.966   0.024  0.00  0.00    +0.157 HD
ENDROOT
BRANCH   3  11
ATOM     11  C   UNL     1      -6.043   1.307   0.038  0.00  0.00    +0.001 A 
ATOM     12  C   UNL     1      -7.051   0.641  -0.657  0.00  0.00    +0.013 A 
ATOM     13  C   UNL     1      -8.339   1.134  -0.642  0.00  0.00    +0.046 A 
ATOM     14  C   UNL     1      -8.631   2.297   0.057  0.00  0.00    +0.127 A 
ATOM     15  C   UNL     1      -7.628   2.966   0.745  0.00  0.00    +0.046 A 
ATOM     16  C   UNL     1      -6.339   2.476   0.738  0.00  0.00    +0.013 A 
BRANCH  14  17
ATOM     17  O   UNL     1      -9.900   2.783   0.066  0.00  0.00    -0.434 OA
BRANCH  17  18
ATOM     18  C   UNL     1     -10.882   2.045  -0.664  0.00  0.00    +0.541 C 
ATOM     19  F   UNL     1     -10.513   1.983  -2.012  0.00  0.00    -0.166 F 
ATOM     20  F   UNL     1     -10.972   0.749  -0.145  0.00  0.00    -0.166 F 
ENDBRANCH  17  18
ENDBRANCH  14  17
ENDBRANCH   3  11
BRANCH   8  21
ATOM     21  C   UNL     1       1.280   1.980   0.001  0.00  0.00    +0.170 C 
BRANCH  21  22
ATOM     22  S   UNL     1       2.675   0.820  -0.019  0.00  0.00    -0.114 S 
BRANCH  22  23
ATOM     23  C   UNL     1       4.096   1.862  -0.027  0.00  0.00    +0.039 A 
ATOM     24  C   UNL     1       3.943   3.246  -0.018  0.00  0.00    +0.018 A 
ATOM     25  C   UNL     1       5.040   4.059  -0.024  0.00  0.00    +0.014 A 
ATOM     26  C   UNL     1       6.323   3.503  -0.040  0.00  0.00    +0.039 A 
ATOM     27  C   UNL     1       6.480   2.113  -0.049  0.00  0.00    +0.047 A 
ATOM     28  C   UNL     1       5.370   1.299  -0.036  0.00  0.00    +0.140 A 
BRANCH  26  29
ATOM     29  C   UNL     1       7.509   4.380  -0.047  0.00  0.00    +0.242 C 
ATOM     30  O   UNL     1       8.624   3.895  -0.060  0.00  0.00    -0.270 OA
ATOM     31  N   UNL     1       7.356   5.719  -0.038  0.00  0.00    -0.325 N 
ATOM     32  H   UNL     1       8.240   6.373  -0.044  0.00  0.00    +0.145 HD
ATOM     33  H   UNL     1       6.347   6.157  -0.026  0.00  0.00    +0.145 HD
ENDBRANCH  26  29
BRANCH  28  34
ATOM     34  N   UNL     1       5.530  -0.172  -0.040  0.00  0.00    +0.058 N 
ATOM     35  O   UNL     1       6.645  -0.663  -0.048  0.00  0.00    -0.126 OA
ATOM     36  O   UNL     1       4.548  -0.892  -0.034  0.00  0.00    -0.126 OA
ENDBRANCH  28  34
ENDBRANCH  22  23
ENDBRANCH  21  22
ENDBRANCH   8  21
TORSDOF 8
