REMARK  Name = ZINC00886060
REMARK  10 active torsions:
REMARK  status: ('A' for Active; 'I' for Inactive)
REMARK    1  A    between atoms: C_1  and  C_2
REMARK    2  A    between atoms: C_5  and  C_7
REMARK    3  A    between atoms: N_10  and  C_12
REMARK    4  A    between atoms: C_12  and  C_13
REMARK    5  A    between atoms: N_15  and  C_16
REMARK    6  A    between atoms: N_15  and  C_22
REMARK    7  A    between atoms: C_16  and  C_17
REMARK    8  A    between atoms: C_22  and  C_24
REMARK    9  A    between atoms: C_22  and  C_31
REMARK   10  A    between atoms: N_33  and  C_34
REMARK                            x       y       z     vdW  Elec       q    Type
REMARK                         _______ _______ _______ _____ _____    ______ ____
ROOT
ATOM      1  C   UNL     1       3.192   1.001  -1.100  0.00  0.00    +0.240 C 
ATOM      2  O   UNL     1       2.995   1.823  -1.970  0.00  0.00    -0.273 OA
ATOM      3  N   UNL     1       2.503   1.065   0.056  0.00  0.00    -0.277 N 
ENDROOT
BRANCH   1   4
ATOM      4  C   UNL     1       4.209  -0.091  -1.312  0.00  0.00    +0.264 C 
BRANCH   4   8
ATOM      5  C   UNL     1       5.183  -0.121  -4.705  0.00  0.00    +0.239 A 
ATOM      6  N   UNL     1       6.127   0.662  -4.160  0.00  0.00    -0.105 NA
ATOM      7  N   UNL     1       5.871   0.748  -2.899  0.00  0.00    -0.045 NA
ATOM      8  N   UNL     1       4.817   0.058  -2.637  0.00  0.00    -0.154 N 
ATOM      9  N   UNL     1       4.382  -0.486  -3.721  0.00  0.00    -0.127 NA
BRANCH   5  14
ATOM     10  C   UNL     1       3.471  -2.224  -8.930  0.00  0.00    +0.086 C 
ATOM     11  C   UNL     1       4.322  -1.422  -7.979  0.00  0.00    +0.103 A 
ATOM     12  C   UNL     1       5.420  -0.716  -8.312  0.00  0.00    +0.045 A 
ATOM     13  C   UNL     1       5.901  -0.119  -7.129  0.00  0.00    +0.053 A 
ATOM     14  C   UNL     1       5.066  -0.505  -6.128  0.00  0.00    +0.175 A 
ATOM     15  O   UNL     1       4.111  -1.292  -6.659  0.00  0.00    -0.457 OA
ENDBRANCH   5  14
ENDBRANCH   4   8
ENDBRANCH   1   4
BRANCH   3  16
ATOM     16  C   UNL     1       2.742   0.072   1.107  0.00  0.00    +0.183 C 
BRANCH  16  17
ATOM     17  C   UNL     1       1.979  -1.188   0.790  0.00  0.00    +0.122 A 
ATOM     18  C   UNL     1       2.478  -2.277   0.179  0.00  0.00    +0.046 A 
ATOM     19  C   UNL     1       1.423  -3.214   0.086  0.00  0.00    +0.041 A 
ATOM     20  C   UNL     1       0.342  -2.641   0.646  0.00  0.00    +0.195 A 
ATOM     21  O   UNL     1       0.686  -1.416   1.076  0.00  0.00    -0.466 OA
ENDBRANCH  16  17
ENDBRANCH   3  16
BRANCH   3  22
ATOM     22  C   UNL     1       1.514   2.126   0.262  0.00  0.00    +0.193 C 
BRANCH  22  23
ATOM     23  C   UNL     1       2.223   3.416   0.587  0.00  0.00    -0.018 A 
ATOM     24  C   UNL     1       3.348   3.403   1.390  0.00  0.00    +0.009 A 
ATOM     25  C   UNL     1       4.002   4.584   1.684  0.00  0.00    +0.038 A 
ATOM     26  C   UNL     1       3.522   5.783   1.184  0.00  0.00    +0.123 A 
ATOM     27  C   UNL     1       2.392   5.796   0.385  0.00  0.00    +0.038 A 
ATOM     28  C   UNL     1       1.743   4.612   0.087  0.00  0.00    +0.009 A 
ATOM     29  F   UNL     1       4.157   6.939   1.476  0.00  0.00    -0.205 F 
ENDBRANCH  22  23
BRANCH  22  30
ATOM     30  C   UNL     1       0.605   1.751   1.403  0.00  0.00    +0.238 C 
ATOM     31  O   UNL     1       0.631   0.625   1.855  0.00  0.00    -0.273 OA
ATOM     32  N   UNL     1      -0.241   2.664   1.919  0.00  0.00    -0.311 N 
ATOM     33  H   UNL     1      -0.262   3.564   1.558  0.00  0.00    +0.149 HD
BRANCH  32  34
ATOM     34  C   UNL     1      -1.130   2.298   3.025  0.00  0.00    +0.073 C 
ATOM     35  C   UNL     1      -2.445   1.710   2.473  0.00  0.00    +0.022 C 
ATOM     36  C   UNL     1      -3.533   2.243   3.438  0.00  0.00    +0.002 C 
ATOM     37  C   UNL     1      -3.047   3.682   3.741  0.00  0.00    +0.002 C 
ATOM     38  C   UNL     1      -1.512   3.551   3.831  0.00  0.00    +0.022 C 
ENDBRANCH  32  34
ENDBRANCH  22  30
ENDBRANCH   3  22
TORSDOF 9
