REMARK  Name = ZINC38729936
REMARK  6 active torsions:
REMARK  status: ('A' for Active; 'I' for Inactive)
REMARK    1  A    between atoms: C_4  and  C_7
REMARK    2  A    between atoms: C_7  and  C_39
REMARK    3  A    between atoms: C_13  and  C_15
REMARK    4  A    between atoms: C_21  and  C_23
REMARK    5  A    between atoms: C_28  and  C_31
REMARK    6  A    between atoms: C_28  and  O_38
REMARK                            x       y       z     vdW  Elec       q    Type
REMARK                         _______ _______ _______ _____ _____    ______ ____
ROOT
ATOM      1  C   UNL     1       5.972  -4.845  -1.812  0.00  0.00    +0.091 C 
ATOM      2  C   UNL     1       6.516  -5.218  -0.431  0.00  0.00    +0.040 C 
ATOM      3  C   UNL     1       6.621  -6.709  -0.303  0.00  0.00    -0.030 C 
ATOM      4  C   UNL     1       6.605  -7.527  -1.307  0.00  0.00    -0.030 C 
ATOM      5  C   UNL     1       6.469  -7.097  -2.739  0.00  0.00    +0.040 C 
ATOM      6  C   UNL     1       6.774  -5.605  -2.876  0.00  0.00    +0.091 C 
ENDROOT
BRANCH   1  13
ATOM      7  C   UNL     1       3.167  -0.814  -0.741  0.00  0.00    +0.085 C 
ATOM      8  C   UNL     1       4.186  -0.416  -1.811  0.00  0.00    +0.045 C 
ATOM      9  C   UNL     1       5.542  -1.047  -1.479  0.00  0.00    +0.109 C 
ATOM     10  N   UNL     1       5.364  -2.497  -1.325  0.00  0.00    -0.301 N 
ATOM     11  C   UNL     1       4.345  -2.988  -0.387  0.00  0.00    +0.109 C 
ATOM     12  C   UNL     1       3.002  -2.336  -0.731  0.00  0.00    +0.045 C 
ATOM     13  C   UNL     1       6.120  -3.361  -2.031  0.00  0.00    +0.220 C 
ATOM     14  O   UNL     1       6.920  -2.944  -2.842  0.00  0.00    -0.275 OA
BRANCH   7  18
ATOM     15  C   UNL     1      -0.594   1.018  -1.608  0.00  0.00    +0.000 A 
ATOM     16  C   UNL     1       0.523   1.802  -1.389  0.00  0.00    +0.000 A 
ATOM     17  C   UNL     1       1.740   1.210  -1.108  0.00  0.00    +0.005 A 
ATOM     18  C   UNL     1       1.840  -0.168  -1.046  0.00  0.00    -0.027 A 
ATOM     19  C   UNL     1       0.723  -0.952  -1.264  0.00  0.00    +0.005 A 
ATOM     20  C   UNL     1      -0.494  -0.360  -1.546  0.00  0.00    +0.000 A 
ENDBRANCH   7  18
BRANCH   7  21
ATOM     21  C   UNL     1       3.640  -0.363   0.578  0.00  0.00    +0.074 C 
ATOM     22  N   UNL     1       4.005  -0.016   1.596  0.00  0.00    -0.196 NA
ENDBRANCH   7  21
ENDBRANCH   1  13
BRANCH   6  23
ATOM     23  C   UNL     1       6.376  -5.127  -4.249  0.00  0.00    +0.220 C 
ATOM     24  O   UNL     1       5.283  -4.631  -4.424  0.00  0.00    -0.275 OA
ATOM     25  N   UNL     1       7.234  -5.250  -5.281  0.00  0.00    -0.301 N 
ATOM     26  C   UNL     1       8.597  -5.754  -5.065  0.00  0.00    +0.111 C 
ATOM     27  C   UNL     1       9.593  -4.749  -5.653  0.00  0.00    +0.058 C 
ATOM     28  C   UNL     1       9.244  -4.490  -7.120  0.00  0.00    +0.094 C 
ATOM     29  C   UNL     1       7.839  -3.889  -7.213  0.00  0.00    +0.058 C 
ATOM     30  C   UNL     1       6.822  -4.889  -6.644  0.00  0.00    +0.111 C 
BRANCH  28  31
ATOM     31  C   UNL     1      10.242  -3.528  -7.711  0.00  0.00    -0.016 A 
ATOM     32  C   UNL     1      10.850  -2.582  -6.907  0.00  0.00    +0.008 A 
ATOM     33  C   UNL     1      11.765  -1.700  -7.449  0.00  0.00    +0.020 A 
ATOM     34  C   UNL     1      12.072  -1.762  -8.796  0.00  0.00    +0.041 A 
ATOM     35  C   UNL     1      11.463  -2.708  -9.601  0.00  0.00    +0.020 A 
ATOM     36  C   UNL     1      10.552  -3.594  -9.057  0.00  0.00    +0.008 A 
ATOM     37 CL   UNL     1      13.222  -0.654  -9.477  0.00  0.00    -0.084 Cl
ENDBRANCH  28  31
BRANCH  28  38
ATOM     38  O   UNL     1       9.284  -5.721  -7.843  0.00  0.00    -0.384 OA
ATOM     39  H   UNL     1       9.072  -5.633  -8.783  0.00  0.00    +0.211 HD
ENDBRANCH  28  38
ENDBRANCH   6  23
TORSDOF 6
