REMARK  Name = ZINC19499752
REMARK  14 active torsions:
REMARK  status: ('A' for Active; 'I' for Inactive)
REMARK    1  A    between atoms: C_1  and  C_2
REMARK    2  A    between atoms: C_2  and  C_3
REMARK    3  A    between atoms: C_3  and  C_4
REMARK    4  A    between atoms: C_3  and  C_5
REMARK    5  A    between atoms: C_3  and  N_6
REMARK    6  A    between atoms: C_7  and  C_11
REMARK    7  A    between atoms: C_11  and  N_12
REMARK    8  A    between atoms: N_12  and  C_13
REMARK    9  A    between atoms: N_12  and  C_19
REMARK   10  A    between atoms: C_13  and  C_14
REMARK   11  A    between atoms: C_19  and  C_20
REMARK   12  A    between atoms: C_24  and  O_32
REMARK   13  A    between atoms: O_32  and  C_33
REMARK   14  A    between atoms: C_33  and  C_34
REMARK                            x       y       z     vdW  Elec       q    Type
REMARK                         _______ _______ _______ _____ _____    ______ ____
ROOT
ATOM      1  N   UNL     1      -4.090  -2.131  -1.166  0.00  0.00    +0.390 N 
ATOM      2  H   UNL     1      -4.095  -2.873  -1.850  0.00  0.00    -0.080 HD
ENDROOT
BRANCH   1   3
ATOM      3  C   UNL     1      -3.675  -2.667   0.137  0.00  0.00    +0.001 C 
BRANCH   3   5
ATOM      4  N   UNL     1      -4.332  -5.125   0.326  0.00  0.00    -0.226 N 
ATOM      5  C   UNL     1      -4.575  -3.815   0.517  0.00  0.00    +0.136 A 
ATOM      6  N   UNL     1      -5.746  -3.730   1.100  0.00  0.00    -0.115 NA
ATOM      7  N   UNL     1      -6.198  -4.926   1.258  0.00  0.00    -0.023 NA
ATOM      8  N   UNL     1      -5.349  -5.771   0.786  0.00  0.00    -0.043 NA
BRANCH   4   9
ATOM      9  C   UNL     1      -3.139  -5.707  -0.294  0.00  0.00    +0.061 C 
ATOM     10  C   UNL     1      -1.919  -5.431   0.587  0.00  0.00    +0.036 C 
ATOM     11  C   UNL     1      -2.924  -5.080  -1.673  0.00  0.00    +0.036 C 
BRANCH   9  13
ATOM     12  C   UNL     1      -2.126  -7.811  -1.182  0.00  0.00    +0.006 C 
ATOM     13  C   UNL     1      -3.329  -7.218  -0.445  0.00  0.00    +0.026 C 
ENDBRANCH   9  13
ENDBRANCH   4   9
ENDBRANCH   3   5
ENDBRANCH   1   3
BRANCH   1  14
ATOM     14  C   UNL     1      -3.150  -1.083  -1.587  0.00  0.00    -0.035 C 
BRANCH  14  15
ATOM     15  C   UNL     1      -1.783  -1.687  -1.787  0.00  0.00    -0.027 A 
ATOM     16  C   UNL     1      -1.217  -2.160  -2.924  0.00  0.00    +0.009 A 
ATOM     17  C   UNL     1       0.065  -2.674  -2.872  0.00  0.00    +0.008 A 
ATOM     18  C   UNL     1       0.718  -2.689  -1.684  0.00  0.00    +0.045 A 
ATOM     19  S   UNL     1      -0.487  -1.956  -0.590  0.00  0.00    -0.103 S 
ENDBRANCH  14  15
ENDBRANCH   1  14
BRANCH   1  20
ATOM     20  C   UNL     1      -5.439  -1.560  -1.053  0.00  0.00    -0.036 C 
BRANCH  20  21
ATOM     21  C   UNL     1      -5.915  -1.121  -2.414  0.00  0.00    +0.001 A 
ATOM     22  C   UNL     1      -6.684  -1.950  -3.161  0.00  0.00    +0.017 A 
ATOM     23  C   UNL     1      -7.130  -1.494  -4.479  0.00  0.00    +0.002 A 
ATOM     24  C   UNL     1      -7.925  -2.307  -5.293  0.00  0.00    +0.055 A 
ATOM     25  C   UNL     1      -8.328  -1.845  -6.530  0.00  0.00    +0.121 A 
ATOM     26  C   UNL     1      -7.946  -0.578  -6.967  0.00  0.00    +0.047 A 
ATOM     27  C   UNL     1      -7.163   0.231  -6.174  0.00  0.00    +0.030 A 
ATOM     28  C   UNL     1      -6.746  -0.215  -4.924  0.00  0.00    +0.049 A 
ATOM     29  N   UNL     1      -5.961   0.581  -4.114  0.00  0.00    -0.322 N 
ATOM     30  H   UNL     1      -5.697   1.462  -4.422  0.00  0.00    +0.169 HD
ATOM     31  C   UNL     1      -5.562   0.155  -2.903  0.00  0.00    +0.251 A 
ATOM     32  O   UNL     1      -4.874   0.887  -2.213  0.00  0.00    -0.268 OA
BRANCH  25  33
ATOM     33  O   UNL     1      -9.101  -2.630  -7.326  0.00  0.00    -0.492 OA
BRANCH  33  34
ATOM     34  C   UNL     1      -9.483  -2.092  -8.594  0.00  0.00    +0.225 C 
ATOM     35  C   UNL     1     -10.344  -3.112  -9.342  0.00  0.00    +0.048 C 
ENDBRANCH  33  34
ENDBRANCH  25  33
ENDBRANCH  20  21
ENDBRANCH   1  20
TORSDOF 10
