REMARK  Name = ZINC63488716
REMARK  11 active torsions:
REMARK  status: ('A' for Active; 'I' for Inactive)
REMARK    1  A    between atoms: C_1  and  C_2
REMARK    2  A    between atoms: C_2  and  C_3
REMARK    3  A    between atoms: C_2  and  C_4
REMARK    4  A    between atoms: C_2  and  O_5
REMARK    5  A    between atoms: O_5  and  C_6
REMARK    6  A    between atoms: C_11  and  C_14
REMARK    7  A    between atoms: C_16  and  C_27
REMARK    8  A    between atoms: N_19  and  C_20
REMARK    9  A    between atoms: N_29  and  C_30
REMARK   10  A    between atoms: C_30  and  C_31
REMARK   11  A    between atoms: C_31  and  C_32
REMARK                            x       y       z     vdW  Elec       q    Type
REMARK                         _______ _______ _______ _____ _____    ______ ____
ROOT
ATOM      1  C   UNL     1       4.984  -3.016  -4.544  0.00  0.00    +0.134 C 
ATOM      2  C   UNL     1       4.567  -4.188  -5.406  0.00  0.00    +0.051 C 
ATOM      3  C   UNL     1       5.644  -4.545  -6.130  0.00  0.00    +0.098 C 
ATOM      4  N   UNL     1       6.718  -3.759  -5.855  0.00  0.00    -0.270 N 
ATOM      5  N   UNL     1       6.398  -2.793  -4.888  0.00  0.00    -0.246 N 
ATOM      6  H   UNL     1       7.589  -3.853  -6.271  0.00  0.00    +0.169 HD
ENDROOT
BRANCH   1  12
ATOM      7  C   UNL     1       0.868  -0.287  -6.852  0.00  0.00    +0.403 C 
ATOM      8  O   UNL     1      -0.224  -0.377  -6.328  0.00  0.00    -0.226 OA
ATOM      9  N   UNL     1       1.985  -0.437  -6.114  0.00  0.00    -0.267 N 
ATOM     10  C   UNL     1       3.313  -0.324  -6.732  0.00  0.00    +0.111 C 
ATOM     11  C   UNL     1       4.120  -1.583  -6.400  0.00  0.00    +0.025 C 
ATOM     12  C   UNL     1       4.149  -1.779  -4.882  0.00  0.00    +0.019 C 
ATOM     13  C   UNL     1       2.722  -1.970  -4.364  0.00  0.00    +0.025 C 
ATOM     14  C   UNL     1       1.898  -0.711  -4.673  0.00  0.00    +0.111 C 
BRANCH   7  15
ATOM     15  O   UNL     1       0.962  -0.036  -8.172  0.00  0.00    -0.445 OA
BRANCH  15  17
ATOM     16  C   UNL     1      -1.061   1.279  -8.309  0.00  0.00    +0.055 C 
ATOM     17  C   UNL     1      -0.262   0.111  -8.893  0.00  0.00    +0.107 C 
ATOM     18  C   UNL     1      -1.082  -1.176  -8.777  0.00  0.00    +0.055 C 
ATOM     19  C   UNL     1       0.044   0.389 -10.367  0.00  0.00    +0.055 C 
ENDBRANCH  15  17
ENDBRANCH   7  15
ENDBRANCH   1  12
BRANCH   5  20
ATOM     20  C   UNL     1       7.247  -1.816  -4.360  0.00  0.00    +0.048 A 
ATOM     21  C   UNL     1       6.825  -1.028  -3.297  0.00  0.00    +0.027 A 
ATOM     22  C   UNL     1       7.665  -0.063  -2.777  0.00  0.00    +0.040 A 
ATOM     23  C   UNL     1       8.929   0.118  -3.314  0.00  0.00    +0.124 A 
ATOM     24  C   UNL     1       9.352  -0.666  -4.374  0.00  0.00    +0.040 A 
ATOM     25  C   UNL     1       8.517  -1.636  -4.893  0.00  0.00    +0.027 A 
ATOM     26  F   UNL     1       9.749   1.063  -2.804  0.00  0.00    -0.205 F 
ENDBRANCH   5  20
BRANCH   2  27
ATOM     27  C   UNL     1       3.289  -4.793  -5.444  0.00  0.00    +0.243 C 
ATOM     28  O   UNL     1       2.991  -5.531  -6.366  0.00  0.00    -0.270 OA
ATOM     29  N   UNL     1       2.401  -4.553  -4.459  0.00  0.00    -0.311 N 
ATOM     30  H   UNL     1       2.662  -4.027  -3.687  0.00  0.00    +0.149 HD
BRANCH  29  31
ATOM     31  C   UNL     1       1.040  -5.087  -4.554  0.00  0.00    +0.109 C 
BRANCH  31  32
ATOM     32  C   UNL     1       0.241  -4.673  -3.316  0.00  0.00    +0.052 C 
BRANCH  32  33
ATOM     33  C   UNL     1      -1.159  -5.222  -3.414  0.00  0.00    -0.040 C 
ATOM     34  C   UNL     1      -1.620  -6.374  -2.876  0.00  0.00    -0.001 A 
ATOM     35  C   UNL     1      -0.981  -7.420  -2.069  0.00  0.00    +0.010 A 
ATOM     36  C   UNL     1      -1.717  -8.481  -1.667  0.00  0.00    +0.001 A 
ATOM     37  C   UNL     1      -3.073  -8.605  -2.001  0.00  0.00    +0.002 A 
ATOM     38  C   UNL     1      -3.730  -7.686  -2.739  0.00  0.00    +0.026 A 
ATOM     39  C   UNL     1      -3.053  -6.529  -3.215  0.00  0.00    +0.043 A 
ATOM     40  N   UNL     1      -3.461  -5.513  -3.935  0.00  0.00    -0.380 N 
ATOM     41  C   UNL     1      -2.334  -4.594  -4.130  0.00  0.00    +0.144 C 
ATOM     42  H   UNL     1      -4.359  -5.387  -4.279  0.00  0.00    +0.160 HD
ENDBRANCH  32  33
ENDBRANCH  31  32
ENDBRANCH  29  31
ENDBRANCH   2  27
TORSDOF 8
