REMARK  Name = ZINC46705352
REMARK  5 active torsions:
REMARK  status: ('A' for Active; 'I' for Inactive)
REMARK    1  A    between atoms: C_1  and  C_2
REMARK    2  A    between atoms: C_17  and  C_19
REMARK    3  A    between atoms: C_19  and  C_20
REMARK    4  A    between atoms: C_23  and  S_25
REMARK    5  A    between atoms: S_25  and  N_28
REMARK                            x       y       z     vdW  Elec       q    Type
REMARK                         _______ _______ _______ _____ _____    ______ ____
ROOT
ATOM      1  C   UNL     1      -0.046   1.619   0.079  0.00  0.00    +0.033 C 
ATOM      2  C   UNL     1       0.169   0.114  -0.086  0.00  0.00    +0.104 C 
ATOM      3  C   UNL     1       0.880  -0.149  -1.389  0.00  0.00    -0.020 A 
ATOM      4  C   UNL     1       0.377   0.455  -2.534  0.00  0.00    +0.055 A 
ATOM      5  C   UNL     1       0.974   0.242  -3.764  0.00  0.00    +0.162 A 
ATOM      6  C   UNL     1       2.088  -0.585  -3.850  0.00  0.00    +0.162 A 
ATOM      7  C   UNL     1       2.590  -1.180  -2.706  0.00  0.00    +0.054 A 
ATOM      8  C   UNL     1       1.992  -0.956  -1.471  0.00  0.00    -0.031 A 
ATOM      9  C   UNL     1       2.617  -1.603  -0.265  0.00  0.00    +0.012 C 
ATOM     10  C   UNL     1       3.105  -3.015  -0.630  0.00  0.00    +0.013 C 
ATOM     11  C   UNL     1       4.633  -3.023  -0.416  0.00  0.00    +0.001 C 
ATOM     12  C   UNL     1       4.879  -1.882   0.603  0.00  0.00    +0.001 C 
ATOM     13  C   UNL     1       3.865  -0.800   0.156  0.00  0.00    +0.013 C 
ATOM     14  C   UNL     1       1.642  -1.679   0.902  0.00  0.00    +0.120 C 
ATOM     15  N   UNL     1       0.963  -0.387   1.033  0.00  0.00    -0.294 N 
ATOM     16  C   UNL     1       1.066   0.326   2.172  0.00  0.00    +0.221 C 
ATOM     17  O   UNL     1       0.420   1.343   2.311  0.00  0.00    -0.275 OA
ATOM     18  O   UNL     1       2.694  -0.814  -5.048  0.00  0.00    -0.485 OA
ATOM     19  C   UNL     1       1.940  -0.494  -6.222  0.00  0.00    +0.270 C 
ATOM     20  C   UNL     1       1.311   0.893  -6.026  0.00  0.00    +0.270 C 
ATOM     21  O   UNL     1       0.463   0.841  -4.873  0.00  0.00    -0.485 OA
ENDROOT
BRANCH  16  22
ATOM     22  C   UNL     1       1.985  -0.140   3.272  0.00  0.00    +0.138 C 
BRANCH  22  23
ATOM     23  C   UNL     1       2.016   0.891   4.371  0.00  0.00    +0.000 A 
ATOM     24  C   UNL     1       1.228   0.992   5.469  0.00  0.00    +0.013 A 
ATOM     25  C   UNL     1       1.440   2.033   6.353  0.00  0.00    +0.036 A 
ATOM     26  C   UNL     1       2.430   2.922   6.096  0.00  0.00    +0.142 A 
ATOM     27  S   UNL     1       3.105   2.292   4.568  0.00  0.00    -0.073 S 
BRANCH  26  28
ATOM     28  S   UNL     1       2.926   4.331   7.031  0.00  0.00    +0.062 S 
ATOM     29  O   UNL     1       3.573   5.213   6.123  0.00  0.00    -0.153 OA
ATOM     30  O   UNL     1       1.800   4.724   7.803  0.00  0.00    -0.153 OA
BRANCH  28  31
ATOM     31  N   UNL     1       4.082   3.825   8.103  0.00  0.00    -0.203 NA
ATOM     32  H   UNL     1       4.777   4.437   8.392  0.00  0.00    +0.144 HD
ATOM     33  H   UNL     1       4.064   2.916   8.442  0.00  0.00    +0.144 HD
ENDBRANCH  28  31
ENDBRANCH  26  28
ENDBRANCH  22  23
ENDBRANCH  16  22
TORSDOF 4
