REMARK  Name = ZINC33679309
REMARK  8 active torsions:
REMARK  status: ('A' for Active; 'I' for Inactive)
REMARK    1  A    between atoms: C_1  and  C_2
REMARK    2  A    between atoms: C_6  and  C_8
REMARK    3  A    between atoms: C_14  and  C_16
REMARK    4  A    between atoms: C_16  and  C_18
REMARK    5  A    between atoms: C_16  and  N_21
REMARK    6  A    between atoms: C_18  and  C_19
REMARK    7  A    between atoms: C_18  and  C_20
REMARK    8  A    between atoms: N_24  and  C_25
REMARK                            x       y       z     vdW  Elec       q    Type
REMARK                         _______ _______ _______ _____ _____    ______ ____
ROOT
ATOM      1  C   UNL     1      -0.506  11.466   0.685  0.00  0.00    +0.163 C 
ENDROOT
BRANCH   1   8
ATOM      2  C   UNL     1      -0.656   5.110   0.957  0.00  0.00    +0.134 A 
ATOM      3  N   UNL     1       0.297   5.860   0.418  0.00  0.00    -0.140 NA
ATOM      4  N   UNL     1       0.212   7.119   0.449  0.00  0.00    -0.125 NA
ATOM      5  C   UNL     1      -0.809   7.738   1.020  0.00  0.00    +0.188 A 
ATOM      6  S   UNL     1      -1.754   6.384   1.566  0.00  0.00    -0.030 S 
ATOM      7  N   UNL     1      -1.058   9.099   1.147  0.00  0.00    -0.262 N 
ATOM      8  C   UNL     1      -0.184   9.994   0.646  0.00  0.00    +0.239 C 
ATOM      9  O   UNL     1       0.862   9.615   0.163  0.00  0.00    -0.273 OA
ATOM     10  H   UNL     1      -1.968   9.446   1.658  0.00  0.00    +0.157 HD
BRANCH   2  16
ATOM     11  C   UNL     1       1.170   0.572  -0.031  0.00  0.00    +0.044 C 
ATOM     12  C   UNL     1       0.102   1.452   0.565  0.00  0.00    -0.050 A 
ATOM     13  C   UNL     1      -0.993   0.882   1.190  0.00  0.00    +0.003 A 
ATOM     14  C   UNL     1      -1.981   1.682   1.734  0.00  0.00    +0.001 A 
ATOM     15  C   UNL     1      -1.875   3.057   1.667  0.00  0.00    +0.010 A 
ATOM     16  C   UNL     1      -0.773   3.638   1.038  0.00  0.00    +0.009 A 
ATOM     17  C   UNL     1       0.217   2.825   0.486  0.00  0.00    +0.014 A 
ENDBRANCH   2  16
ENDBRANCH   1   8
BRANCH   1  18
ATOM     18  N   UNL     1       0.728  12.240   0.534  0.00  0.00    -0.288 N 
ATOM     19  C   UNL     1       0.800  13.495   1.023  0.00  0.00    +0.305 C 
ATOM     20  O   UNL     1      -0.159  13.983   1.588  0.00  0.00    -0.252 OA
ATOM     21  N   UNL     1       1.935  14.207   0.884  0.00  0.00    -0.267 N 
ATOM     22  H   UNL     1       1.596  11.798   0.023  0.00  0.00    +0.151 HD
ATOM     23  H   UNL     1       2.770  13.803   0.293  0.00  0.00    +0.156 HD
BRANCH  21  24
ATOM     24  C   UNL     1       2.053  15.464   1.493  0.00  0.00    +0.070 A 
ATOM     25  C   UNL     1       1.211  15.810   2.541  0.00  0.00    +0.029 A 
ATOM     26  C   UNL     1       1.328  17.049   3.140  0.00  0.00    +0.040 A 
ATOM     27  C   UNL     1       2.284  17.947   2.697  0.00  0.00    +0.126 A 
ATOM     28  C   UNL     1       3.126  17.606   1.652  0.00  0.00    +0.078 A 
ATOM     29  C   UNL     1       3.017  16.364   1.053  0.00  0.00    +0.147 A 
ATOM     30  F   UNL     1       3.842  16.028   0.037  0.00  0.00    -0.203 F 
ATOM     31  F   UNL     1       2.397  19.159   3.285  0.00  0.00    -0.205 F 
ENDBRANCH  21  24
ENDBRANCH   1  18
BRANCH   1  32
ATOM     32  C   UNL     1      -1.466  11.808  -0.456  0.00  0.00    +0.012 C 
ATOM     33  C   UNL     1      -1.884  13.276  -0.348  0.00  0.00    +0.009 C 
ATOM     34  C   UNL     1      -0.767  11.575  -1.797  0.00  0.00    +0.009 C 
ENDBRANCH   1  32
TORSDOF 5
