REMARK  Name = ZINC27850927
REMARK  4 active torsions:
REMARK  status: ('A' for Active; 'I' for Inactive)
REMARK    1  A    between atoms: C_1  and  C_2
REMARK    2  A    between atoms: C_7  and  C_8
REMARK    3  A    between atoms: N_10  and  C_11
REMARK    4  A    between atoms: C_16  and  C_19
REMARK                            x       y       z     vdW  Elec       q    Type
REMARK                         _______ _______ _______ _____ _____    ______ ____
ROOT
ATOM      1  C   UNL     1      -1.178  -0.878   0.010  0.00  0.00    +0.261 C 
ATOM      2  O   UNL     1      -1.039  -2.087   0.002  0.00  0.00    -0.269 OA
ATOM      3  N   UNL     1      -2.414  -0.342   0.026  0.00  0.00    -0.307 N 
ATOM      4  H   UNL     1      -2.539   0.751   0.034  0.00  0.00    +0.149 HD
ENDROOT
BRANCH   1  11
ATOM      5  C   UNL     1       1.794  -1.845  -0.027  0.00  0.00    +0.047 C 
ATOM      6  C   UNL     1       1.304  -0.420  -0.015  0.00  0.00    -0.010 A 
ATOM      7  C   UNL     1       2.094   0.736  -0.017  0.00  0.00    +0.042 A 
ATOM      8  C   UNL     1       1.235   1.836   0.000  0.00  0.00    +0.027 A 
ATOM      9  N   UNL     1      -0.017   1.378   0.010  0.00  0.00    -0.354 N 
ATOM     10  H   UNL     1      -0.860   2.083   0.021  0.00  0.00    +0.166 HD
ATOM     11  C   UNL     1       0.002  -0.004   0.002  0.00  0.00    +0.106 A 
ATOM     12  C   UNL     1       1.730   3.260   0.009  0.00  0.00    +0.054 C 
ATOM     13  C   UNL     1       3.180   3.288   0.501  0.00  0.00    +0.014 C 
ATOM     14  C   UNL     1       4.044   2.315  -0.307  0.00  0.00    +0.080 C 
ATOM     15  C   UNL     1       3.556   0.899  -0.037  0.00  0.00    +0.165 C 
ATOM     16  O   UNL     1       4.317  -0.027   0.149  0.00  0.00    -0.292 OA
ENDBRANCH   1  11
BRANCH   3  17
ATOM     17  C   UNL     1      -3.591  -1.214   0.034  0.00  0.00    +0.074 C 
ATOM     18  C   UNL     1      -3.910  -1.627   1.473  0.00  0.00    +0.022 C 
ATOM     19  C   UNL     1      -5.140  -2.538   1.481  0.00  0.00    +0.002 C 
ATOM     20  C   UNL     1      -6.334  -1.787   0.888  0.00  0.00    +0.012 C 
ATOM     21  C   UNL     1      -6.015  -1.375  -0.550  0.00  0.00    +0.095 C 
ATOM     22  C   UNL     1      -4.786  -0.464  -0.558  0.00  0.00    +0.034 C 
BRANCH  21  23
ATOM     23  C   UNL     1      -7.210  -0.624  -1.142  0.00  0.00    +0.393 C 
ATOM     24  F   UNL     1      -7.470   0.517  -0.376  0.00  0.00    -0.170 F 
ATOM     25  F   UNL     1      -6.918  -0.247  -2.457  0.00  0.00    -0.170 F 
ATOM     26  F   UNL     1      -8.334  -1.457  -1.135  0.00  0.00    -0.170 F 
ENDBRANCH  21  23
ENDBRANCH   3  17
TORSDOF 3
