REMARK  Name = ZINC06301322
REMARK  18 active torsions:
REMARK  status: ('A' for Active; 'I' for Inactive)
REMARK    1  A    between atoms: C_1  and  C_2
REMARK    2  A    between atoms: C_4  and  C_35
REMARK    3  A    between atoms: C_7  and  C_14
REMARK    4  A    between atoms: C_14  and  N_15
REMARK    5  A    between atoms: N_15  and  C_16
REMARK    6  A    between atoms: N_15  and  C_20
REMARK    7  A    between atoms: C_16  and  C_17
REMARK    8  A    between atoms: C_17  and  N_71
REMARK    9  A    between atoms: C_18  and  N_71
REMARK   10  A    between atoms: C_19  and  N_71
REMARK   11  A    between atoms: C_20  and  N_22
REMARK   12  A    between atoms: N_22  and  C_23
REMARK   13  A    between atoms: C_23  and  C_24
REMARK   14  A    between atoms: C_24  and  C_25
REMARK   15  A    between atoms: C_28  and  O_33
REMARK   16  A    between atoms: C_29  and  O_31
REMARK   17  A    between atoms: O_31  and  C_32
REMARK   18  A    between atoms: O_33  and  C_34
REMARK                            x       y       z     vdW  Elec       q    Type
REMARK                         _______ _______ _______ _____ _____    ______ ____
ROOT
ATOM      1  N   UNL     1      -0.996   1.765  -3.548  0.00  0.00    -0.310 N 
ENDROOT
BRANCH   1   2
ATOM      2  C   UNL     1      -0.428   1.337  -2.403  0.00  0.00    +0.133 C 
ATOM      3  S   UNL     1       0.952   0.326  -2.457  0.00  0.00    -0.019 S 
BRANCH   2   4
ATOM      4  N   UNL     1      -0.948   1.704  -1.214  0.00  0.00    -0.326 N 
ATOM      5  H   UNL     1      -1.730   2.277  -1.184  0.00  0.00    +0.148 HD
BRANCH   4   6
ATOM      6  C   UNL     1      -0.331   1.239   0.030  0.00  0.00    +0.108 C 
BRANCH   6   7
ATOM      7  C   UNL     1      -1.109   1.796   1.224  0.00  0.00    +0.054 C 
BRANCH   7   8
ATOM      8  C   UNL     1      -0.475   1.317   2.505  0.00  0.00    -0.042 A 
ATOM      9  C   UNL     1      -0.896   0.134   3.083  0.00  0.00    +0.007 A 
ATOM     10  C   UNL     1      -0.314  -0.312   4.254  0.00  0.00    +0.049 A 
ATOM     11  C   UNL     1       0.688   0.432   4.857  0.00  0.00    +0.161 A 
ATOM     12  C   UNL     1       1.108   1.625   4.278  0.00  0.00    +0.162 A 
ATOM     13  C   UNL     1       0.524   2.064   3.101  0.00  0.00    +0.053 A 
BRANCH  12  14
ATOM     14  O   UNL     1       2.091   2.359   4.866  0.00  0.00    -0.491 OA
ATOM     15  C   UNL     1       2.471   3.573   4.215  0.00  0.00    +0.277 C 
ENDBRANCH  12  14
BRANCH  11  16
ATOM     16  O   UNL     1       1.258  -0.003   6.013  0.00  0.00    -0.491 OA
ATOM     17  C   UNL     1       0.777  -1.236   6.550  0.00  0.00    +0.277 C 
ENDBRANCH  11  16
ENDBRANCH   7   8
ENDBRANCH   6   7
ENDBRANCH   4   6
ENDBRANCH   2   4
ENDBRANCH   1   2
BRANCH   1  18
ATOM     18  C   UNL     1      -0.368   1.458  -4.835  0.00  0.00    +0.147 C 
BRANCH  18  25
ATOM     19  C   UNL     1      -2.928  -5.618  -7.481  0.00  0.00    +0.044 C 
ATOM     20  C   UNL     1      -2.270  -4.401  -6.882  0.00  0.00    -0.048 A 
ATOM     21  C   UNL     1      -1.111  -4.546  -6.132  0.00  0.00    +0.007 A 
ATOM     22  C   UNL     1      -0.499  -3.457  -5.581  0.00  0.00    -0.041 A 
ATOM     23  C   UNL     1      -1.046  -2.183  -5.772  0.00  0.00    +0.002 A 
ATOM     24  C   UNL     1      -0.413  -0.993  -5.200  0.00  0.00    +0.020 A 
ATOM     25  C   UNL     1      -0.991   0.214  -5.415  0.00  0.00    +0.035 A 
ATOM     26  C   UNL     1      -2.170   0.311  -6.184  0.00  0.00    +0.254 A 
ATOM     27  O   UNL     1      -2.671   1.407  -6.369  0.00  0.00    -0.268 OA
ATOM     28  N   UNL     1      -2.756  -0.775  -6.718  0.00  0.00    -0.322 N 
ATOM     29  H   UNL     1      -3.566  -0.673  -7.242  0.00  0.00    +0.169 HD
ATOM     30  C   UNL     1      -2.221  -2.032  -6.532  0.00  0.00    +0.050 A 
ATOM     31  C   UNL     1      -2.826  -3.156  -7.084  0.00  0.00    +0.029 A 
ATOM     32  C   UNL     1       0.760  -3.625  -4.769  0.00  0.00    +0.044 C 
ENDBRANCH  18  25
ENDBRANCH   1  18
BRANCH   1  33
ATOM     33  C   UNL     1      -2.240   2.536  -3.505  0.00  0.00    +0.088 C 
BRANCH  33  34
ATOM     34  C   UNL     1      -1.913   4.028  -3.409  0.00  0.00    -0.060 C 
BRANCH  34  37
ATOM     35  C   UNL     1      -2.896   6.209  -3.038  0.00  0.00    -0.097 C 
ATOM     36  C   UNL     1      -3.896   4.685  -4.633  0.00  0.00    -0.097 C 
ATOM     37  N   UNL     1      -3.177   4.790  -3.345  0.00  0.00    +0.377 N 
ATOM     38  H   UNL     1      -3.766   4.398  -2.602  0.00  0.00    -0.083 HD
ENDBRANCH  34  37
ENDBRANCH  33  34
ENDBRANCH   1  33
TORSDOF 12
