REMARK  Name = ZINC44662859
REMARK  9 active torsions:
REMARK  status: ('A' for Active; 'I' for Inactive)
REMARK    1  A    between atoms: C_1  and  C_2
REMARK    2  A    between atoms: C_4  and  C_12
REMARK    3  A    between atoms: C_12  and  C_14
REMARK    4  A    between atoms: C_14  and  S_15
REMARK    5  A    between atoms: S_15  and  C_16
REMARK    6  A    between atoms: C_19  and  C_21
REMARK    7  A    between atoms: C_21  and  C_23
REMARK    8  A    between atoms: C_21  and  O_24
REMARK    9  A    between atoms: O_24  and  C_25
REMARK                            x       y       z     vdW  Elec       q    Type
REMARK                         _______ _______ _______ _____ _____    ______ ____
ROOT
ATOM      1  S   UNL     1       1.255  -0.299  -5.007  0.00  0.00    -0.058 S 
ENDROOT
BRANCH   1   2
ATOM      2  C   UNL     1       2.151  -1.062  -6.319  0.00  0.00    +0.278 A 
ATOM      3  N   UNL     1       3.267  -1.740  -6.207  0.00  0.00    -0.101 NA
ATOM      4  N   UNL     1       3.634  -2.150  -7.370  0.00  0.00    -0.108 NA
ATOM      5  C   UNL     1       2.775  -1.754  -8.263  0.00  0.00    +0.258 A 
ATOM      6  O   UNL     1       1.813  -1.061  -7.622  0.00  0.00    -0.412 OA
BRANCH   5   7
ATOM      7  C   UNL     1       2.841  -2.024  -9.744  0.00  0.00    +0.257 C 
ATOM      8  C   UNL     1       3.911  -1.134 -10.378  0.00  0.00    +0.062 C 
BRANCH   7   9
ATOM      9  O   UNL     1       3.172  -3.397  -9.963  0.00  0.00    -0.477 OA
BRANCH   9  10
ATOM     10  C   UNL     1       2.781  -3.946 -11.144  0.00  0.00    +0.157 A 
ATOM     11  C   UNL     1       2.193  -3.152 -12.118  0.00  0.00    +0.048 A 
ATOM     12  C   UNL     1       1.796  -3.712 -13.317  0.00  0.00    +0.004 A 
ATOM     13  C   UNL     1       1.984  -5.062 -13.548  0.00  0.00    +0.003 A 
ATOM     14  C   UNL     1       2.569  -5.857 -12.580  0.00  0.00    +0.042 A 
ATOM     15  C   UNL     1       2.974  -5.301 -11.380  0.00  0.00    +0.165 A 
ATOM     16  F   UNL     1       3.552  -6.076 -10.436  0.00  0.00    -0.202 F 
ENDBRANCH   9  10
ENDBRANCH   7   9
ENDBRANCH   5   7
ENDBRANCH   1   2
BRANCH   1  17
ATOM     17  C   UNL     1       2.240  -0.672  -3.530  0.00  0.00    +0.158 C 
BRANCH  17  18
ATOM     18  C   UNL     1       1.576  -0.069  -2.318  0.00  0.00    +0.172 C 
ATOM     19  O   UNL     1       0.540   0.552  -2.440  0.00  0.00    -0.291 OA
BRANCH  18  22
ATOM     20  C   UNL     1       1.563   1.835   0.231  0.00  0.00    +0.035 C 
ATOM     21  C   UNL     1       1.637   0.307   0.273  0.00  0.00    +0.111 C 
ATOM     22  C   UNL     1       2.159  -0.225  -1.043  0.00  0.00    +0.027 C 
ATOM     23  C   UNL     1       3.328  -0.898  -0.734  0.00  0.00    +0.006 A 
ATOM     24  C   UNL     1       4.268  -1.605  -1.521  0.00  0.00    +0.010 A 
ATOM     25  C   UNL     1       5.345  -2.180  -0.942  0.00  0.00    +0.001 A 
ATOM     26  C   UNL     1       5.587  -2.109   0.440  0.00  0.00    +0.002 A 
ATOM     27  C   UNL     1       4.752  -1.458   1.278  0.00  0.00    +0.026 A 
ATOM     28  C   UNL     1       3.553  -0.804   0.729  0.00  0.00    +0.043 A 
ATOM     29  N   UNL     1       2.596  -0.123   1.296  0.00  0.00    -0.377 N 
ATOM     30  H   UNL     1       2.529   0.069   2.244  0.00  0.00    +0.160 HD
ENDBRANCH  18  22
ENDBRANCH  17  18
ENDBRANCH   1  17
TORSDOF 7
