REMARK  Name = ZINC24762134
REMARK  12 active torsions:
REMARK  status: ('A' for Active; 'I' for Inactive)
REMARK    1  A    between atoms: C_1  and  C_2
REMARK    2  A    between atoms: C_2  and  C_3
REMARK    3  A    between atoms: C_2  and  C_4
REMARK    4  A    between atoms: C_4  and  C_6
REMARK    5  A    between atoms: C_4  and  N_12
REMARK    6  A    between atoms: N_12  and  C_13
REMARK    7  A    between atoms: C_15  and  C_21
REMARK    8  A    between atoms: C_18  and  O_19
REMARK    9  A    between atoms: O_19  and  C_20
REMARK   10  A    between atoms: C_21  and  C_22
REMARK   11  A    between atoms: C_21  and  C_23
REMARK   12  A    between atoms: C_21  and  C_24
REMARK                            x       y       z     vdW  Elec       q    Type
REMARK                         _______ _______ _______ _____ _____    ______ ____
ROOT
ATOM      1  N   UNL     1      -1.426   2.523   4.040  0.00  0.00    -0.330 N 
ATOM      2  H   UNL     1      -1.439   2.816   2.980  0.00  0.00    +0.147 HD
ENDROOT
BRANCH   1   3
ATOM      3  C   UNL     1      -0.287   1.920   4.586  0.00  0.00    +0.070 A 
ATOM      4  C   UNL     1      -0.300   1.467   5.897  0.00  0.00    +0.030 A 
ATOM      5  C   UNL     1       0.827   0.872   6.433  0.00  0.00    -0.040 A 
ATOM      6  C   UNL     1       1.967   0.726   5.666  0.00  0.00    +0.008 A 
ATOM      7  C   UNL     1       1.986   1.170   4.356  0.00  0.00    +0.048 A 
ATOM      8  C   UNL     1       0.863   1.773   3.813  0.00  0.00    +0.141 A 
BRANCH   5   9
ATOM      9  C   UNL     1       0.811   0.381   7.858  0.00  0.00    -0.013 C 
ATOM     10  C   UNL     1      -0.281  -0.678   8.020  0.00  0.00    +0.015 C 
ATOM     11  C   UNL     1       2.171  -0.232   8.201  0.00  0.00    +0.015 C 
ATOM     12  C   UNL     1       0.528   1.554   8.799  0.00  0.00    +0.015 C 
ENDBRANCH   5   9
BRANCH   8  13
ATOM     13  O   UNL     1       0.882   2.215   2.527  0.00  0.00    -0.493 OA
ATOM     14  C   UNL     1       2.095   2.030   1.795  0.00  0.00    +0.277 C 
ENDBRANCH   8  13
ENDBRANCH   1   3
BRANCH   1  15
ATOM     15  C   UNL     1      -2.601   2.764   4.881  0.00  0.00    +0.160 C 
BRANCH  15  16
ATOM     16  C   UNL     1      -3.188   4.112   4.551  0.00  0.00    +0.241 C 
ATOM     17  O   UNL     1      -2.893   4.663   3.512  0.00  0.00    -0.273 OA
ATOM     18  N   UNL     1      -4.040   4.705   5.410  0.00  0.00    -0.239 N 
ATOM     19  C   UNL     1      -4.641   5.863   5.071  0.00  0.00    +0.303 C 
ATOM     20  O   UNL     1      -4.415   6.372   3.990  0.00  0.00    -0.253 OA
ATOM     21  N   UNL     1      -5.494   6.456   5.930  0.00  0.00    -0.313 N 
ATOM     22  H   UNL     1      -4.245   4.245   6.388  0.00  0.00    +0.159 HD
ATOM     23  H   UNL     1      -5.985   7.401   5.653  0.00  0.00    +0.146 HD
ATOM     24  H   UNL     1      -5.699   5.995   6.908  0.00  0.00    +0.146 HD
ENDBRANCH  15  16
BRANCH  15  26
ATOM     25  C   UNL     1      -3.972   1.627   3.128  0.00  0.00    +0.009 C 
ATOM     26  C   UNL     1      -3.645   1.676   4.623  0.00  0.00    +0.012 C 
ATOM     27  C   UNL     1      -3.092   0.321   5.068  0.00  0.00    +0.009 C 
ENDBRANCH  15  26
ENDBRANCH   1  15
TORSDOF 6
