REMARK  Name = ZINC42107243
REMARK  6 active torsions:
REMARK  status: ('A' for Active; 'I' for Inactive)
REMARK    1  A    between atoms: C_1  and  C_2
REMARK    2  A    between atoms: C_5  and  C_19
REMARK    3  A    between atoms: C_8  and  N_13
REMARK    4  A    between atoms: N_13  and  C_14
REMARK    5  A    between atoms: C_14  and  C_15
REMARK    6  A    between atoms: N_17  and  C_18
REMARK                            x       y       z     vdW  Elec       q    Type
REMARK                         _______ _______ _______ _____ _____    ______ ____
ROOT
ATOM      1  C   UNL     1      -0.018   1.503   0.010  0.00  0.00    +0.044 C 
ATOM      2  C   UNL     1       0.002  -0.004   0.002  0.00  0.00    -0.044 A 
ATOM      3  C   UNL     1       0.006  -0.691  -1.200  0.00  0.00    +0.004 A 
ATOM      4  C   UNL     1       0.025  -2.073  -1.202  0.00  0.00    +0.005 A 
ATOM      5  C   UNL     1       0.040  -2.773  -0.013  0.00  0.00    -0.029 A 
ATOM      6  C   UNL     1       0.036  -2.089   1.200  0.00  0.00    +0.042 A 
ATOM      7  C   UNL     1       0.023  -0.700   1.190  0.00  0.00    +0.003 A 
ATOM      8  C   UNL     1       0.030  -0.263   2.636  0.00  0.00    +0.174 C 
ATOM      9  C   UNL     1       0.055  -1.562   3.413  0.00  0.00    +0.239 C 
ATOM     10  O   UNL     1       0.068  -1.680   4.620  0.00  0.00    -0.273 OA
ATOM     11  N   UNL     1       0.048  -2.561   2.514  0.00  0.00    -0.283 N 
ATOM     12  C   UNL     1       0.061  -4.279  -0.028  0.00  0.00    +0.045 C 
ATOM     13  H   UNL     1       0.061  -3.501   2.750  0.00  0.00    +0.155 HD
ENDROOT
BRANCH   8  14
ATOM     14  N   UNL     1       1.228   0.537   2.927  0.00  0.00    -0.294 NA
ATOM     15  H   UNL     1       2.027  -0.056   3.091  0.00  0.00    +0.123 HD
BRANCH  14  16
ATOM     16  C   UNL     1       0.997   1.436   4.065  0.00  0.00    +0.178 C 
BRANCH  16  17
ATOM     17  C   UNL     1       2.244   2.238   4.332  0.00  0.00    +0.227 C 
ATOM     18  O   UNL     1       3.229   2.077   3.643  0.00  0.00    -0.274 OA
ATOM     19  N   UNL     1       2.266   3.135   5.338  0.00  0.00    -0.317 N 
ATOM     20  C   UNL     1       3.479   3.915   5.598  0.00  0.00    +0.128 C 
ATOM     21  H   UNL     1       1.479   3.264   5.890  0.00  0.00    +0.148 HD
ENDBRANCH  16  17
ENDBRANCH  14  16
ENDBRANCH   8  14
TORSDOF 3
