REMARK  Name = ZINC67541769
REMARK  7 active torsions:
REMARK  status: ('A' for Active; 'I' for Inactive)
REMARK    1  A    between atoms: C_1  and  C_2
REMARK    2  A    between atoms: C_7  and  O_8
REMARK    3  A    between atoms: C_13  and  C_15
REMARK    4  A    between atoms: C_17  and  C_21
REMARK    5  A    between atoms: C_21  and  C_22
REMARK    6  A    between atoms: C_21  and  C_23
REMARK    7  A    between atoms: C_21  and  C_24
REMARK                            x       y       z     vdW  Elec       q    Type
REMARK                         _______ _______ _______ _____ _____    ______ ____
ROOT
ATOM      1  C   UNL     1      -0.018   1.503   0.010  0.00  0.00    +0.047 C 
ATOM      2  C   UNL     1       0.002  -0.004   0.002  0.00  0.00    -0.009 A 
ATOM      3  C   UNL     1       0.006  -0.688  -1.199  0.00  0.00    +0.013 A 
ATOM      4  C   UNL     1       0.025  -2.068  -1.210  0.00  0.00    -0.016 A 
ATOM      5  C   UNL     1       0.040  -2.774  -0.014  0.00  0.00    +0.041 A 
ATOM      6  C   UNL     1       0.036  -2.090   1.193  0.00  0.00    +0.069 A 
ATOM      7  C   UNL     1       0.023  -0.703   1.200  0.00  0.00    +0.122 A 
ATOM      8  N   UNL     1       0.059  -4.172  -0.028  0.00  0.00    -0.285 N 
ATOM      9  C   UNL     1       0.432  -4.838  -1.137  0.00  0.00    +0.218 C 
ATOM     10  O   UNL     1       0.429  -6.051  -1.137  0.00  0.00    -0.275 OA
ATOM     11  C   UNL     1       0.851  -4.095  -2.376  0.00  0.00    +0.110 C 
ATOM     12  C   UNL     1       0.029  -2.814  -2.520  0.00  0.00    +0.080 C 
ATOM     13  H   UNL     1      -0.197  -4.665   0.767  0.00  0.00    +0.155 HD
ENDROOT
BRANCH  12  14
ATOM     14  C   UNL     1      -1.386  -3.167  -2.901  0.00  0.00    +0.071 A 
ATOM     15  C   UNL     1      -2.097  -4.290  -2.465  0.00  0.00    +0.048 A 
ATOM     16  C   UNL     1      -3.327  -4.249  -3.027  0.00  0.00    +0.042 A 
ATOM     17  N   UNL     1      -3.392  -3.139  -3.792  0.00  0.00    -0.281 N 
ATOM     18  H   UNL     1      -4.157  -2.850  -4.315  0.00  0.00    +0.189 HD
ATOM     19  N   UNL     1      -2.163  -2.474  -3.692  0.00  0.00    -0.178 NA
BRANCH  16  20
ATOM     20  C   UNL     1      -4.427  -5.261  -2.834  0.00  0.00    +0.004 C 
ATOM     21  C   UNL     1      -4.797  -5.335  -1.351  0.00  0.00    +0.017 C 
ATOM     22  C   UNL     1      -5.654  -4.841  -3.645  0.00  0.00    +0.017 C 
ATOM     23  C   UNL     1      -3.946  -6.633  -3.309  0.00  0.00    +0.017 C 
ENDBRANCH  16  20
ENDBRANCH  12  14
BRANCH   7  24
ATOM     24  O   UNL     1       0.024  -0.030   2.381  0.00  0.00    -0.506 OA
ATOM     25  H   UNL     1      -0.858   0.153   2.730  0.00  0.00    +0.292 HD
ENDBRANCH   7  24
TORSDOF 3
