REMARK  Name = ZINC38667066
REMARK  11 active torsions:
REMARK  status: ('A' for Active; 'I' for Inactive)
REMARK    1  A    between atoms: C_1  and  C_2
REMARK    2  A    between atoms: C_5  and  N_36
REMARK    3  A    between atoms: C_7  and  N_8
REMARK    4  A    between atoms: C_9  and  C_11
REMARK    5  A    between atoms: N_13  and  C_14
REMARK    6  A    between atoms: C_14  and  C_15
REMARK    7  A    between atoms: C_15  and  C_17
REMARK    8  A    between atoms: C_15  and  N_26
REMARK    9  A    between atoms: C_20  and  N_23
REMARK   10  A    between atoms: N_23  and  C_24
REMARK   11  A    between atoms: N_23  and  C_25
REMARK                            x       y       z     vdW  Elec       q    Type
REMARK                         _______ _______ _______ _____ _____    ______ ____
ROOT
ATOM      1  C   UNL     1      -0.308  -0.904   8.460  0.00  0.00    +0.104 C 
ENDROOT
BRANCH   1   2
ATOM      2  N   UNL     1      -1.629  -1.524   8.295  0.00  0.00    -0.289 NA
ATOM      3  C   UNL     1      -1.509  -2.877   7.728  0.00  0.00    +0.090 C 
ATOM      4  C   UNL     1      -2.842  -3.602   7.918  0.00  0.00    +0.051 C 
ATOM      5  C   UNL     1      -3.973  -2.740   7.418  0.00  0.00    -0.042 A 
ATOM      6  C   UNL     1      -5.199  -3.336   7.169  0.00  0.00    +0.004 A 
ATOM      7  C   UNL     1      -6.262  -2.582   6.714  0.00  0.00    +0.000 A 
ATOM      8  C   UNL     1      -6.103  -1.224   6.506  0.00  0.00    +0.000 A 
ATOM      9  C   UNL     1      -4.882  -0.630   6.753  0.00  0.00    +0.005 A 
ATOM     10  C   UNL     1      -3.812  -1.387   7.207  0.00  0.00    -0.030 A 
ATOM     11  C   UNL     1      -2.496  -0.695   7.451  0.00  0.00    +0.120 C 
ENDBRANCH   1   2
BRANCH   1  12
ATOM     12  C   UNL     1      -0.341   0.045   9.630  0.00  0.00    -0.029 A 
ATOM     13  C   UNL     1      -1.551   0.537  10.085  0.00  0.00    +0.007 A 
ATOM     14  C   UNL     1      -1.586   1.407  11.157  0.00  0.00    +0.023 A 
ATOM     15  C   UNL     1      -0.403   1.788  11.779  0.00  0.00    +0.029 A 
ATOM     16  C   UNL     1       0.810   1.292  11.320  0.00  0.00    +0.023 A 
ATOM     17  C   UNL     1       0.837   0.418  10.251  0.00  0.00    +0.007 A 
BRANCH  15  18
ATOM     18  N   UNL     1      -0.435   2.668  12.863  0.00  0.00    -0.336 N 
ATOM     19  C   UNL     1      -1.715   3.191  13.345  0.00  0.00    +0.129 C 
ATOM     20  C   UNL     1       0.813   3.069  13.517  0.00  0.00    +0.129 C 
ENDBRANCH  15  18
ENDBRANCH   1  12
BRANCH   1  21
ATOM     21  C   UNL     1       0.058  -0.134   7.190  0.00  0.00    +0.128 C 
BRANCH  21  24
ATOM     22  C   UNL     1       0.357  -0.606   4.818  0.00  0.00    +0.299 C 
ATOM     23  O   UNL     1       0.402   0.590   4.616  0.00  0.00    -0.265 OA
ATOM     24  N   UNL     1       0.188  -1.072   6.071  0.00  0.00    -0.306 N 
ATOM     25  H   UNL     1       0.152  -2.028   6.233  0.00  0.00    +0.149 HD
BRANCH  22  27
ATOM     26  N   UNL     1       0.659  -1.096   2.425  0.00  0.00    -0.277 N 
ATOM     27  C   UNL     1       0.490  -1.562   3.678  0.00  0.00    +0.303 C 
ATOM     28  O   UNL     1       0.445  -2.758   3.880  0.00  0.00    -0.265 OA
ATOM     29  H   UNL     1       0.751  -0.143   2.269  0.00  0.00    +0.155 HD
BRANCH  26  36
ATOM     30  C   UNL     1      -0.249  -0.181  -0.112  0.00  0.00    +0.045 C 
ATOM     31  C   UNL     1       0.269  -1.582   0.092  0.00  0.00    -0.029 A 
ATOM     32  C   UNL     1       0.318  -2.462  -0.971  0.00  0.00    +0.007 A 
ATOM     33  C   UNL     1       0.793  -3.748  -0.784  0.00  0.00    +0.033 A 
ATOM     34  C   UNL     1       1.220  -4.156   0.467  0.00  0.00    +0.128 A 
ATOM     35  C   UNL     1       1.173  -3.281   1.534  0.00  0.00    +0.056 A 
ATOM     36  C   UNL     1       0.702  -1.986   1.348  0.00  0.00    +0.039 A 
BRANCH  34  37
ATOM     37  N   UNL     1       1.727  -5.533   0.662  0.00  0.00    +0.056 N 
ATOM     38  O   UNL     1       1.768  -6.300  -0.272  0.00  0.00    -0.126 OA
ATOM     39  O   UNL     1       2.100  -5.891   1.755  0.00  0.00    -0.126 OA
ENDBRANCH  34  37
ENDBRANCH  26  36
ENDBRANCH  22  27
ENDBRANCH  21  24
ENDBRANCH   1  21
TORSDOF 8
