REMARK  Name = ZINC03882042
REMARK  8 active torsions:
REMARK  status: ('A' for Active; 'I' for Inactive)
REMARK    1  A    between atoms: C_1  and  C_2
REMARK    2  A    between atoms: C_4  and  O_35
REMARK    3  A    between atoms: C_14  and  C_20
REMARK    4  A    between atoms: C_16  and  C_18
REMARK    5  A    between atoms: C_16  and  C_19
REMARK    6  A    between atoms: C_20  and  C_22
REMARK    7  A    between atoms: C_22  and  O_23
REMARK    8  A    between atoms: C_32  and  C_33
REMARK                            x       y       z     vdW  Elec       q    Type
REMARK                         _______ _______ _______ _____ _____    ______ ____
ROOT
ATOM      1  C   UNL     1      -1.462   1.552   0.217  0.00  0.00    +0.015 C 
ATOM      2  C   UNL     1      -1.420   0.035   0.025  0.00  0.00    +0.012 C 
ATOM      3  C   UNL     1      -2.659  -0.643   0.617  0.00  0.00    +0.044 C 
ATOM      4  C   UNL     1      -2.614  -0.603   2.141  0.00  0.00    +0.154 C 
ATOM      5  C   UNL     1      -1.395  -1.400   2.620  0.00  0.00    +0.153 C 
ATOM      6  C   UNL     1      -0.130  -0.721   2.097  0.00  0.00    +0.034 C 
ATOM      7  C   UNL     1      -0.139  -0.578   0.613  0.00  0.00    +0.007 C 
ATOM      8  C   UNL     1      -0.036  -1.944  -0.091  0.00  0.00    +0.039 C 
ATOM      9  C   UNL     1      -0.476  -1.639  -1.540  0.00  0.00    +0.162 C 
ATOM     10  C   UNL     1      -1.342  -0.355  -1.475  0.00  0.00    +0.164 C 
ATOM     11  O   UNL     1      -2.655  -0.776  -1.899  0.00  0.00    -0.332 OA
ATOM     12  C   UNL     1      -2.425  -1.965  -2.684  0.00  0.00    +0.166 C 
ATOM     13  O   UNL     1      -1.363  -2.683  -1.987  0.00  0.00    -0.343 OA
ATOM     14  C   UNL     1      -1.960  -1.593  -4.093  0.00  0.00    +0.074 C 
ATOM     15  C   UNL     1      -3.695  -2.816  -2.747  0.00  0.00    +0.074 C 
ATOM     16  C   UNL     1       1.108  -1.500   2.549  0.00  0.00    +0.011 C 
ATOM     17  C   UNL     1       1.204  -1.479   4.078  0.00  0.00    +0.032 C 
ATOM     18  C   UNL     1      -0.101  -2.015   4.637  0.00  0.00    -0.053 C 
ATOM     19  C   UNL     1      -0.064  -2.999   5.525  0.00  0.00    +0.051 C 
ATOM     20  C   UNL     1      -1.310  -3.557   6.073  0.00  0.00    +0.179 C 
ATOM     21  O   UNL     1      -1.281  -4.433   6.918  0.00  0.00    -0.288 OA
ATOM     22  C   UNL     1      -2.594  -3.032   5.577  0.00  0.00    +0.047 C 
ATOM     23  C   UNL     1      -2.606  -2.045   4.695  0.00  0.00    -0.009 C 
ATOM     24  C   UNL     1      -1.378  -1.397   4.152  0.00  0.00    +0.044 C 
ATOM     25  C   UNL     1      -1.397   0.061   4.615  0.00  0.00    +0.023 C 
ATOM     26  F   UNL     1      -1.476  -2.716   2.151  0.00  0.00    -0.238 F 
ENDROOT
BRANCH  10  27
ATOM     27  C   UNL     1      -0.784   0.757  -2.325  0.00  0.00    +0.193 C 
ATOM     28  O   UNL     1       0.407   0.837  -2.510  0.00  0.00    -0.292 OA
BRANCH  27  29
ATOM     29  C   UNL     1      -1.712   1.770  -2.945  0.00  0.00    +0.233 C 
BRANCH  29  30
ATOM     30  O   UNL     1      -0.944   2.784  -3.596  0.00  0.00    -0.387 OA
ATOM     31  H   UNL     1      -1.477   3.471  -4.019  0.00  0.00    +0.210 HD
ENDBRANCH  29  30
ENDBRANCH  27  29
ENDBRANCH  10  27
BRANCH   4  32
ATOM     32  O   UNL     1      -2.506   0.752   2.582  0.00  0.00    -0.389 OA
ATOM     33  H   UNL     1      -3.242   1.315   2.304  0.00  0.00    +0.210 HD
ENDBRANCH   4  32
TORSDOF 4
