REMARK  Name = ZINC39691330
REMARK  10 active torsions:
REMARK  status: ('A' for Active; 'I' for Inactive)
REMARK    1  A    between atoms: C_1  and  C_2
REMARK    2  A    between atoms: C_2  and  C_3
REMARK    3  A    between atoms: C_3  and  C_5
REMARK    4  A    between atoms: C_3  and  C_6
REMARK    5  A    between atoms: C_10  and  C_19
REMARK    6  A    between atoms: N_21  and  C_22
REMARK    7  A    between atoms: C_22  and  C_23
REMARK    8  A    between atoms: C_23  and  N_24
REMARK    9  A    between atoms: C_25  and  C_27
REMARK   10  A    between atoms: C_27  and  C_28
REMARK                            x       y       z     vdW  Elec       q    Type
REMARK                         _______ _______ _______ _____ _____    ______ ____
ROOT
ATOM      1  C   UNL     1       4.038  -3.164  -4.912  0.00  0.00    +0.218 C 
ATOM      2  O   UNL     1       3.318  -2.932  -5.859  0.00  0.00    -0.275 OA
ATOM      3  N   UNL     1       5.343  -3.441  -5.109  0.00  0.00    -0.314 N 
ATOM      4  H   UNL     1       5.919  -3.626  -4.351  0.00  0.00    +0.149 HD
ENDROOT
BRANCH   1   9
ATOM      5  C   UNL     1       0.564  -2.239  -1.560  0.00  0.00    +0.218 C 
ATOM      6  O   UNL     1      -0.108  -2.926  -0.821  0.00  0.00    -0.275 OA
ATOM      7  N   UNL     1       1.324  -2.816  -2.511  0.00  0.00    -0.300 N 
ATOM      8  C   UNL     1       2.287  -2.160  -3.427  0.00  0.00    +0.121 C 
ATOM      9  C   UNL     1       3.476  -3.143  -3.514  0.00  0.00    +0.100 C 
ATOM     10  C   UNL     1       2.878  -4.514  -3.155  0.00  0.00    -0.004 C 
ATOM     11  C   UNL     1       1.391  -4.252  -2.874  0.00  0.00    +0.115 C 
ATOM     12  C   UNL     1       3.033  -5.481  -4.324  0.00  0.00    -0.010 C 
ATOM     13  C   UNL     1       2.484  -6.853  -3.922  0.00  0.00    -0.082 C 
ATOM     14  N   UNL     1       3.214  -7.350  -2.750  0.00  0.00    +0.379 N 
ATOM     15  C   UNL     1       2.983  -6.463  -1.603  0.00  0.00    -0.082 C 
ATOM     16  C   UNL     1       3.554  -5.075  -1.907  0.00  0.00    -0.010 C 
ATOM     17  H   UNL     1       2.892  -8.280  -2.524  0.00  0.00    -0.086 HD
ATOM     18  H   UNL     1       4.201  -7.380  -2.957  0.00  0.00    -0.086 HD
BRANCH   5  19
ATOM     19  C   UNL     1       0.550  -0.739  -1.414  0.00  0.00    +0.072 C 
ATOM     20  C   UNL     1       1.633  -0.312  -0.421  0.00  0.00    +0.017 C 
BRANCH  19  22
ATOM     21  C   UNL     1      -0.877   1.239  -0.870  0.00  0.00    +0.004 C 
ATOM     22  C   UNL     1      -0.819  -0.289  -0.900  0.00  0.00    +0.009 C 
ENDBRANCH  19  22
ENDBRANCH   5  19
ENDBRANCH   1   9
BRANCH   3  23
ATOM     23  C   UNL     1       5.890  -3.460  -6.468  0.00  0.00    +0.123 C 
BRANCH  23  24
ATOM     24  C   UNL     1       7.381  -3.798  -6.412  0.00  0.00    +0.123 C 
BRANCH  24  25
ATOM     25  N   UNL     1       7.928  -3.818  -7.771  0.00  0.00    -0.314 N 
ATOM     26  C   UNL     1       9.233  -4.094  -7.968  0.00  0.00    +0.217 C 
ATOM     27  O   UNL     1       9.953  -4.327  -7.021  0.00  0.00    -0.275 OA
ATOM     28  H   UNL     1       7.352  -3.632  -8.528  0.00  0.00    +0.149 HD
BRANCH  26  29
ATOM     29  C   UNL     1       9.796  -4.115  -9.366  0.00  0.00    +0.131 C 
BRANCH  29  30
ATOM     30  C   UNL     1      11.265  -4.447  -9.311  0.00  0.00    -0.031 A 
ATOM     31  C   UNL     1      12.191  -3.450  -9.297  0.00  0.00    +0.005 A 
ATOM     32  C   UNL     1      13.554  -3.738  -9.246  0.00  0.00    +0.001 A 
ATOM     33  C   UNL     1      13.998  -5.025  -9.210  0.00  0.00    +0.008 A 
ATOM     34  C   UNL     1      13.070  -6.080  -9.223  0.00  0.00    -0.018 A 
ATOM     35  C   UNL     1      11.684  -5.787  -9.268  0.00  0.00    -0.014 A 
ATOM     36  C   UNL     1      10.757  -6.843  -9.276  0.00  0.00    +0.009 A 
ATOM     37  C   UNL     1      11.200  -8.129  -9.234  0.00  0.00    +0.001 A 
ATOM     38  C   UNL     1      12.563  -8.417  -9.183  0.00  0.00    +0.001 A 
ATOM     39  C   UNL     1      13.490  -7.421  -9.188  0.00  0.00    +0.008 A 
ENDBRANCH  29  30
ENDBRANCH  26  29
ENDBRANCH  24  25
ENDBRANCH  23  24
ENDBRANCH   3  23
TORSDOF 8
