REMARK  Name = ZINC35399313
REMARK  6 active torsions:
REMARK  status: ('A' for Active; 'I' for Inactive)
REMARK    1  A    between atoms: C_1  and  O_2
REMARK    2  A    between atoms: O_2  and  C_3
REMARK    3  A    between atoms: C_6  and  S_11
REMARK    4  A    between atoms: C_8  and  O_9
REMARK    5  A    between atoms: O_9  and  C_10
REMARK    6  A    between atoms: S_11  and  N_14
REMARK                            x       y       z     vdW  Elec       q    Type
REMARK                         _______ _______ _______ _____ _____    ______ ____
ROOT
ATOM      1  N   UNL     1      -5.658  -2.970  -1.542  0.00  0.00    -0.176 NA
ATOM      2  C   UNL     1      -6.441  -1.949  -2.252  0.00  0.00    +0.112 C 
ATOM      3  C   UNL     1      -5.710  -1.582  -3.548  0.00  0.00    +0.049 C 
ATOM      4  C   UNL     1      -5.445  -2.851  -4.357  0.00  0.00    +0.075 C 
ATOM      5  C   UNL     1      -4.561  -3.805  -3.556  0.00  0.00    +0.049 C 
ATOM      6  C   UNL     1      -5.273  -4.192  -2.261  0.00  0.00    +0.112 C 
ATOM      7  C   UNL     1      -4.767  -2.494  -5.656  0.00  0.00    +0.047 A 
ATOM      8  C   UNL     1      -3.850  -1.553  -5.908  0.00  0.00    +0.025 A 
ATOM      9  C   UNL     1      -3.524  -1.639  -7.279  0.00  0.00    +0.020 A 
ATOM     10  C   UNL     1      -4.266  -2.635  -7.814  0.00  0.00    +0.092 A 
ATOM     11  N   UNL     1      -5.039  -3.158  -6.832  0.00  0.00    -0.316 N 
ATOM     12  C   UNL     1      -5.997  -4.183  -6.886  0.00  0.00    +0.067 A 
ATOM     13  C   UNL     1      -6.134  -4.990  -7.999  0.00  0.00    +0.031 A 
ATOM     14  C   UNL     1      -7.075  -6.005  -8.000  0.00  0.00    +0.040 A 
ATOM     15  C   UNL     1      -7.876  -6.211  -6.889  0.00  0.00    +0.125 A 
ATOM     16  C   UNL     1      -7.750  -5.399  -5.775  0.00  0.00    +0.063 A 
ATOM     17  C   UNL     1      -6.818  -4.372  -5.770  0.00  0.00    +0.055 A 
ATOM     18  N   UNL     1      -6.722  -3.508  -4.673  0.00  0.00    -0.331 N 
ATOM     19  F   UNL     1      -8.785  -7.210  -6.893  0.00  0.00    -0.205 F 
ATOM     20  H   UNL     1      -7.500  -3.342  -4.119  0.00  0.00    +0.147 HD
ENDROOT
BRANCH   1  21
ATOM     21  S   UNL     1      -5.213  -2.745   0.036  0.00  0.00    +0.061 S 
ATOM     22  O   UNL     1      -4.991  -4.037   0.584  0.00  0.00    -0.153 OA
ATOM     23  O   UNL     1      -6.146  -1.831   0.595  0.00  0.00    -0.153 OA
BRANCH  21  27
ATOM     24  C   UNL     1      -1.201  -0.638   0.010  0.00  0.00    +0.162 A 
ATOM     25  C   UNL     1      -2.374   0.099   0.019  0.00  0.00    +0.051 A 
ATOM     26  C   UNL     1      -3.596  -0.546   0.027  0.00  0.00    +0.032 A 
ATOM     27  C   UNL     1      -3.652  -1.928   0.026  0.00  0.00    +0.109 A 
ATOM     28  C   UNL     1      -2.485  -2.669   0.017  0.00  0.00    +0.078 A 
ATOM     29  C   UNL     1      -1.257  -2.028   0.003  0.00  0.00    +0.163 A 
BRANCH  24  31
ATOM     30  C   UNL     1      -0.017   1.425   0.010  0.00  0.00    +0.277 C 
ATOM     31  O   UNL     1       0.002  -0.004   0.002  0.00  0.00    -0.491 OA
ENDBRANCH  24  31
BRANCH  29  32
ATOM     32  O   UNL     1      -0.108  -2.756  -0.012  0.00  0.00    -0.491 OA
ATOM     33  C   UNL     1      -0.242  -4.179  -0.018  0.00  0.00    +0.277 C 
ENDBRANCH  29  32
ENDBRANCH  21  27
ENDBRANCH   1  21
TORSDOF 4
