REMARK  Name = ZINC04793490
REMARK  7 active torsions:
REMARK  status: ('A' for Active; 'I' for Inactive)
REMARK    1  A    between atoms: C_1  and  C_2
REMARK    2  A    between atoms: C_3  and  N_11
REMARK    3  A    between atoms: C_7  and  N_8
REMARK    4  A    between atoms: C_12  and  C_14
REMARK    5  A    between atoms: N_24  and  C_37
REMARK    6  A    between atoms: C_25  and  C_27
REMARK    7  A    between atoms: N_29  and  C_36
REMARK                            x       y       z     vdW  Elec       q    Type
REMARK                         _______ _______ _______ _____ _____    ______ ____
ROOT
ATOM      1  C   UNL     1      -1.052   0.268  -4.867  0.00  0.00    +0.131 C 
ATOM      2  C   UNL     1       0.092   1.166  -5.256  0.00  0.00    -0.021 A 
ATOM      3  C   UNL     1       0.129   2.480  -4.839  0.00  0.00    +0.005 A 
ATOM      4  C   UNL     1       1.195   3.288  -5.193  0.00  0.00    +0.000 A 
ATOM      5  C   UNL     1       2.228   2.786  -5.965  0.00  0.00    +0.001 A 
ATOM      6  C   UNL     1       2.200   1.474  -6.394  0.00  0.00    +0.013 A 
ATOM      7  C   UNL     1       1.126   0.659  -6.045  0.00  0.00    +0.041 A 
ATOM      8  C   UNL     1       1.048  -0.739  -6.518  0.00  0.00    +0.247 C 
ATOM      9  O   UNL     1       2.023  -1.278  -7.004  0.00  0.00    -0.270 OA
ATOM     10  N   UNL     1      -0.114  -1.410  -6.405  0.00  0.00    -0.292 N 
ATOM     11  C   UNL     1      -1.335  -0.732  -5.985  0.00  0.00    +0.124 C 
ATOM     12  C   UNL     1      -0.152  -2.843  -6.708  0.00  0.00    +0.133 C 
ENDROOT
BRANCH  11  13
ATOM     13  C   UNL     1      -1.927  -0.003  -7.163  0.00  0.00    -0.001 A 
ATOM     14  C   UNL     1      -1.278   0.378  -8.275  0.00  0.00    +0.092 A 
ATOM     15  N   UNL     1      -2.141   1.015  -9.124  0.00  0.00    -0.349 N 
ATOM     16  C   UNL     1      -3.399   1.061  -8.566  0.00  0.00    +0.049 A 
ATOM     17  C   UNL     1      -3.321   0.420  -7.316  0.00  0.00    +0.005 A 
ATOM     18  C   UNL     1      -4.461   0.310  -6.518  0.00  0.00    +0.010 A 
ATOM     19  C   UNL     1      -5.649   0.823  -6.957  0.00  0.00    +0.001 A 
ATOM     20  C   UNL     1      -5.732   1.452  -8.191  0.00  0.00    +0.002 A 
ATOM     21  C   UNL     1      -4.617   1.580  -8.991  0.00  0.00    +0.026 A 
ATOM     22  C   UNL     1      -1.781   1.565 -10.433  0.00  0.00    +0.149 C 
ENDBRANCH  11  13
BRANCH   1  24
ATOM     23  N   UNL     1      -0.410   0.202  -2.479  0.00  0.00    -0.285 N 
ATOM     24  C   UNL     1      -0.696  -0.478  -3.607  0.00  0.00    +0.227 C 
ATOM     25  O   UNL     1      -0.667  -1.691  -3.608  0.00  0.00    -0.275 OA
ATOM     26  H   UNL     1      -0.381   1.171  -2.491  0.00  0.00    +0.155 HD
BRANCH  23  29
ATOM     27  C   UNL     1      -1.249   1.381  -0.029  0.00  0.00    +0.048 C 
ATOM     28  C   UNL     1      -0.547   0.048  -0.072  0.00  0.00    +0.001 A 
ATOM     29  C   UNL     1      -0.154  -0.491  -1.290  0.00  0.00    +0.038 A 
ATOM     30  C   UNL     1       0.493  -1.719  -1.326  0.00  0.00    +0.024 A 
ATOM     31  C   UNL     1       0.744  -2.401  -0.151  0.00  0.00    +0.004 A 
ATOM     32  C   UNL     1       0.351  -1.861   1.060  0.00  0.00    +0.033 A 
ATOM     33  C   UNL     1      -0.289  -0.636   1.099  0.00  0.00    +0.131 A 
BRANCH  33  34
ATOM     34  N   UNL     1      -0.702  -0.059   2.398  0.00  0.00    +0.057 N 
ATOM     35  O   UNL     1      -0.797   1.139   2.525  0.00  0.00    -0.126 OA
ATOM     36  O   UNL     1      -0.945  -0.787   3.333  0.00  0.00    -0.126 OA
ENDBRANCH  33  34
ENDBRANCH  23  29
ENDBRANCH   1  24
TORSDOF 4
