REMARK  Name = ZINC08724717
REMARK  12 active torsions:
REMARK  status: ('A' for Active; 'I' for Inactive)
REMARK    1  A    between atoms: C_1  and  C_2
REMARK    2  A    between atoms: C_3  and  C_16
REMARK    3  A    between atoms: C_4  and  C_15
REMARK    4  A    between atoms: C_9  and  C_11
REMARK    5  A    between atoms: C_16  and  C_17
REMARK    6  A    between atoms: C_17  and  C_18
REMARK    7  A    between atoms: N_20  and  C_21
REMARK    8  A    between atoms: C_21  and  C_23
REMARK    9  A    between atoms: C_21  and  C_27
REMARK   10  A    between atoms: C_23  and  C_24
REMARK   11  A    between atoms: C_24  and  S_25
REMARK   12  A    between atoms: S_25  and  C_26
REMARK                            x       y       z     vdW  Elec       q    Type
REMARK                         _______ _______ _______ _____ _____    ______ ____
ROOT
ATOM      1  C   UNL     1       0.000   1.080   2.488  0.00  0.00    +0.214 C 
ATOM      2  O   UNL     1       0.994   0.397   2.363  0.00  0.00    -0.276 OA
ATOM      3  N   UNL     1      -0.453   1.393   3.718  0.00  0.00    -0.305 N 
ATOM      4  H   UNL     1      -1.248   1.939   3.817  0.00  0.00    +0.149 HD
ENDROOT
BRANCH   1   5
ATOM      5  C   UNL     1      -0.729   1.579   1.267  0.00  0.00    +0.100 C 
BRANCH   5   6
ATOM      6  C   UNL     1      -0.013   1.086   0.008  0.00  0.00    +0.048 C 
BRANCH   6   9
ATOM      7  C   UNL     1       0.702   3.646  -1.183  0.00  0.00    +0.066 C 
ATOM      8  C   UNL     1      -0.400   2.816  -1.788  0.00  0.00    +0.047 A 
ATOM      9  C   UNL     1      -0.742   1.585  -1.213  0.00  0.00    -0.005 A 
ATOM     10  C   UNL     1      -1.733   0.844  -1.771  0.00  0.00    +0.048 A 
ATOM     11  N   UNL     1      -2.376   1.323  -2.870  0.00  0.00    -0.200 N 
ATOM     12  C   UNL     1      -2.018   2.529  -3.406  0.00  0.00    +0.254 A 
ATOM     13  N   UNL     1      -1.036   3.249  -2.852  0.00  0.00    -0.216 NA
ATOM     14  N   UNL     1      -2.800   2.737  -4.460  0.00  0.00    -0.186 NA
ATOM     15  C   UNL     1      -3.633   1.716  -4.609  0.00  0.00    +0.257 A 
ATOM     16  N   UNL     1      -3.416   0.829  -3.668  0.00  0.00    -0.139 NA
ATOM     17  C   UNL     1      -2.119  -0.487  -1.179  0.00  0.00    +0.066 C 
BRANCH  15  18
ATOM     18  C   UNL     1      -4.671   1.594  -5.695  0.00  0.00    +0.454 C 
ATOM     19  F   UNL     1      -4.403   2.527  -6.703  0.00  0.00    -0.163 F 
ATOM     20  F   UNL     1      -4.633   0.303  -6.232  0.00  0.00    -0.163 F 
ATOM     21  F   UNL     1      -5.939   1.839  -5.157  0.00  0.00    -0.163 F 
ENDBRANCH  15  18
ENDBRANCH   6   9
ENDBRANCH   5   6
ENDBRANCH   1   5
BRANCH   3  22
ATOM     22  C   UNL     1       0.256   0.907   4.905  0.00  0.00    +0.140 C 
BRANCH  22  23
ATOM     23  C   UNL     1      -0.701   0.837   6.067  0.00  0.00    +0.129 A 
ATOM     24  N   UNL     1      -2.037   1.082   5.993  0.00  0.00    -0.340 N 
ATOM     25  H   UNL     1      -2.549   1.335   5.172  0.00  0.00    +0.167 HD
ATOM     26  C   UNL     1      -2.557   0.914   7.261  0.00  0.00    +0.066 A 
ATOM     27  C   UNL     1      -3.828   1.023   7.807  0.00  0.00    +0.028 A 
ATOM     28  C   UNL     1      -4.017   0.783   9.151  0.00  0.00    +0.002 A 
ATOM     29  C   UNL     1      -2.945   0.435   9.961  0.00  0.00    +0.002 A 
ATOM     30  C   UNL     1      -1.686   0.324   9.441  0.00  0.00    +0.030 A 
ATOM     31  C   UNL     1      -1.471   0.562   8.081  0.00  0.00    +0.089 A 
ATOM     32  N   UNL     1      -0.370   0.529   7.287  0.00  0.00    -0.231 NA
ENDBRANCH  22  23
BRANCH  22  33
ATOM     33  C   UNL     1       1.400   1.865   5.243  0.00  0.00    +0.041 C 
BRANCH  33  34
ATOM     34  C   UNL     1       2.434   1.842   4.116  0.00  0.00    +0.071 C 
BRANCH  34  35
ATOM     35  S   UNL     1       3.791   2.977   4.517  0.00  0.00    -0.164 S 
ATOM     36  C   UNL     1       4.916   2.834   3.101  0.00  0.00    +0.084 C 
ENDBRANCH  34  35
ENDBRANCH  33  34
ENDBRANCH  22  33
ENDBRANCH   3  22
TORSDOF 9
