REMARK  Name = ZINC21500311
REMARK  5 active torsions:
REMARK  status: ('A' for Active; 'I' for Inactive)
REMARK    1  A    between atoms: C_1  and  C_2
REMARK    2  A    between atoms: C_2  and  C_4
REMARK    3  A    between atoms: C_2  and  S_20
REMARK    4  A    between atoms: N_9  and  C_10
REMARK    5  A    between atoms: S_20  and  C_21
REMARK                            x       y       z     vdW  Elec       q    Type
REMARK                         _______ _______ _______ _____ _____    ______ ____
ROOT
ATOM      1  C   UNL     1      -7.192   1.201   2.099  0.00  0.00    +0.233 C 
ATOM      2  O   UNL     1      -6.796   1.898   3.008  0.00  0.00    -0.274 OA
ATOM      3  N   UNL     1      -6.368   0.892   1.079  0.00  0.00    -0.239 N 
ATOM      4  C   UNL     1      -5.103   1.358   1.069  0.00  0.00    +0.306 C 
ATOM      5  O   UNL     1      -4.707   2.057   1.980  0.00  0.00    -0.252 OA
ATOM      6  N   UNL     1      -4.279   1.049   0.049  0.00  0.00    -0.294 N 
ATOM      7  H   UNL     1      -6.727   0.259   0.254  0.00  0.00    +0.159 HD
ATOM      8  H   UNL     1      -4.638   0.417  -0.776  0.00  0.00    +0.151 HD
ENDROOT
BRANCH   6   9
ATOM      9  C   UNL     1      -2.904   1.556   0.038  0.00  0.00    +0.037 C 
ATOM     10  C   UNL     1      -2.188   1.063  -1.221  0.00  0.00    +0.029 C 
ATOM     11  C   UNL     1      -0.753   1.593  -1.232  0.00  0.00    -0.008 C 
ATOM     12  C   UNL     1      -0.013   1.086   0.008  0.00  0.00    +0.007 C 
ATOM     13  C   UNL     1      -0.729   1.579   1.267  0.00  0.00    -0.008 C 
ATOM     14  C   UNL     1      -2.164   1.050   1.278  0.00  0.00    +0.029 C 
ATOM     15  C   UNL     1      -0.750   3.109   1.275  0.00  0.00    +0.007 C 
ATOM     16  C   UNL     1      -1.490   3.616   0.036  0.00  0.00    -0.008 C 
ATOM     17  C   UNL     1      -0.773   3.123  -1.223  0.00  0.00    +0.007 C 
ATOM     18  C   UNL     1      -2.925   3.086   0.047  0.00  0.00    +0.029 C 
ENDBRANCH   6   9
BRANCH   1  20
ATOM     19  C   UNL     1      -8.626  -0.727   2.712  0.00  0.00    +0.029 C 
ATOM     20  C   UNL     1      -8.606   0.679   2.110  0.00  0.00    +0.137 C 
BRANCH  20  21
ATOM     21  S   UNL     1      -9.649   1.779   3.107  0.00  0.00    -0.073 S 
BRANCH  21  22
ATOM     22  C   UNL     1     -11.273   1.128   2.901  0.00  0.00    +0.197 A 
ATOM     23  N   UNL     1     -11.608   0.084   2.176  0.00  0.00    -0.122 NA
ATOM     24  N   UNL     1     -12.876  -0.121   2.248  0.00  0.00    -0.127 NA
ATOM     25  C   UNL     1     -13.431   0.793   3.023  0.00  0.00    +0.180 A 
ATOM     26  N   UNL     1     -12.416   1.617   3.461  0.00  0.00    -0.275 N 
ATOM     27  C   UNL     1     -12.688   2.670   4.291  0.00  0.00    +0.115 A 
ATOM     28  C   UNL     1     -13.953   2.916   4.691  0.00  0.00    +0.059 A 
ATOM     29  C   UNL     1     -15.010   2.092   4.261  0.00  0.00    +0.045 A 
ATOM     30  C   UNL     1     -14.757   1.041   3.436  0.00  0.00    +0.087 A 
ATOM     31 CL   UNL     1     -16.050   0.017   2.896  0.00  0.00    -0.080 Cl
ATOM     32 CL   UNL     1     -14.278   4.257   5.745  0.00  0.00    -0.082 Cl
ENDBRANCH  21  22
ENDBRANCH  20  21
ENDBRANCH   1  20
TORSDOF 4
