REMARK  Name = ZINC22756270
REMARK  13 active torsions:
REMARK  status: ('A' for Active; 'I' for Inactive)
REMARK    1  A    between atoms: C_1  and  C_2
REMARK    2  A    between atoms: C_3  and  C_34
REMARK    3  A    between atoms: C_4  and  C_22
REMARK    4  A    between atoms: C_12  and  C_13
REMARK    5  A    between atoms: C_16  and  O_19
REMARK    6  A    between atoms: C_25  and  O_30
REMARK    7  A    between atoms: C_26  and  O_28
REMARK    8  A    between atoms: O_28  and  C_29
REMARK    9  A    between atoms: O_30  and  C_31
REMARK   10  A    between atoms: C_31  and  C_32
REMARK   11  A    between atoms: C_31  and  C_33
REMARK   12  A    between atoms: C_34  and  O_36
REMARK   13  A    between atoms: O_36  and  C_37
REMARK                            x       y       z     vdW  Elec       q    Type
REMARK                         _______ _______ _______ _____ _____    ______ ____
ROOT
ATOM      1  C   UNL     1       1.736  -1.560   3.215  0.00  0.00    +0.061 C 
ATOM      2  C   UNL     1       1.568  -0.293   2.416  0.00  0.00    +0.015 C 
ATOM      3  C   UNL     1       0.349   0.261   2.350  0.00  0.00    +0.078 C 
ATOM      4  C   UNL     1       0.066   1.513   1.559  0.00  0.00    +0.148 C 
ATOM      5  N   UNL     1       1.375   2.118   1.200  0.00  0.00    -0.258 N 
ATOM      6  C   UNL     1       2.463   1.220   0.724  0.00  0.00    +0.227 C 
ATOM      7  N   UNL     1       2.665   0.232   1.794  0.00  0.00    -0.320 N 
ATOM      8  S   UNL     1       3.902   2.356   0.669  0.00  0.00    -0.078 S 
ATOM      9  C   UNL     1       3.051   3.864   1.111  0.00  0.00    +0.074 C 
ATOM     10  C   UNL     1       3.555   5.114   1.238  0.00  0.00    +0.028 C 
ATOM     11  C   UNL     1       1.666   3.407   1.304  0.00  0.00    +0.256 C 
ATOM     12  O   UNL     1       0.789   4.211   1.558  0.00  0.00    -0.269 OA
ATOM     13  H   UNL     1       3.684  -0.070   2.079  0.00  0.00    +0.148 HD
ENDROOT
BRANCH  10  14
ATOM     14  C   UNL     1       5.008   5.331   1.172  0.00  0.00    -0.024 A 
ATOM     15  C   UNL     1       5.888   4.272   1.420  0.00  0.00    +0.011 A 
ATOM     16  C   UNL     1       7.248   4.480   1.352  0.00  0.00    +0.046 A 
ATOM     17  C   UNL     1       7.746   5.741   1.050  0.00  0.00    +0.117 A 
ATOM     18  C   UNL     1       6.877   6.798   0.808  0.00  0.00    +0.046 A 
ATOM     19  C   UNL     1       5.515   6.600   0.868  0.00  0.00    +0.011 A 
BRANCH  17  20
ATOM     20  O   UNL     1       9.088   5.942   0.990  0.00  0.00    -0.507 OA
ATOM     21  H   UNL     1       9.485   6.940   0.751  0.00  0.00    +0.292 HD
ENDBRANCH  17  20
ENDBRANCH  10  14
BRANCH   4  22
ATOM     22  C   UNL     1      -0.728   2.480   2.399  0.00  0.00    -0.019 A 
ATOM     23  C   UNL     1      -1.989   2.873   1.991  0.00  0.00    +0.009 A 
ATOM     24  C   UNL     1      -2.722   3.761   2.757  0.00  0.00    +0.050 A 
ATOM     25  C   UNL     1      -2.192   4.257   3.938  0.00  0.00    +0.162 A 
ATOM     26  C   UNL     1      -0.923   3.861   4.348  0.00  0.00    +0.162 A 
ATOM     27  C   UNL     1      -0.196   2.968   3.578  0.00  0.00    +0.055 A 
BRANCH  26  28
ATOM     28  O   UNL     1      -0.400   4.346   5.506  0.00  0.00    -0.491 OA
ATOM     29  C   UNL     1       0.908   3.896   5.865  0.00  0.00    +0.277 C 
ENDBRANCH  26  28
BRANCH  25  30
ATOM     30  O   UNL     1      -2.912   5.130   4.693  0.00  0.00    -0.486 OA
BRANCH  30  31
ATOM     31  C   UNL     1      -4.172   5.555   4.170  0.00  0.00    +0.167 C 
ATOM     32  C   UNL     1      -5.231   4.490   4.461  0.00  0.00    +0.051 C 
ATOM     33  C   UNL     1      -4.580   6.874   4.831  0.00  0.00    +0.051 C 
ENDBRANCH  30  31
ENDBRANCH  25  30
ENDBRANCH   4  22
BRANCH   3  34
ATOM     34  C   UNL     1      -0.714  -0.355   3.046  0.00  0.00    +0.338 C 
ATOM     35  O   UNL     1      -1.520  -1.039   2.443  0.00  0.00    -0.245 OA
BRANCH  34  36
ATOM     36  O   UNL     1      -0.840  -0.181   4.378  0.00  0.00    -0.465 OA
ATOM     37  C   UNL     1      -1.942  -0.829   5.016  0.00  0.00    +0.280 C 
ENDBRANCH  34  36
ENDBRANCH   3  34
TORSDOF 8
