REMARK  Name = ZINC12628166
REMARK  9 active torsions:
REMARK  status: ('A' for Active; 'I' for Inactive)
REMARK    1  A    between atoms: C_1  and  N_2
REMARK    2  A    between atoms: N_2  and  C_3
REMARK    3  A    between atoms: N_2  and  S_4
REMARK    4  A    between atoms: S_4  and  C_7
REMARK    5  A    between atoms: C_14  and  C_17
REMARK    6  A    between atoms: C_17  and  N_61
REMARK    7  A    between atoms: C_23  and  C_25
REMARK    8  A    between atoms: C_28  and  O_31
REMARK    9  A    between atoms: O_31  and  C_32
REMARK                            x       y       z     vdW  Elec       q    Type
REMARK                         _______ _______ _______ _____ _____    ______ ____
ROOT
ATOM      1  C   UNL     1       0.027   0.587   0.103  0.00  0.00    -0.002 C 
ENDROOT
BRANCH   1   9
ATOM      2  C   UNL     1      -3.160   1.103  -4.957  0.00  0.00    +0.108 A 
ATOM      3  C   UNL     1      -2.307   2.165  -5.223  0.00  0.00    +0.030 A 
ATOM      4  C   UNL     1      -1.316   2.505  -4.328  0.00  0.00    +0.030 A 
ATOM      5  C   UNL     1      -1.173   1.781  -3.152  0.00  0.00    +0.066 A 
ATOM      6  C   UNL     1      -2.037   0.707  -2.883  0.00  0.00    +0.091 A 
ATOM      7  C   UNL     1      -3.034   0.379  -3.806  0.00  0.00    +0.058 A 
ATOM      8  N   UNL     1      -1.664   0.189  -1.684  0.00  0.00    -0.234 NA
ATOM      9  C   UNL     1      -0.658   0.865  -1.210  0.00  0.00    +0.091 A 
ATOM     10  N   UNL     1      -0.312   1.856  -2.075  0.00  0.00    -0.343 N 
ATOM     11  H   UNL     1       0.429   2.517  -1.954  0.00  0.00    +0.167 HD
BRANCH   2  12
ATOM     12  S   UNL     1      -4.420   0.685  -6.116  0.00  0.00    +0.060 S 
ATOM     13  O   UNL     1      -3.988   1.173  -7.379  0.00  0.00    -0.153 OA
ATOM     14  O   UNL     1      -4.737  -0.683  -5.896  0.00  0.00    -0.153 OA
BRANCH  12  16
ATOM     15  C   UNL     1      -5.984   2.885  -6.284  0.00  0.00    +0.131 C 
ATOM     16  N   UNL     1      -5.769   1.555  -5.709  0.00  0.00    -0.183 NA
ATOM     17  C   UNL     1      -6.747   0.994  -4.773  0.00  0.00    +0.131 C 
ENDBRANCH  12  16
ENDBRANCH   2  12
ENDBRANCH   1   9
BRANCH   1  24
ATOM     18  C   UNL     1      -1.983   0.736   1.337  0.00  0.00    -0.077 C 
ATOM     19  C   UNL     1      -2.837   1.577   2.310  0.00  0.00    -0.019 C 
ATOM     20  C   UNL     1      -2.426   1.261   3.725  0.00  0.00    -0.002 C 
ATOM     21  C   UNL     1      -1.347   2.225   4.259  0.00  0.00    -0.001 C 
ATOM     22  C   UNL     1      -0.274   2.530   3.200  0.00  0.00    -0.011 C 
ATOM     23  C   UNL     1       0.108   1.294   2.423  0.00  0.00    -0.037 C 
ATOM     24  N   UNL     1      -0.697   1.312   1.159  0.00  0.00    +0.389 N 
ATOM     25  H   UNL     1      -0.820   2.289   0.866  0.00  0.00    -0.080 HD
BRANCH  23  26
ATOM     26  C   UNL     1       1.573   1.344   2.076  0.00  0.00    -0.061 A 
ATOM     27  C   UNL     1       2.060   2.364   1.279  0.00  0.00    +0.005 A 
ATOM     28  C   UNL     1       3.404   2.415   0.964  0.00  0.00    +0.046 A 
ATOM     29  C   UNL     1       4.264   1.435   1.437  0.00  0.00    +0.120 A 
ATOM     30  C   UNL     1       3.772   0.409   2.232  0.00  0.00    +0.046 A 
ATOM     31  C   UNL     1       2.428   0.366   2.549  0.00  0.00    +0.005 A 
BRANCH  29  32
ATOM     32  O   UNL     1       5.585   1.480   1.124  0.00  0.00    -0.495 OA
ATOM     33  C   UNL     1       6.021   2.564   0.302  0.00  0.00    +0.277 C 
ENDBRANCH  29  32
ENDBRANCH  23  26
ENDBRANCH   1  24
TORSDOF 6
