REMARK  Name = ZINC66782053
REMARK  8 active torsions:
REMARK  status: ('A' for Active; 'I' for Inactive)
REMARK    1  A    between atoms: C_1  and  C_2
REMARK    2  A    between atoms: C_6  and  C_7
REMARK    3  A    between atoms: C_11  and  N_13
REMARK    4  A    between atoms: C_14  and  C_16
REMARK    5  A    between atoms: C_16  and  C_17
REMARK    6  A    between atoms: C_16  and  C_18
REMARK    7  A    between atoms: C_16  and  N_19
REMARK    8  A    between atoms: N_22  and  C_23
REMARK                            x       y       z     vdW  Elec       q    Type
REMARK                         _______ _______ _______ _____ _____    ______ ____
ROOT
ATOM      1  N   UNL     1       0.210  -1.822   5.995  0.00  0.00    -0.284 N 
ATOM      2  C   UNL     1       0.048  -1.395   7.263  0.00  0.00    +0.240 C 
ATOM      3  O   UNL     1      -0.142  -0.218   7.487  0.00  0.00    -0.273 OA
ATOM      4  H   UNL     1       0.435  -2.749   5.820  0.00  0.00    +0.155 HD
ENDROOT
BRANCH   1   9
ATOM      5  C   UNL     1       0.660  -0.180   2.725  0.00  0.00    -0.009 A 
ATOM      6  C   UNL     1      -0.269   0.857   2.828  0.00  0.00    +0.009 A 
ATOM      7  C   UNL     1      -1.026   0.994   3.973  0.00  0.00    +0.002 A 
ATOM      8  C   UNL     1      -0.869   0.108   5.022  0.00  0.00    +0.023 A 
ATOM      9  C   UNL     1       0.054  -0.927   4.930  0.00  0.00    +0.034 A 
ATOM     10  C   UNL     1       0.815  -1.078   3.781  0.00  0.00    +0.032 A 
BRANCH   5  16
ATOM     11  C   UNL     1       3.694  -0.652   2.602  0.00  0.00    +0.045 C 
ATOM     12  C   UNL     1       2.821  -0.540   1.378  0.00  0.00    -0.036 A 
ATOM     13  C   UNL     1       3.362  -0.654   0.117  0.00  0.00    +0.011 A 
ATOM     14  C   UNL     1       2.548  -0.549  -0.965  0.00  0.00    +0.046 A 
ATOM     15  S   UNL     1       0.954  -0.280  -0.208  0.00  0.00    -0.096 S 
ATOM     16  C   UNL     1       1.474  -0.329   1.500  0.00  0.00    +0.022 A 
ENDBRANCH   5  16
ENDBRANCH   1   9
BRANCH   2  17
ATOM     17  C   UNL     1       0.102  -2.380   8.402  0.00  0.00    +0.107 C 
ATOM     18  C   UNL     1       1.558  -2.600   8.818  0.00  0.00    +0.041 C 
ATOM     19  C   UNL     1      -0.690  -1.830   9.590  0.00  0.00    +0.041 C 
BRANCH  17  20
ATOM     20  N   UNL     1      -0.482  -3.654   7.974  0.00  0.00    -0.286 N 
ATOM     21  C   UNL     1      -0.541  -4.690   8.834  0.00  0.00    +0.300 C 
ATOM     22  O   UNL     1      -0.111  -4.568   9.964  0.00  0.00    -0.253 OA
ATOM     23  N   UNL     1      -1.078  -5.862   8.440  0.00  0.00    -0.302 N 
ATOM     24  C   UNL     1      -1.143  -6.989   9.375  0.00  0.00    +0.129 C 
ATOM     25  H   UNL     1      -0.825  -3.752   7.072  0.00  0.00    +0.151 HD
ATOM     26  H   UNL     1      -1.421  -5.960   7.538  0.00  0.00    +0.150 HD
ENDBRANCH  17  20
ENDBRANCH   2  17
TORSDOF 4
