REMARK  Name = ZINC06089858
REMARK  9 active torsions:
REMARK  status: ('A' for Active; 'I' for Inactive)
REMARK    1  A    between atoms: C_1  and  C_2
REMARK    2  A    between atoms: C_2  and  O_3
REMARK    3  A    between atoms: O_3  and  C_4
REMARK    4  A    between atoms: C_7  and  N_10
REMARK    5  A    between atoms: C_14  and  C_15
REMARK    6  A    between atoms: N_17  and  C_24
REMARK    7  A    between atoms: C_24  and  C_25
REMARK    8  A    between atoms: N_27  and  C_28
REMARK    9  A    between atoms: C_28  and  C_29
REMARK                            x       y       z     vdW  Elec       q    Type
REMARK                         _______ _______ _______ _____ _____    ______ ____
ROOT
ATOM      1  N   UNL     1      -4.866  -9.405  -4.968  0.00  0.00    -0.190 N 
ATOM      2  C   UNL     1      -5.813  -8.459  -4.802  0.00  0.00    +0.263 C 
ATOM      3  O   UNL     1      -6.995  -8.748  -4.822  0.00  0.00    -0.269 OA
ATOM      4  C   UNL     1      -5.378  -7.067  -4.596  0.00  0.00    +0.100 C 
ATOM      5  C   UNL     1      -6.295  -6.040  -4.418  0.00  0.00    +0.028 C 
ATOM      6  C   UNL     1      -3.927  -6.811  -4.592  0.00  0.00    +0.257 C 
ATOM      7  O   UNL     1      -3.491  -5.686  -4.433  0.00  0.00    -0.270 OA
ATOM      8  N   UNL     1      -3.094  -7.857  -4.766  0.00  0.00    -0.235 N 
ATOM      9  C   UNL     1      -3.560  -9.101  -4.948  0.00  0.00    +0.320 C 
ATOM     10  O   UNL     1      -2.757 -10.000  -5.104  0.00  0.00    -0.251 OA
ATOM     11  H   UNL     1      -2.136  -7.707  -4.762  0.00  0.00    +0.159 HD
ENDROOT
BRANCH   5  12
ATOM     12  C   UNL     1      -5.853  -4.760  -4.027  0.00  0.00    +0.001 A 
ATOM     13  C   UNL     1      -4.967  -4.461  -3.006  0.00  0.00    +0.095 A 
ATOM     14  N   UNL     1      -4.795  -3.128  -2.936  0.00  0.00    -0.337 N 
ATOM     15  C   UNL     1      -5.543  -2.486  -3.902  0.00  0.00    +0.050 A 
ATOM     16  C   UNL     1      -6.237  -3.466  -4.628  0.00  0.00    +0.007 A 
ATOM     17  C   UNL     1      -7.077  -3.098  -5.674  0.00  0.00    +0.010 A 
ATOM     18  C   UNL     1      -7.225  -1.765  -5.995  0.00  0.00    +0.001 A 
ATOM     19  C   UNL     1      -6.540  -0.795  -5.279  0.00  0.00    +0.002 A 
ATOM     20  C   UNL     1      -5.705  -1.146  -4.241  0.00  0.00    +0.026 A 
BRANCH  14  21
ATOM     21  C   UNL     1      -3.927  -2.452  -1.969  0.00  0.00    +0.217 C 
BRANCH  21  22
ATOM     22  C   UNL     1      -4.744  -2.012  -0.781  0.00  0.00    +0.233 C 
ATOM     23  O   UNL     1      -5.935  -2.241  -0.747  0.00  0.00    -0.274 OA
ATOM     24  N   UNL     1      -4.152  -1.364   0.241  0.00  0.00    -0.307 N 
ATOM     25  H   UNL     1      -3.200  -1.181   0.213  0.00  0.00    +0.149 HD
BRANCH  24  26
ATOM     26  C   UNL     1      -4.947  -0.937   1.395  0.00  0.00    +0.178 C 
BRANCH  26  27
ATOM     27  C   UNL     1      -4.054  -0.241   2.390  0.00  0.00    +0.122 A 
ATOM     28  C   UNL     1      -3.786   1.077   2.419  0.00  0.00    +0.046 A 
ATOM     29  C   UNL     1      -2.910   1.293   3.508  0.00  0.00    +0.041 A 
ATOM     30  C   UNL     1      -2.695   0.094   4.078  0.00  0.00    +0.195 A 
ATOM     31  O   UNL     1      -3.390  -0.831   3.397  0.00  0.00    -0.466 OA
ENDBRANCH  26  27
ENDBRANCH  24  26
ENDBRANCH  21  22
ENDBRANCH  14  21
ENDBRANCH   5  12
BRANCH   1  35
ATOM     32  C   UNL     1      -6.025 -13.369  -5.557  0.00  0.00    +0.121 A 
ATOM     33  C   UNL     1      -5.831 -12.534  -6.648  0.00  0.00    +0.047 A 
ATOM     34  C   UNL     1      -5.447 -11.222  -6.453  0.00  0.00    +0.027 A 
ATOM     35  C   UNL     1      -5.256 -10.738  -5.166  0.00  0.00    +0.046 A 
ATOM     36  C   UNL     1      -5.445 -11.576  -4.075  0.00  0.00    +0.027 A 
ATOM     37  C   UNL     1      -5.834 -12.886  -4.271  0.00  0.00    +0.047 A 
BRANCH  32  38
ATOM     38  O   UNL     1      -6.403 -14.661  -5.750  0.00  0.00    -0.492 OA
BRANCH  38  40
ATOM     39  C   UNL     1      -7.007 -16.875  -4.994  0.00  0.00    +0.048 C 
ATOM     40  C   UNL     1      -6.585 -15.464  -4.582  0.00  0.00    +0.225 C 
ENDBRANCH  38  40
ENDBRANCH  32  38
ENDBRANCH   1  35
TORSDOF 8
