REMARK  Name = ZINC09648765
REMARK  13 active torsions:
REMARK  status: ('A' for Active; 'I' for Inactive)
REMARK    1  A    between atoms: C_1  and  C_2
REMARK    2  A    between atoms: C_2  and  C_3
REMARK    3  A    between atoms: C_3  and  N_61
REMARK    4  A    between atoms: C_12  and  C_14
REMARK    5  A    between atoms: C_16  and  O_26
REMARK    6  A    between atoms: C_17  and  O_23
REMARK    7  A    between atoms: C_18  and  O_20
REMARK    8  A    between atoms: O_20  and  C_21
REMARK    9  A    between atoms: C_21  and  C_22
REMARK   10  A    between atoms: O_23  and  C_24
REMARK   11  A    between atoms: C_24  and  C_25
REMARK   12  A    between atoms: O_26  and  C_27
REMARK   13  A    between atoms: C_27  and  C_28
REMARK                            x       y       z     vdW  Elec       q    Type
REMARK                         _______ _______ _______ _____ _____    ______ ____
ROOT
ATOM      1  C   UNL     1      -2.102  13.980   2.886  0.00  0.00    -0.072 C 
ATOM      2  C   UNL     1      -2.265  12.698   2.064  0.00  0.00    +0.038 C 
ATOM      3  C   UNL     1      -1.190  11.711   2.506  0.00  0.00    +0.050 A 
ATOM      4  C   UNL     1      -0.107  12.167   3.191  0.00  0.00    -0.002 A 
ATOM      5  S   UNL     1       0.824  10.687   3.472  0.00  0.00    -0.059 S 
ATOM      6  C   UNL     1      -0.268   9.593   2.677  0.00  0.00    +0.165 A 
ATOM      7  N   UNL     1      -1.223  10.405   2.266  0.00  0.00    -0.229 NA
ATOM      8  N   UNL     1      -0.161   8.219   2.511  0.00  0.00    -0.261 N 
ATOM      9  C   UNL     1      -1.124   7.541   1.857  0.00  0.00    +0.250 C 
ATOM     10  O   UNL     1      -2.088   8.133   1.411  0.00  0.00    -0.270 OA
ATOM     11  C   UNL     1       0.183  13.574   3.583  0.00  0.00    -0.034 C 
ATOM     12  H   UNL     1       0.609   7.746   2.866  0.00  0.00    +0.157 HD
ATOM     13  N   UNL     1      -0.707  14.457   2.788  0.00  0.00    +0.383 N 
ATOM     14  H   UNL     1      -0.413  14.432   1.805  0.00  0.00    -0.081 HD
ENDROOT
BRANCH   9  15
ATOM     15  C   UNL     1      -1.010   6.080   1.681  0.00  0.00    +0.044 A 
ATOM     16  C   UNL     1      -2.008   5.377   1.002  0.00  0.00    +0.062 A 
ATOM     17  C   UNL     1      -1.898   4.008   0.838  0.00  0.00    +0.166 A 
ATOM     18  C   UNL     1      -0.793   3.332   1.349  0.00  0.00    +0.204 A 
ATOM     19  C   UNL     1       0.200   4.030   2.030  0.00  0.00    +0.166 A 
ATOM     20  C   UNL     1       0.098   5.399   2.192  0.00  0.00    +0.062 A 
BRANCH  19  21
ATOM     21  O   UNL     1       1.275   3.365   2.532  0.00  0.00    -0.488 OA
BRANCH  21  22
ATOM     22  C   UNL     1       2.256   4.143   3.220  0.00  0.00    +0.226 C 
ATOM     23  C   UNL     1       3.382   3.229   3.709  0.00  0.00    +0.048 C 
ENDBRANCH  21  22
ENDBRANCH  19  21
BRANCH  18  24
ATOM     24  O   UNL     1      -0.688   1.987   1.186  0.00  0.00    -0.485 OA
BRANCH  24  25
ATOM     25  C   UNL     1      -0.019   1.526   0.010  0.00  0.00    +0.226 C 
ATOM     26  C   UNL     1       0.002  -0.004   0.002  0.00  0.00    +0.048 C 
ENDBRANCH  24  25
ENDBRANCH  18  24
BRANCH  17  27
ATOM     27  O   UNL     1      -2.869   3.323   0.178  0.00  0.00    -0.488 OA
BRANCH  27  28
ATOM     28  C   UNL     1      -3.974   4.081  -0.319  0.00  0.00    +0.226 C 
ATOM     29  C   UNL     1      -4.956   3.145  -1.028  0.00  0.00    +0.048 C 
ENDBRANCH  27  28
ENDBRANCH  17  27
ENDBRANCH   9  15
BRANCH  13  30
ATOM     30  C   UNL     1      -0.612  15.848   3.282  0.00  0.00    -0.079 C 
BRANCH  30  32
ATOM     31  C   UNL     1      -1.039  17.391   5.201  0.00  0.00    +0.002 C 
ATOM     32  C   UNL     1      -1.145  15.944   4.713  0.00  0.00    -0.022 C 
ENDBRANCH  30  32
ENDBRANCH  13  30
TORSDOF 9
