REMARK  Name = ZINC49161959
REMARK  5 active torsions:
REMARK  status: ('A' for Active; 'I' for Inactive)
REMARK    1  A    between atoms: C_1  and  C_2
REMARK    2  A    between atoms: C_5  and  C_7
REMARK    3  A    between atoms: C_7  and  C_9
REMARK    4  A    between atoms: C_7  and  N_10
REMARK    5  A    between atoms: N_10  and  C_11
REMARK                            x       y       z     vdW  Elec       q    Type
REMARK                         _______ _______ _______ _____ _____    ______ ____
ROOT
ATOM      1  N   UNL     1       2.192  -3.607   0.700  0.00  0.00    +0.388 N 
ATOM      2  H   UNL     1       2.565  -2.767   0.284  0.00  0.00    -0.084 HD
ATOM      3  H   UNL     1       1.908  -3.415   1.649  0.00  0.00    -0.084 HD
ENDROOT
BRANCH   1   4
ATOM      4  C   UNL     1       3.224  -4.653   0.701  0.00  0.00    -0.039 C 
ATOM      5  C   UNL     1       3.894  -4.744  -0.686  0.00  0.00    -0.007 C 
ATOM      6  C   UNL     1       5.353  -5.099  -0.326  0.00  0.00    +0.034 C 
ATOM      7  C   UNL     1       5.563  -4.546   1.067  0.00  0.00    -0.045 A 
ATOM      8  C   UNL     1       4.338  -4.291   1.659  0.00  0.00    -0.058 A 
ATOM      9  C   UNL     1       4.285  -3.779   2.945  0.00  0.00    +0.003 A 
ATOM     10  C   UNL     1       5.450  -3.523   3.640  0.00  0.00    +0.015 A 
ATOM     11  C   UNL     1       6.675  -3.778   3.051  0.00  0.00    +0.018 A 
ATOM     12  C   UNL     1       6.731  -4.288   1.763  0.00  0.00    +0.019 A 
ATOM     13 BR   UNL     1       8.273  -3.429   4.000  0.00  0.00    -0.050 Br
ENDBRANCH   1   4
BRANCH   1  14
ATOM     14  C   UNL     1       1.031  -4.065  -0.075  0.00  0.00    -0.036 C 
ATOM     15  C   UNL     1       1.412  -4.163  -1.554  0.00  0.00    -0.008 C 
BRANCH  14  20
ATOM     16  C   UNL     1      -2.518   0.316   0.476  0.00  0.00    +0.051 C 
ATOM     17  C   UNL     1      -1.790  -0.998   0.351  0.00  0.00    -0.013 A 
ATOM     18  C   UNL     1      -2.292  -2.257   0.370  0.00  0.00    +0.011 A 
ATOM     19  C   UNL     1      -1.426  -3.326   0.235  0.00  0.00    +0.010 A 
ATOM     20  C   UNL     1      -0.101  -3.083   0.088  0.00  0.00    -0.024 A 
ATOM     21  S   UNL     1      -0.044  -1.300   0.130  0.00  0.00    -0.100 S 
ENDBRANCH  14  20
ENDBRANCH   1  14
TORSDOF 3
