REMARK  Name = ZINC43976738
REMARK  3 active torsions:
REMARK  status: ('A' for Active; 'I' for Inactive)
REMARK    1  A    between atoms: C_10  and  C_13
REMARK    2  A    between atoms: C_13  and  N_14
REMARK    3  A    between atoms: C_15  and  C_17
REMARK                            x       y       z     vdW  Elec       q    Type
REMARK                         _______ _______ _______ _____ _____    ______ ____
ROOT
ATOM      1  C   UNL     1      -0.017   1.382   0.010  0.00  0.00    +0.039 A 
ATOM      2  C   UNL     1       1.192   2.061   0.002  0.00  0.00    +0.116 A 
ATOM      3  N   UNL     1       2.320   1.371  -0.013  0.00  0.00    -0.223 NA
ATOM      4  C   UNL     1       2.303   0.046  -0.020  0.00  0.00    +0.218 A 
ATOM      5  N   UNL     1       1.165  -0.633  -0.013  0.00  0.00    -0.223 NA
ATOM      6  C   UNL     1       0.002  -0.004   0.002  0.00  0.00    +0.116 A 
ATOM      7  N   UNL     1       3.502  -0.645  -0.035  0.00  0.00    -0.300 N 
ATOM      8  C   UNL     1       4.782   0.077  -0.037  0.00  0.00    +0.108 C 
ATOM      9  C   UNL     1       5.626  -0.420  -1.215  0.00  0.00    +0.024 C 
ATOM     10  C   UNL     1       5.763  -1.942  -1.134  0.00  0.00    +0.009 C 
ATOM     11  C   UNL     1       4.378  -2.586  -1.226  0.00  0.00    +0.024 C 
ATOM     12  C   UNL     1       3.520  -2.114  -0.043  0.00  0.00    +0.108 C 
ENDROOT
BRANCH  10  13
ATOM     13  C   UNL     1       6.634  -2.438  -2.289  0.00  0.00    +0.107 C 
BRANCH  13  14
ATOM     14  N   UNL     1       6.864  -3.877  -2.145  0.00  0.00    -0.315 N 
ATOM     15  C   UNL     1       7.611  -4.535  -3.054  0.00  0.00    +0.216 C 
ATOM     16  O   UNL     1       8.091  -3.935  -3.992  0.00  0.00    -0.276 OA
ATOM     17  H   UNL     1       6.480  -4.357  -1.395  0.00  0.00    +0.149 HD
BRANCH  15  18
ATOM     18  C   UNL     1       7.847  -6.016  -2.905  0.00  0.00    +0.075 C 
ATOM     19  C   UNL     1       8.558  -6.288  -1.578  0.00  0.00    +0.013 C 
ATOM     20  C   UNL     1       8.798  -7.792  -1.427  0.00  0.00    +0.001 C 
ATOM     21  C   UNL     1       9.669  -8.287  -2.583  0.00  0.00    +0.000 C 
ATOM     22  C   UNL     1       8.959  -8.015  -3.910  0.00  0.00    +0.001 C 
ATOM     23  C   UNL     1       8.719  -6.512  -4.061  0.00  0.00    +0.013 C 
ENDBRANCH  15  18
ENDBRANCH  13  14
ENDBRANCH  10  13
TORSDOF 3
