REMARK  Name = ZINC00913770
REMARK  8 active torsions:
REMARK  status: ('A' for Active; 'I' for Inactive)
REMARK    1  A    between atoms: C_1  and  C_2
REMARK    2  A    between atoms: C_7  and  C_14
REMARK    3  A    between atoms: C_14  and  N_15
REMARK    4  A    between atoms: N_15  and  C_16
REMARK    5  A    between atoms: N_15  and  S_26
REMARK    6  A    between atoms: C_16  and  C_17
REMARK    7  A    between atoms: S_26  and  C_29
REMARK    8  A    between atoms: C_33  and  C_35
REMARK                            x       y       z     vdW  Elec       q    Type
REMARK                         _______ _______ _______ _____ _____    ______ ____
ROOT
ATOM      1  N   UNL     1      -0.929   2.077  -1.176  0.00  0.00    -0.168 NA
ENDROOT
BRANCH   1   2
ATOM      2  S   UNL     1      -0.342   1.802   0.348  0.00  0.00    +0.061 S 
ATOM      3  O   UNL     1      -0.499   0.412   0.599  0.00  0.00    -0.153 OA
ATOM      4  O   UNL     1       0.919   2.451   0.422  0.00  0.00    -0.153 OA
BRANCH   2   5
ATOM      5  C   UNL     1      -1.407   2.640   1.475  0.00  0.00    +0.106 A 
ATOM      6  C   UNL     1      -1.219   3.985   1.733  0.00  0.00    +0.028 A 
ATOM      7  C   UNL     1      -2.057   4.643   2.614  0.00  0.00    +0.002 A 
ATOM      8  C   UNL     1      -3.076   3.954   3.243  0.00  0.00    +0.012 A 
ATOM      9  C   UNL     1      -3.261   2.608   2.989  0.00  0.00    +0.057 A 
ATOM     10  C   UNL     1      -2.426   1.951   2.105  0.00  0.00    +0.041 A 
BRANCH   9  11
ATOM     11  C   UNL     1      -4.372   1.857   3.676  0.00  0.00    +0.417 C 
ATOM     12  F   UNL     1      -3.901   1.326   4.882  0.00  0.00    -0.166 F 
ATOM     13  F   UNL     1      -5.434   2.730   3.935  0.00  0.00    -0.166 F 
ATOM     14  F   UNL     1      -4.814   0.818   2.850  0.00  0.00    -0.166 F 
ENDBRANCH   9  11
ENDBRANCH   2   5
ENDBRANCH   1   2
BRANCH   1  15
ATOM     15  C   UNL     1      -0.341   3.130  -2.008  0.00  0.00    +0.150 C 
BRANCH  15  22
ATOM     16  C   UNL     1       4.508  -0.099  -7.457  0.00  0.00    +0.044 C 
ATOM     17  C   UNL     1       3.427   0.495  -6.591  0.00  0.00    -0.048 A 
ATOM     18  C   UNL     1       2.145   0.648  -7.102  0.00  0.00    +0.004 A 
ATOM     19  C   UNL     1       1.150   1.184  -6.335  0.00  0.00    +0.010 A 
ATOM     20  C   UNL     1       1.425   1.583  -5.022  0.00  0.00    -0.001 A 
ATOM     21  C   UNL     1       0.383   2.162  -4.172  0.00  0.00    +0.020 A 
ATOM     22  C   UNL     1       0.709   2.531  -2.909  0.00  0.00    +0.033 A 
ATOM     23  C   UNL     1       2.028   2.361  -2.436  0.00  0.00    +0.254 A 
ATOM     24  O   UNL     1       2.300   2.704  -1.299  0.00  0.00    -0.268 OA
ATOM     25  N   UNL     1       2.990   1.826  -3.208  0.00  0.00    -0.322 N 
ATOM     26  H   UNL     1       3.912   1.713  -2.838  0.00  0.00    +0.169 HD
ATOM     27  C   UNL     1       2.724   1.430  -4.501  0.00  0.00    +0.049 A 
ATOM     28  C   UNL     1       3.721   0.882  -5.302  0.00  0.00    +0.029 A 
ENDBRANCH  15  22
ENDBRANCH   1  15
BRANCH   1  29
ATOM     29  C   UNL     1      -2.035   1.268  -1.692  0.00  0.00    +0.145 C 
BRANCH  29  30
ATOM     30  C   UNL     1      -3.324   2.037  -1.561  0.00  0.00    -0.028 A 
ATOM     31  C   UNL     1      -4.146   1.824  -0.469  0.00  0.00    +0.009 A 
ATOM     32  C   UNL     1      -5.327   2.532  -0.341  0.00  0.00    +0.050 A 
ATOM     33  C   UNL     1      -5.696   3.447  -1.313  0.00  0.00    +0.166 A 
ATOM     34  C   UNL     1      -4.870   3.658  -2.415  0.00  0.00    +0.167 A 
ATOM     35  C   UNL     1      -3.686   2.950  -2.534  0.00  0.00    +0.054 A 
ATOM     36  O   UNL     1      -5.448   4.597  -3.220  0.00  0.00    -0.453 OA
ATOM     37  C   UNL     1      -6.826   4.661  -2.808  0.00  0.00    +0.466 C 
ATOM     38  O   UNL     1      -6.790   4.255  -1.427  0.00  0.00    -0.453 OA
ENDBRANCH  29  30
ENDBRANCH   1  29
TORSDOF 7
