REMARK  Name = ZINC36493405
REMARK  14 active torsions:
REMARK  status: ('A' for Active; 'I' for Inactive)
REMARK    1  A    between atoms: C_1  and  C_2
REMARK    2  A    between atoms: C_2  and  C_3
REMARK    3  A    between atoms: C_3  and  C_4
REMARK    4  A    between atoms: C_4  and  C_5
REMARK    5  A    between atoms: N_7  and  C_8
REMARK    6  A    between atoms: N_7  and  C_14
REMARK    7  A    between atoms: C_14  and  C_16
REMARK    8  A    between atoms: C_14  and  C_24
REMARK    9  A    between atoms: C_19  and  C_23
REMARK   10  A    between atoms: C_21  and  C_22
REMARK   11  A    between atoms: N_26  and  C_27
REMARK   12  A    between atoms: C_27  and  S_28
REMARK   13  A    between atoms: S_28  and  C_31
REMARK   14  A    between atoms: C_34  and  C_37
REMARK                            x       y       z     vdW  Elec       q    Type
REMARK                         _______ _______ _______ _____ _____    ______ ____
ROOT
ATOM      1  C   UNL     1      -4.230  -4.430   0.153  0.00  0.00    +0.193 C 
ENDROOT
BRANCH   1   2
ATOM      2  C   UNL     1      -4.190  -5.186  -1.150  0.00  0.00    -0.015 A 
ATOM      3  C   UNL     1      -4.716  -6.463  -1.225  0.00  0.00    +0.006 A 
ATOM      4  C   UNL     1      -4.679  -7.156  -2.420  0.00  0.00    +0.004 A 
ATOM      5  C   UNL     1      -4.116  -6.573  -3.540  0.00  0.00    -0.050 A 
ATOM      6  C   UNL     1      -3.591  -5.297  -3.465  0.00  0.00    +0.007 A 
ATOM      7  C   UNL     1      -3.632  -4.602  -2.271  0.00  0.00    -0.045 A 
ATOM      8  C   UNL     1      -3.064  -3.208  -2.191  0.00  0.00    +0.044 C 
ATOM      9  C   UNL     1      -4.075  -7.330  -4.843  0.00  0.00    +0.044 C 
ENDBRANCH   1   2
BRANCH   1  10
ATOM     10  C   UNL     1      -4.691  -5.351   1.254  0.00  0.00    +0.239 C 
ATOM     11  O   UNL     1      -3.939  -5.636   2.161  0.00  0.00    -0.273 OA
ATOM     12  N   UNL     1      -5.941  -5.856   1.230  0.00  0.00    -0.294 N 
ATOM     13  H   UNL     1      -6.517  -5.690   0.467  0.00  0.00    +0.150 HD
BRANCH  12  14
ATOM     14  C   UNL     1      -6.429  -6.654   2.357  0.00  0.00    +0.278 C 
BRANCH  14  15
ATOM     15  S   UNL     1      -7.348  -5.588   3.501  0.00  0.00    +0.013 S 
ATOM     16  O   UNL     1      -7.882  -6.360   4.568  0.00  0.00    -0.168 OA
ATOM     17  O   UNL     1      -6.610  -4.402   3.764  0.00  0.00    -0.168 OA
BRANCH  15  18
ATOM     18  C   UNL     1      -8.754  -5.048   2.588  0.00  0.00    +0.090 A 
ATOM     19  C   UNL     1      -8.688  -3.891   1.835  0.00  0.00    +0.027 A 
ATOM     20  C   UNL     1      -9.791  -3.468   1.118  0.00  0.00    +0.005 A 
ATOM     21  C   UNL     1     -10.962  -4.202   1.154  0.00  0.00    -0.050 A 
ATOM     22  C   UNL     1     -11.028  -5.361   1.906  0.00  0.00    +0.005 A 
ATOM     23  C   UNL     1      -9.923  -5.786   2.619  0.00  0.00    +0.027 A 
ATOM     24  C   UNL     1     -12.165  -3.741   0.373  0.00  0.00    +0.044 C 
ENDBRANCH  15  18
ENDBRANCH  14  15
ENDBRANCH  12  14
ENDBRANCH   1  10
BRANCH   1  27
ATOM     25  C   UNL     1      -2.695  -2.608   0.665  0.00  0.00    +0.217 C 
ATOM     26  O   UNL     1      -3.643  -1.851   0.686  0.00  0.00    -0.276 OA
ATOM     27  N   UNL     1      -2.890  -3.927   0.467  0.00  0.00    -0.283 N 
BRANCH  27  28
ATOM     28  C   UNL     1      -1.763  -4.857   0.566  0.00  0.00    +0.077 C 
ATOM     29  C   UNL     1      -2.204  -6.245   0.098  0.00  0.00    +0.022 C 
ATOM     30  C   UNL     1      -1.027  -7.216   0.201  0.00  0.00    +0.002 C 
ATOM     31  C   UNL     1      -0.556  -7.295   1.655  0.00  0.00    +0.000 C 
ATOM     32  C   UNL     1      -0.115  -5.907   2.123  0.00  0.00    +0.002 C 
ATOM     33  C   UNL     1      -1.292  -4.935   2.020  0.00  0.00    +0.022 C 
ENDBRANCH  27  28
BRANCH  25  34
ATOM     34  C   UNL     1      -1.300  -2.074   0.861  0.00  0.00    +0.096 C 
BRANCH  34  35
ATOM     35  C   UNL     1      -1.342  -0.545   0.913  0.00  0.00    +0.009 C 
BRANCH  35  37
ATOM     36  C   UNL     1       0.033   1.526   1.163  0.00  0.00    +0.004 C 
ATOM     37  C   UNL     1       0.075  -0.003   1.111  0.00  0.00    -0.003 C 
ENDBRANCH  35  37
ENDBRANCH  34  35
ENDBRANCH  25  34
ENDBRANCH   1  27
TORSDOF 10
