REMARK  Name = ZINC59878158
REMARK  10 active torsions:
REMARK  status: ('A' for Active; 'I' for Inactive)
REMARK    1  A    between atoms: C_1  and  C_2
REMARK    2  A    between atoms: C_7  and  N_8
REMARK    3  A    between atoms: N_8  and  C_9
REMARK    4  A    between atoms: C_9  and  C_10
REMARK    5  A    between atoms: C_13  and  S_21
REMARK    6  A    between atoms: N_14  and  C_15
REMARK    7  A    between atoms: S_21  and  C_22
REMARK    8  A    between atoms: C_22  and  C_24
REMARK    9  A    between atoms: C_22  and  C_25
REMARK   10  A    between atoms: C_28  and  C_30
REMARK                            x       y       z     vdW  Elec       q    Type
REMARK                         _______ _______ _______ _____ _____    ______ ____
ROOT
ATOM      1  C   UNL     1       0.045   0.213   4.831  0.00  0.00    +0.156 A 
ATOM      2  N   UNL     1       1.093   0.729   5.408  0.00  0.00    -0.132 NA
ATOM      3  N   UNL     1       0.733   1.518   6.356  0.00  0.00    -0.122 NA
ATOM      4  C   UNL     1      -0.578   1.550   6.438  0.00  0.00    +0.197 A 
ATOM      5  N   UNL     1      -1.059   0.721   5.463  0.00  0.00    -0.273 N 
ENDROOT
BRANCH   5   6
ATOM      6  C   UNL     1      -2.404   0.446   5.171  0.00  0.00    +0.050 A 
ATOM      7  C   UNL     1      -2.942   0.826   3.950  0.00  0.00    +0.026 A 
ATOM      8  C   UNL     1      -4.266   0.554   3.666  0.00  0.00    +0.002 A 
ATOM      9  C   UNL     1      -5.055  -0.095   4.598  0.00  0.00    +0.000 A 
ATOM     10  C   UNL     1      -4.522  -0.474   5.816  0.00  0.00    +0.002 A 
ATOM     11  C   UNL     1      -3.196  -0.211   6.103  0.00  0.00    +0.026 A 
ENDBRANCH   5   6
BRANCH   1  12
ATOM     12  C   UNL     1       0.047  -0.758   3.678  0.00  0.00    +0.178 C 
BRANCH  12  13
ATOM     13  N   UNL     1       0.025  -0.016   2.415  0.00  0.00    -0.336 N 
ATOM     14  H   UNL     1       0.012   0.954   2.422  0.00  0.00    +0.147 HD
BRANCH  13  21
ATOM     15  C   UNL     1      -0.018   1.503   0.010  0.00  0.00    +0.045 C 
ATOM     16  C   UNL     1       0.002  -0.004   0.002  0.00  0.00    -0.030 A 
ATOM     17  C   UNL     1       0.006  -0.689  -1.198  0.00  0.00    +0.005 A 
ATOM     18  C   UNL     1       0.024  -2.071  -1.206  0.00  0.00    +0.000 A 
ATOM     19  C   UNL     1       0.039  -2.773  -0.014  0.00  0.00    +0.002 A 
ATOM     20  C   UNL     1       0.036  -2.095   1.188  0.00  0.00    +0.023 A 
ATOM     21  C   UNL     1       0.023  -0.706   1.200  0.00  0.00    +0.030 A 
ENDBRANCH  13  21
ENDBRANCH  12  13
ENDBRANCH   1  12
BRANCH   4  22
ATOM     22  S   UNL     1      -1.534   2.487   7.583  0.00  0.00    -0.073 S 
BRANCH  22  23
ATOM     23  C   UNL     1      -0.294   3.362   8.578  0.00  0.00    +0.139 C 
ATOM     24  C   UNL     1       0.528   2.347   9.375  0.00  0.00    +0.029 C 
BRANCH  23  25
ATOM     25  C   UNL     1      -0.986   4.305   9.528  0.00  0.00    +0.230 A 
ATOM     26  N   UNL     1      -2.027   4.033  10.263  0.00  0.00    -0.111 NA
ATOM     27  N   UNL     1      -2.347   5.072  10.951  0.00  0.00    -0.112 NA
ATOM     28  C   UNL     1      -1.522   6.042  10.678  0.00  0.00    +0.220 A 
ATOM     29  O   UNL     1      -0.640   5.579   9.776  0.00  0.00    -0.423 OA
BRANCH  28  30
ATOM     30  C   UNL     1      -1.549   7.428  11.269  0.00  0.00    +0.077 C 
ATOM     31  C   UNL     1      -1.936   7.456  12.757  0.00  0.00    +0.013 C 
ATOM     32  C   UNL     1      -2.761   8.714  12.438  0.00  0.00    +0.001 C 
ATOM     33  C   UNL     1      -2.857   8.189  10.995  0.00  0.00    +0.013 C 
ENDBRANCH  28  30
ENDBRANCH  23  25
ENDBRANCH  22  23
ENDBRANCH   4  22
TORSDOF 8
