REMARK  Name = ZINC39768712
REMARK  11 active torsions:
REMARK  status: ('A' for Active; 'I' for Inactive)
REMARK    1  A    between atoms: C_1  and  C_2
REMARK    2  A    between atoms: C_4  and  C_31
REMARK    3  A    between atoms: C_5  and  N_9
REMARK    4  A    between atoms: C_6  and  C_8
REMARK    5  A    between atoms: C_10  and  C_12
REMARK    6  A    between atoms: C_12  and  S_13
REMARK    7  A    between atoms: S_13  and  C_14
REMARK    8  A    between atoms: C_17  and  C_22
REMARK    9  A    between atoms: N_18  and  C_19
REMARK   10  A    between atoms: C_19  and  C_20
REMARK   11  A    between atoms: C_19  and  C_21
REMARK                            x       y       z     vdW  Elec       q    Type
REMARK                         _______ _______ _______ _____ _____    ______ ____
ROOT
ATOM      1  C   UNL     1      -0.738  -8.847   2.096  0.00  0.00    +0.193 A 
ATOM      2  N   UNL     1      -0.987  -9.410   0.934  0.00  0.00    -0.122 NA
ATOM      3  N   UNL     1      -1.173 -10.672   1.085  0.00  0.00    -0.125 NA
ATOM      4  C   UNL     1      -1.055 -10.994   2.355  0.00  0.00    +0.201 A 
ATOM      5  N   UNL     1      -0.767  -9.834   3.040  0.00  0.00    -0.297 N 
ENDROOT
BRANCH   4   6
ATOM      6  C   UNL     1      -1.199 -12.339   2.934  0.00  0.00    +0.173 A 
ATOM      7  C   UNL     1      -1.185 -13.499   2.228  0.00  0.00    +0.061 A 
ATOM      8  C   UNL     1      -1.359 -14.572   3.208  0.00  0.00    +0.021 A 
ATOM      9  C   UNL     1      -1.430 -15.964   3.124  0.00  0.00    +0.011 A 
ATOM     10  C   UNL     1      -1.603 -16.703   4.261  0.00  0.00    +0.001 A 
ATOM     11  C   UNL     1      -1.707 -16.079   5.496  0.00  0.00    +0.004 A 
ATOM     12  C   UNL     1      -1.639 -14.705   5.598  0.00  0.00    +0.047 A 
ATOM     13  C   UNL     1      -1.464 -13.934   4.457  0.00  0.00    +0.136 A 
ATOM     14  O   UNL     1      -1.357 -12.606   4.246  0.00  0.00    -0.452 OA
ENDBRANCH   4   6
BRANCH   5  15
ATOM     15  C   UNL     1      -0.541  -9.689   4.480  0.00  0.00    +0.085 C 
ATOM     16  C   UNL     1       0.862  -9.129   4.723  0.00  0.00    +0.030 C 
ATOM     17  C   UNL     1      -1.581  -8.730   5.065  0.00  0.00    +0.030 C 
ENDBRANCH   5  15
BRANCH   1  18
ATOM     18  S   UNL     1      -0.418  -7.138   2.382  0.00  0.00    -0.077 S 
BRANCH  18  19
ATOM     19  C   UNL     1      -0.526  -6.390   0.733  0.00  0.00    +0.173 C 
BRANCH  19  21
ATOM     20  N   UNL     1      -0.299  -4.141  -0.272  0.00  0.00    -0.284 N 
ATOM     21  C   UNL     1      -0.270  -4.908   0.836  0.00  0.00    +0.228 C 
ATOM     22  O   UNL     1      -0.036  -4.407   1.915  0.00  0.00    -0.275 OA
ATOM     23  H   UNL     1      -0.421  -4.551  -1.143  0.00  0.00    +0.155 HD
BRANCH  20  28
ATOM     24  C   UNL     1       0.286   1.486   0.157  0.00  0.00    +0.044 C 
ATOM     25  C   UNL     1       0.130  -0.009   0.043  0.00  0.00    -0.050 A 
ATOM     26  C   UNL     1       1.121  -0.844   0.526  0.00  0.00    +0.008 A 
ATOM     27  C   UNL     1       0.982  -2.215   0.423  0.00  0.00    -0.029 A 
ATOM     28  C   UNL     1      -0.155  -2.753  -0.166  0.00  0.00    +0.039 A 
ATOM     29  C   UNL     1      -1.148  -1.911  -0.649  0.00  0.00    -0.029 A 
ATOM     30  C   UNL     1      -1.005  -0.542  -0.539  0.00  0.00    +0.008 A 
ATOM     31  C   UNL     1      -2.383  -2.491  -1.289  0.00  0.00    +0.045 C 
ATOM     32  C   UNL     1       2.062  -3.124   0.949  0.00  0.00    +0.045 C 
ENDBRANCH  20  28
ENDBRANCH  19  21
ENDBRANCH  18  19
ENDBRANCH   1  18
TORSDOF 6
