REMARK  Name = ZINC36312851
REMARK  15 active torsions:
REMARK  status: ('A' for Active; 'I' for Inactive)
REMARK    1  A    between atoms: C_1  and  C_2
REMARK    2  A    between atoms: N_8  and  C_9
REMARK    3  A    between atoms: C_10  and  C_20
REMARK    4  A    between atoms: C_11  and  C_14
REMARK    5  A    between atoms: C_20  and  N_21
REMARK    6  A    between atoms: N_21  and  C_22
REMARK    7  A    between atoms: C_22  and  C_23
REMARK    8  A    between atoms: C_23  and  N_24
REMARK    9  A    between atoms: N_24  and  C_25
REMARK   10  A    between atoms: N_24  and  C_26
REMARK   11  A    between atoms: C_27  and  C_29
REMARK   12  A    between atoms: C_29  and  C_30
REMARK   13  A    between atoms: C_30  and  C_31
REMARK   14  A    between atoms: C_30  and  C_32
REMARK   15  A    between atoms: C_30  and  C_33
REMARK                            x       y       z     vdW  Elec       q    Type
REMARK                         _______ _______ _______ _____ _____    ______ ____
ROOT
ATOM      1  C   UNL     1       1.277   0.772   2.324  0.00  0.00    +0.226 A 
ATOM      2  C   UNL     1       2.082   0.228   3.271  0.00  0.00    +0.059 A 
ATOM      3  C   UNL     1       2.347   1.219   4.238  0.00  0.00    +0.120 A 
ATOM      4  N   UNL     1       1.720   2.315   3.877  0.00  0.00    -0.076 NA
ATOM      5  O   UNL     1       1.041   2.050   2.663  0.00  0.00    -0.339 OA
ENDROOT
BRANCH   1  12
ATOM      6  C   UNL     1      -0.960  -0.696   2.709  0.00  0.00    +0.028 C 
ATOM      7  C   UNL     1      -0.370  -0.771   1.299  0.00  0.00    +0.073 C 
ATOM      8  C   UNL     1      -1.424  -0.331   0.278  0.00  0.00    +0.022 C 
ATOM      9  C   UNL     1      -0.788  -0.275  -1.113  0.00  0.00    +0.003 C 
ATOM     10  C   UNL     1       0.346   0.752  -1.116  0.00  0.00    +0.019 C 
ATOM     11  C   UNL     1       1.420   0.325  -0.111  0.00  0.00    +0.108 C 
ATOM     12  N   UNL     1       0.790   0.126   1.202  0.00  0.00    -0.296 N 
ENDBRANCH   1  12
BRANCH   3  13
ATOM     13  C   UNL     1       3.186   1.054   5.452  0.00  0.00    +0.004 A 
ATOM     14  C   UNL     1       3.068  -0.095   6.231  0.00  0.00    +0.010 A 
ATOM     15  C   UNL     1       3.852  -0.244   7.358  0.00  0.00    +0.001 A 
ATOM     16  C   UNL     1       4.752   0.744   7.714  0.00  0.00    +0.000 A 
ATOM     17  C   UNL     1       4.873   1.886   6.943  0.00  0.00    +0.001 A 
ATOM     18  C   UNL     1       4.098   2.043   5.811  0.00  0.00    +0.010 A 
ENDBRANCH   3  13
BRANCH   2  19
ATOM     19  C   UNL     1       2.602  -1.187   3.286  0.00  0.00    +0.150 C 
BRANCH  19  20
ATOM     20  N   UNL     1       3.922  -1.228   2.652  0.00  0.00    -0.299 N 
ATOM     21  C   UNL     1       4.035  -1.564   1.352  0.00  0.00    +0.216 C 
ATOM     22  O   UNL     1       3.039  -1.741   0.683  0.00  0.00    -0.276 OA
BRANCH  20  23
ATOM     23  C   UNL     1       5.120  -0.906   3.432  0.00  0.00    +0.089 C 
BRANCH  23  24
ATOM     24  C   UNL     1       5.670  -2.181   4.073  0.00  0.00    -0.060 C 
BRANCH  24  25
ATOM     25  N   UNL     1       6.871  -1.858   4.855  0.00  0.00    +0.377 N 
ATOM     26  C   UNL     1       6.503  -0.986   5.979  0.00  0.00    -0.097 C 
ATOM     27  C   UNL     1       7.467  -3.097   5.372  0.00  0.00    -0.097 C 
ATOM     28  H   UNL     1       7.538  -1.383   4.266  0.00  0.00    -0.083 HD
ENDBRANCH  24  25
ENDBRANCH  23  24
ENDBRANCH  20  23
BRANCH  21  29
ATOM     29  C   UNL     1       5.399  -1.718   0.729  0.00  0.00    +0.102 C 
BRANCH  29  30
ATOM     30  C   UNL     1       5.247  -2.028  -0.761  0.00  0.00    -0.029 C 
ATOM     31  C   UNL     1       4.521  -0.871  -1.451  0.00  0.00    +0.011 C 
ATOM     32  C   UNL     1       6.630  -2.209  -1.389  0.00  0.00    +0.011 C 
ATOM     33  C   UNL     1       4.436  -3.314  -0.935  0.00  0.00    +0.011 C 
ENDBRANCH  29  30
ENDBRANCH  21  29
ENDBRANCH  19  20
ENDBRANCH   2  19
TORSDOF 9
