REMARK  Name = ZINC14641645
REMARK  9 active torsions:
REMARK  status: ('A' for Active; 'I' for Inactive)
REMARK    1  A    between atoms: C_1  and  C_2
REMARK    2  A    between atoms: C_2  and  C_3
REMARK    3  A    between atoms: C_3  and  O_4
REMARK    4  A    between atoms: O_4  and  C_5
REMARK    5  A    between atoms: C_9  and  C_11
REMARK    6  A    between atoms: N_13  and  C_14
REMARK    7  A    between atoms: C_14  and  N_16
REMARK    8  A    between atoms: N_16  and  N_17
REMARK    9  A    between atoms: C_18  and  C_20
REMARK                            x       y       z     vdW  Elec       q    Type
REMARK                         _______ _______ _______ _____ _____    ______ ____
ROOT
ATOM      1  C   UNL     1       1.081   7.360   0.029  0.00  0.00    +0.153 C 
ATOM      2  S   UNL     1      -0.410   8.200   0.047  0.00  0.00    -0.017 S 
ENDROOT
BRANCH   1   5
ATOM      3  C   UNL     1      -0.064   5.326   0.029  0.00  0.00    +0.250 C 
ATOM      4  O   UNL     1      -1.123   5.923   0.042  0.00  0.00    -0.270 OA
ATOM      5  N   UNL     1       1.096   6.012   0.022  0.00  0.00    -0.263 N 
ATOM      6  H   UNL     1       1.941   5.536   0.012  0.00  0.00    +0.157 HD
BRANCH   3  11
ATOM      7  C   UNL     1      -1.226   1.751   0.017  0.00  0.00    +0.121 A 
ATOM      8  C   UNL     1      -0.013   1.076   0.008  0.00  0.00    +0.046 A 
ATOM      9  C   UNL     1       1.177   1.781   0.000  0.00  0.00    +0.004 A 
ATOM     10  C   UNL     1       1.166   3.161   0.007  0.00  0.00    +0.013 A 
ATOM     11  C   UNL     1      -0.049   3.848   0.022  0.00  0.00    +0.041 A 
ATOM     12  C   UNL     1      -1.248   3.135   0.030  0.00  0.00    +0.058 A 
BRANCH   7  13
ATOM     13  O   UNL     1      -2.392   1.053   0.020  0.00  0.00    -0.492 OA
BRANCH  13  14
ATOM     14  C   UNL     1      -2.294  -0.373   0.012  0.00  0.00    +0.229 C 
BRANCH  14  16
ATOM     15  C   UNL     1      -3.594  -2.507   0.007  0.00  0.00    +0.007 C 
ATOM     16  C   UNL     1      -3.699  -0.980   0.016  0.00  0.00    +0.038 C 
ENDBRANCH  14  16
ENDBRANCH  13  14
ENDBRANCH   7  13
ENDBRANCH   3  11
ENDBRANCH   1   5
BRANCH   1  17
ATOM     17  N   UNL     1       2.241   8.046   0.022  0.00  0.00    -0.245 N 
ATOM     18  H   UNL     1       2.231   9.016   0.026  0.00  0.00    +0.172 HD
BRANCH  17  19
ATOM     19  N   UNL     1       3.462   7.359   0.007  0.00  0.00    -0.231 N 
ATOM     20  C   UNL     1       4.622   8.045  -0.001  0.00  0.00    +0.261 C 
ATOM     21  O   UNL     1       4.609   9.260   0.005  0.00  0.00    -0.269 OA
ATOM     22  H   UNL     1       3.472   6.389   0.002  0.00  0.00    +0.173 HD
BRANCH  20  23
ATOM     23  C   UNL     1       5.910   7.319  -0.016  0.00  0.00    +0.052 A 
ATOM     24  C   UNL     1       5.928   5.923  -0.018  0.00  0.00    +0.014 A 
ATOM     25  C   UNL     1       7.133   5.253  -0.037  0.00  0.00    +0.001 A 
ATOM     26  C   UNL     1       8.323   5.960  -0.044  0.00  0.00    +0.001 A 
ATOM     27  C   UNL     1       8.313   7.343  -0.038  0.00  0.00    +0.016 A 
ATOM     28  C   UNL     1       7.114   8.027  -0.024  0.00  0.00    +0.030 A 
ATOM     29 BR   UNL     1       7.101   9.918  -0.015  0.00  0.00    -0.050 Br
ENDBRANCH  20  23
ENDBRANCH  17  19
ENDBRANCH   1  17
TORSDOF 8
