REMARK  Name = ZINC39982674
REMARK  9 active torsions:
REMARK  status: ('A' for Active; 'I' for Inactive)
REMARK    1  A    between atoms: C_1  and  C_2
REMARK    2  A    between atoms: C_2  and  C_3
REMARK    3  A    between atoms: C_2  and  C_4
REMARK    4  A    between atoms: C_4  and  C_6
REMARK    5  A    between atoms: C_4  and  N_17
REMARK    6  A    between atoms: C_18  and  C_20
REMARK    7  A    between atoms: C_20  and  S_21
REMARK    8  A    between atoms: S_21  and  C_22
REMARK    9  A    between atoms: C_26  and  C_28
REMARK                            x       y       z     vdW  Elec       q    Type
REMARK                         _______ _______ _______ _____ _____    ______ ____
ROOT
ATOM      1  N   UNL     1      -1.413  -1.998   0.005  0.00  0.00    -0.308 N 
ATOM      2  C   UNL     1      -1.292  -2.677   1.163  0.00  0.00    +0.224 C 
ATOM      3  O   UNL     1      -1.198  -2.075   2.212  0.00  0.00    -0.275 OA
ATOM      4  H   UNL     1      -1.488  -2.480  -0.834  0.00  0.00    +0.149 HD
ENDROOT
BRANCH   1   5
ATOM      5  C   UNL     1      -1.433  -0.534   0.013  0.00  0.00    +0.106 C 
BRANCH   5   6
ATOM      6  C   UNL     1      -2.162  -0.034  -1.208  0.00  0.00    -0.023 A 
ATOM      7  C   UNL     1      -1.980  -0.665  -2.425  0.00  0.00    +0.009 A 
ATOM      8  C   UNL     1      -2.646  -0.212  -3.550  0.00  0.00    +0.050 A 
ATOM      9  C   UNL     1      -3.497   0.875  -3.453  0.00  0.00    +0.162 A 
ATOM     10  C   UNL     1      -3.680   1.508  -2.231  0.00  0.00    +0.162 A 
ATOM     11  C   UNL     1      -3.016   1.050  -1.106  0.00  0.00    +0.055 A 
ATOM     12  O   UNL     1      -4.522   2.578  -2.146  0.00  0.00    -0.488 OA
ATOM     13  C   UNL     1      -4.093   3.766  -2.816  0.00  0.00    +0.232 C 
ATOM     14  C   UNL     1      -4.476   3.724  -4.286  0.00  0.00    +0.082 C 
ATOM     15  C   UNL     1      -3.760   2.614  -5.040  0.00  0.00    +0.232 C 
ATOM     16  O   UNL     1      -4.162   1.331  -4.554  0.00  0.00    -0.488 OA
ENDBRANCH   5   6
BRANCH   5  18
ATOM     17  C   UNL     1      -0.019   1.526   0.010  0.00  0.00    +0.009 C 
ATOM     18  C   UNL     1       0.002  -0.004   0.002  0.00  0.00    +0.008 C 
ATOM     19  C   UNL     1       0.742  -0.511   1.242  0.00  0.00    +0.009 C 
ENDBRANCH   5  18
ENDBRANCH   1   5
BRANCH   2  20
ATOM     20  C   UNL     1      -1.271  -4.184   1.155  0.00  0.00    +0.170 C 
BRANCH  20  21
ATOM     21  S   UNL     1      -1.097  -4.796   2.853  0.00  0.00    -0.087 S 
BRANCH  21  22
ATOM     22  C   UNL     1      -1.090  -6.601   2.671  0.00  0.00    +0.339 C 
ATOM     23  N   UNL     1      -2.327  -7.056   2.015  0.00  0.00    -0.219 N 
ATOM     24  N   UNL     1      -1.915  -7.679   0.828  0.00  0.00    -0.145 NA
ATOM     25  C   UNL     1      -0.613  -7.636   0.726  0.00  0.00    +0.238 C 
ATOM     26  O   UNL     1      -0.039  -7.010   1.785  0.00  0.00    -0.443 OA
ATOM     27  H   UNL     1      -3.236  -6.949   2.337  0.00  0.00    +0.173 HD
BRANCH  25  28
ATOM     28  C   UNL     1       0.107  -8.173  -0.350  0.00  0.00    +0.043 C 
ATOM     29  C   UNL     1      -0.411  -8.823  -1.472  0.00  0.00    +0.008 A 
ATOM     30  C   UNL     1      -1.729  -9.134  -1.869  0.00  0.00    +0.010 A 
ATOM     31  C   UNL     1      -1.943  -9.790  -3.039  0.00  0.00    +0.001 A 
ATOM     32  C   UNL     1      -0.886 -10.168  -3.869  0.00  0.00    +0.002 A 
ATOM     33  C   UNL     1       0.405  -9.901  -3.550  0.00  0.00    +0.026 A 
ATOM     34  C   UNL     1       0.707  -9.220  -2.343  0.00  0.00    +0.043 A 
ATOM     35  N   UNL     1       1.857  -8.849  -1.815  0.00  0.00    -0.380 N 
ATOM     36  C   UNL     1       1.607  -8.165  -0.542  0.00  0.00    +0.154 C 
ATOM     37  H   UNL     1       2.730  -9.002  -2.208  0.00  0.00    +0.160 HD
ENDBRANCH  25  28
ENDBRANCH  21  22
ENDBRANCH  20  21
ENDBRANCH   2  20
TORSDOF 7
