REMARK  Name = ZINC08441413
REMARK  12 active torsions:
REMARK  status: ('A' for Active; 'I' for Inactive)
REMARK    1  A    between atoms: C_1  and  C_2
REMARK    2  A    between atoms: C_7  and  C_12
REMARK    3  A    between atoms: C_12  and  C_14
REMARK    4  A    between atoms: N_18  and  C_33
REMARK    5  A    between atoms: C_19  and  C_21
REMARK    6  A    between atoms: C_23  and  O_31
REMARK    7  A    between atoms: C_24  and  O_29
REMARK    8  A    between atoms: C_25  and  O_27
REMARK    9  A    between atoms: O_27  and  C_28
REMARK   10  A    between atoms: O_29  and  C_30
REMARK   11  A    between atoms: O_31  and  C_32
REMARK   12  A    between atoms: C_33  and  C_34
REMARK                            x       y       z     vdW  Elec       q    Type
REMARK                         _______ _______ _______ _____ _____    ______ ____
ROOT
ATOM      1  C   UNL     1      -1.453  -5.847   2.970  0.00  0.00    +0.076 C 
ATOM      2  C   UNL     1      -1.803  -7.151   3.055  0.00  0.00    +0.249 C 
ATOM      3  C   UNL     1      -1.027  -7.792   4.138  0.00  0.00    +0.288 C 
ATOM      4  O   UNL     1      -1.115  -8.960   4.462  0.00  0.00    -0.266 OA
ATOM      5  N   UNL     1      -0.209  -6.891   4.712  0.00  0.00    -0.281 N 
ATOM      6  C   UNL     1      -0.402  -5.607   4.028  0.00  0.00    +0.145 C 
ATOM      7  O   UNL     1      -2.718  -7.770   2.274  0.00  0.00    -0.282 OA
ENDROOT
BRANCH   6   8
ATOM      8  C   UNL     1       0.887  -5.160   3.386  0.00  0.00    -0.015 A 
ATOM      9  C   UNL     1       1.465  -5.928   2.394  0.00  0.00    +0.055 A 
ATOM     10  C   UNL     1       2.651  -5.521   1.801  0.00  0.00    +0.165 A 
ATOM     11  C   UNL     1       3.257  -4.337   2.206  0.00  0.00    +0.204 A 
ATOM     12  C   UNL     1       2.672  -3.567   3.204  0.00  0.00    +0.165 A 
ATOM     13  C   UNL     1       1.483  -3.979   3.788  0.00  0.00    +0.055 A 
BRANCH  12  14
ATOM     14  O   UNL     1       3.261  -2.409   3.604  0.00  0.00    -0.491 OA
ATOM     15  C   UNL     1       2.658  -1.719   4.700  0.00  0.00    +0.277 C 
ENDBRANCH  12  14
BRANCH  11  16
ATOM     16  O   UNL     1       4.421  -3.934   1.627  0.00  0.00    -0.488 OA
ATOM     17  C   UNL     1       4.315  -3.102   0.470  0.00  0.00    +0.277 C 
ENDBRANCH  11  16
BRANCH  10  18
ATOM     18  O   UNL     1       3.220  -6.278   0.825  0.00  0.00    -0.491 OA
ATOM     19  C   UNL     1       2.542  -7.481   0.460  0.00  0.00    +0.277 C 
ENDBRANCH  10  18
ENDBRANCH   6   8
BRANCH   1  20
ATOM     20  C   UNL     1      -1.987  -4.858   2.028  0.00  0.00    +0.195 C 
ATOM     21  O   UNL     1      -1.789  -4.986   0.834  0.00  0.00    -0.287 OA
BRANCH  20  27
ATOM     22  C   UNL     1      -6.043   1.327   2.390  0.00  0.00    +0.052 C 
ATOM     23  C   UNL     1      -4.768   0.522   2.650  0.00  0.00    +0.175 C 
ATOM     24  C   UNL     1      -4.440  -0.389   1.444  0.00  0.00    +0.083 C 
ATOM     25  C   UNL     1      -3.884  -1.624   2.127  0.00  0.00    -0.002 A 
ATOM     26  C   UNL     1      -3.160  -2.690   1.653  0.00  0.00    +0.019 A 
ATOM     27  C   UNL     1      -2.765  -3.707   2.528  0.00  0.00    +0.023 A 
ATOM     28  C   UNL     1      -3.114  -3.626   3.880  0.00  0.00    +0.015 A 
ATOM     29  C   UNL     1      -3.841  -2.556   4.343  0.00  0.00    +0.046 A 
ATOM     30  C   UNL     1      -4.240  -1.541   3.470  0.00  0.00    +0.124 A 
ATOM     31  O   UNL     1      -4.969  -0.418   3.719  0.00  0.00    -0.488 OA
ENDBRANCH  20  27
ENDBRANCH   1  20
BRANCH   5  32
ATOM     32  C   UNL     1       0.715  -7.149   5.819  0.00  0.00    +0.140 C 
BRANCH  32  33
ATOM     33  C   UNL     1       2.015  -7.742   5.272  0.00  0.00    +0.136 C 
ATOM     34  C   UNL     1       2.945  -8.131   6.441  0.00  0.00    +0.035 C 
ATOM     35  C   UNL     1       4.342  -7.718   5.902  0.00  0.00    +0.031 C 
ATOM     36  C   UNL     1       3.976  -6.465   5.067  0.00  0.00    +0.160 C 
ATOM     37  O   UNL     1       2.698  -6.765   4.479  0.00  0.00    -0.375 OA
ENDBRANCH  32  33
ENDBRANCH   5  32
TORSDOF 8
