REMARK  Name = ZINC63884924
REMARK  4 active torsions:
REMARK  status: ('A' for Active; 'I' for Inactive)
REMARK    1  A    between atoms: C_2  and  C_23
REMARK    2  A    between atoms: N_5  and  C_6
REMARK    3  A    between atoms: C_6  and  C_7
REMARK    4  A    between atoms: C_14  and  C_16
REMARK                            x       y       z     vdW  Elec       q    Type
REMARK                         _______ _______ _______ _____ _____    ______ ____
ROOT
ATOM      1  C   UNL     1      -0.255  -2.441  -0.853  0.00  0.00    +0.028 C 
ATOM      2  C   UNL     1       0.291  -1.783  -2.122  0.00  0.00    +0.008 C 
ATOM      3  C   UNL     1       0.305  -2.804  -3.262  0.00  0.00    +0.019 C 
ATOM      4  C   UNL     1      -1.126  -3.275  -3.539  0.00  0.00    +0.108 C 
ATOM      5  N   UNL     1      -1.709  -3.776  -2.287  0.00  0.00    -0.301 N 
ATOM      6  C   UNL     1      -1.693  -2.908  -1.101  0.00  0.00    +0.113 C 
ATOM      7  C   UNL     1      -2.249  -5.010  -2.226  0.00  0.00    +0.219 C 
ATOM      8  O   UNL     1      -2.651  -5.445  -1.168  0.00  0.00    -0.275 OA
ENDROOT
BRANCH   7   9
ATOM      9  C   UNL     1      -2.354  -5.848  -3.474  0.00  0.00    +0.075 C 
ATOM     10  C   UNL     1      -3.577  -5.380  -4.289  0.00  0.00    +0.013 C 
ATOM     11  C   UNL     1      -3.401  -5.826  -5.715  0.00  0.00    +0.001 C 
ATOM     12  C   UNL     1      -4.088  -7.176  -5.999  0.00  0.00    +0.000 C 
ATOM     13  C   UNL     1      -3.892  -8.197  -4.863  0.00  0.00    +0.000 C 
ATOM     14  C   UNL     1      -2.490  -8.189  -4.317  0.00  0.00    +0.001 C 
ATOM     15  C   UNL     1      -2.445  -7.250  -3.094  0.00  0.00    +0.013 C 
ENDBRANCH   7   9
BRANCH   1  16
ATOM     16  C   UNL     1      -0.238  -1.429   0.295  0.00  0.00    +0.150 C 
BRANCH  16  21
ATOM     17  C   UNL     1       1.655   0.182   0.640  0.00  0.00    +0.133 A 
ATOM     18  C   UNL     1       2.960   0.053   0.974  0.00  0.00    +0.086 A 
ATOM     19  N   UNL     1       3.184  -1.257   1.130  0.00  0.00    -0.134 NA
ATOM     20  N   UNL     1       2.090  -1.896   0.907  0.00  0.00    -0.065 NA
ATOM     21  N   UNL     1       1.147  -1.071   0.610  0.00  0.00    -0.251 N 
BRANCH  18  22
ATOM     22  C   UNL     1       3.964   1.165   1.137  0.00  0.00    +0.041 C 
ATOM     23  C   UNL     1       3.607   2.531   0.548  0.00  0.00    +0.010 C 
ATOM     24  C   UNL     1       4.676   1.664  -0.122  0.00  0.00    +0.010 C 
ENDBRANCH  18  22
ENDBRANCH  16  21
ENDBRANCH   1  16
TORSDOF 4
