REMARK  Name = ZINC33051500
REMARK  9 active torsions:
REMARK  status: ('A' for Active; 'I' for Inactive)
REMARK    1  A    between atoms: C_1  and  C_2
REMARK    2  A    between atoms: C_5  and  C_41
REMARK    3  A    between atoms: C_6  and  N_8
REMARK    4  A    between atoms: C_14  and  C_40
REMARK    5  A    between atoms: N_16  and  C_34
REMARK    6  A    between atoms: C_23  and  C_25
REMARK    7  A    between atoms: C_28  and  C_31
REMARK    8  A    between atoms: C_31  and  C_32
REMARK    9  A    between atoms: C_31  and  C_33
REMARK                            x       y       z     vdW  Elec       q    Type
REMARK                         _______ _______ _______ _____ _____    ______ ____
ROOT
ATOM      1  N   UNL     1       1.144   1.909  -0.178  0.00  0.00    -0.269 N 
ATOM      2  C   UNL     1      -0.054   1.300  -0.077  0.00  0.00    +0.308 C 
ATOM      3  O   UNL     1      -0.116   0.087  -0.017  0.00  0.00    -0.252 OA
ATOM      4  N   UNL     1      -1.183   2.035  -0.048  0.00  0.00    -0.268 N 
ATOM      5  C   UNL     1      -1.156   3.516  -0.112  0.00  0.00    +0.151 C 
ATOM      6  C   UNL     1      -2.174   4.129   0.798  0.00  0.00    +0.035 A 
ATOM      7  C   UNL     1      -1.977   4.865   1.962  0.00  0.00    +0.067 A 
ATOM      8  N   UNL     1      -3.146   5.275   2.395  0.00  0.00    -0.169 NA
ATOM      9  N   UNL     1      -4.135   4.812   1.512  0.00  0.00    -0.215 N 
ATOM     10  C   UNL     1      -3.518   4.087   0.560  0.00  0.00    +0.146 A 
ATOM     11  N   UNL     1      -4.027   3.358  -0.520  0.00  0.00    -0.303 N 
ATOM     12  C   UNL     1      -4.967   3.685  -1.437  0.00  0.00    +0.093 A 
ATOM     13  C   UNL     1      -5.028   2.683  -2.344  0.00  0.00    +0.020 A 
ATOM     14  C   UNL     1      -4.104   1.692  -1.946  0.00  0.00    +0.025 A 
ATOM     15  C   UNL     1      -3.529   2.112  -0.808  0.00  0.00    +0.050 A 
ATOM     16  C   UNL     1      -2.522   1.410   0.056  0.00  0.00    +0.155 C 
ATOM     17  C   UNL     1      -0.647   5.143   2.615  0.00  0.00    +0.068 C 
ATOM     18  H   UNL     1       1.197   2.998  -0.328  0.00  0.00    +0.156 HD
ENDROOT
BRANCH   1  24
ATOM     19  C   UNL     1       3.486  -2.119   1.391  0.00  0.00    +0.044 C 
ATOM     20  C   UNL     1       3.484  -0.799   0.664  0.00  0.00    -0.049 A 
ATOM     21  C   UNL     1       4.648  -0.330   0.082  0.00  0.00    +0.004 A 
ATOM     22  C   UNL     1       4.651   0.880  -0.587  0.00  0.00    +0.005 A 
ATOM     23  C   UNL     1       3.490   1.625  -0.675  0.00  0.00    -0.029 A 
ATOM     24  C   UNL     1       2.321   1.157  -0.091  0.00  0.00    +0.038 A 
ATOM     25  C   UNL     1       2.323  -0.057   0.585  0.00  0.00    +0.027 A 
ATOM     26  C   UNL     1       3.494   2.944  -1.404  0.00  0.00    +0.045 C 
ENDBRANCH   1  24
BRANCH  16  27
ATOM     27  C   UNL     1      -2.981   1.466   1.490  0.00  0.00    -0.021 A 
ATOM     28  C   UNL     1      -2.053   1.442   2.514  0.00  0.00    +0.006 A 
ATOM     29  C   UNL     1      -2.474   1.498   3.830  0.00  0.00    +0.004 A 
ATOM     30  C   UNL     1      -3.824   1.568   4.121  0.00  0.00    -0.045 A 
ATOM     31  C   UNL     1      -4.752   1.586   3.097  0.00  0.00    +0.004 A 
ATOM     32  C   UNL     1      -4.331   1.535   1.782  0.00  0.00    +0.006 A 
BRANCH  30  33
ATOM     33  C   UNL     1      -4.283   1.623   5.556  0.00  0.00    +0.013 C 
ATOM     34  C   UNL     1      -3.810   0.368   6.292  0.00  0.00    +0.012 C 
ATOM     35  C   UNL     1      -3.694   2.863   6.232  0.00  0.00    +0.012 C 
ENDBRANCH  30  33
ENDBRANCH  16  27
BRANCH   9  36
ATOM     36  C   UNL     1      -5.512   5.058   1.605  0.00  0.00    +0.068 A 
ATOM     37  C   UNL     1      -6.421   4.083   1.217  0.00  0.00    +0.028 A 
ATOM     38  C   UNL     1      -7.777   4.327   1.315  0.00  0.00    +0.002 A 
ATOM     39  C   UNL     1      -8.229   5.545   1.788  0.00  0.00    +0.000 A 
ATOM     40  C   UNL     1      -7.326   6.520   2.171  0.00  0.00    +0.002 A 
ATOM     41  C   UNL     1      -5.969   6.280   2.081  0.00  0.00    +0.028 A 
ENDBRANCH   9  36
TORSDOF 4
