REMARK  Name = ZINC21589556
REMARK  7 active torsions:
REMARK  status: ('A' for Active; 'I' for Inactive)
REMARK    1  A    between atoms: C_1  and  C_2
REMARK    2  A    between atoms: C_4  and  O_5
REMARK    3  A    between atoms: C_14  and  C_16
REMARK    4  A    between atoms: N_21  and  S_23
REMARK    5  A    between atoms: S_23  and  C_26
REMARK    6  A    between atoms: C_29  and  O_32
REMARK    7  A    between atoms: O_32  and  C_33
REMARK                            x       y       z     vdW  Elec       q    Type
REMARK                         _______ _______ _______ _____ _____    ______ ____
ROOT
ATOM      1  C   UNL     1      -7.041  -5.094   1.901  0.00  0.00    +0.045 C 
ATOM      2  C   UNL     1      -6.813  -3.819   1.130  0.00  0.00    -0.033 A 
ATOM      3  C   UNL     1      -7.859  -3.102   0.643  0.00  0.00    +0.091 A 
ATOM      4  C   UNL     1      -7.620  -1.912  -0.076  0.00  0.00    +0.285 A 
ATOM      5  O   UNL     1      -6.376  -1.460  -0.296  0.00  0.00    -0.425 OA
ATOM      6  C   UNL     1      -5.293  -2.124   0.160  0.00  0.00    +0.141 A 
ATOM      7  C   UNL     1      -5.459  -3.319   0.886  0.00  0.00    +0.021 A 
ATOM      8  C   UNL     1      -4.339  -4.011   1.362  0.00  0.00    +0.013 A 
ATOM      9  C   UNL     1      -3.087  -3.524   1.121  0.00  0.00    +0.024 A 
ATOM     10  C   UNL     1      -2.916  -2.341   0.403  0.00  0.00    +0.037 A 
ATOM     11  C   UNL     1      -4.015  -1.640  -0.071  0.00  0.00    +0.070 A 
ATOM     12  N   UNL     1      -1.630  -1.855   0.165  0.00  0.00    -0.285 N 
ATOM     13  C   UNL     1      -1.403  -0.527   0.151  0.00  0.00    +0.222 C 
ATOM     14  O   UNL     1      -2.329   0.248   0.264  0.00  0.00    -0.275 OA
ATOM     15  H   UNL     1      -0.802  -2.557  -0.012  0.00  0.00    +0.155 HD
ENDROOT
BRANCH  13  16
ATOM     16  C   UNL     1       0.002  -0.004  -0.004  0.00  0.00    +0.091 C 
ATOM     17  C   UNL     1       0.866  -0.512   1.153  0.00  0.00    +0.015 C 
ATOM     18  C   UNL     1       2.301  -0.009   0.979  0.00  0.00    +0.018 C 
ATOM     19  C   UNL     1       2.308   1.523   1.006  0.00  0.00    +0.109 C 
ATOM     20  N   UNL     1       1.367   2.018  -0.009  0.00  0.00    -0.176 NA
ATOM     21  C   UNL     1      -0.018   1.527   0.012  0.00  0.00    +0.122 C 
BRANCH  20  22
ATOM     22  S   UNL     1       1.859   3.108  -1.154  0.00  0.00    +0.061 S 
ATOM     23  O   UNL     1       3.266   2.959  -1.279  0.00  0.00    -0.153 OA
ATOM     24  O   UNL     1       0.976   2.963  -2.258  0.00  0.00    -0.153 OA
BRANCH  22  25
ATOM     25  C   UNL     1       1.580   4.718  -0.495  0.00  0.00    +0.106 A 
ATOM     26  C   UNL     1       0.371   5.353  -0.713  0.00  0.00    +0.032 A 
ATOM     27  C   UNL     1       0.147   6.613  -0.192  0.00  0.00    +0.047 A 
ATOM     28  C   UNL     1       1.142   7.246   0.539  0.00  0.00    +0.120 A 
ATOM     29  C   UNL     1       2.356   6.609   0.751  0.00  0.00    +0.047 A 
ATOM     30  C   UNL     1       2.572   5.347   0.234  0.00  0.00    +0.032 A 
BRANCH  28  31
ATOM     31  O   UNL     1       0.927   8.488   1.047  0.00  0.00    -0.495 OA
ATOM     32  C   UNL     1      -0.347   9.083   0.789  0.00  0.00    +0.277 C 
ENDBRANCH  28  31
ENDBRANCH  22  25
ENDBRANCH  20  22
ENDBRANCH  13  16
BRANCH   4  33
ATOM     33  O   UNL     1      -8.567  -1.280  -0.508  0.00  0.00    -0.480 OA
ATOM     34  H   UNL     1      -8.397  -0.350  -1.070  0.00  0.00    +0.295 HD
ENDBRANCH   4  33
TORSDOF 5
