REMARK  Name = ZINC19991599
REMARK  5 active torsions:
REMARK  status: ('A' for Active; 'I' for Inactive)
REMARK    1  A    between atoms: C_3  and  N_11
REMARK    2  A    between atoms: C_6  and  N_7
REMARK    3  A    between atoms: N_11  and  C_12
REMARK    4  A    between atoms: C_12  and  C_13
REMARK    5  A    between atoms: C_13  and  C_14
REMARK                            x       y       z     vdW  Elec       q    Type
REMARK                         _______ _______ _______ _____ _____    ______ ____
ROOT
ATOM      1  N   UNL     1       4.322   0.308  -1.458  0.00  0.00    -0.342 N 
ATOM      2  H   UNL     1       4.730  -0.110  -0.526  0.00  0.00    +0.146 HD
ENDROOT
BRANCH   1   5
ATOM      3  C   UNL     1       5.205   0.532  -5.019  0.00  0.00    +0.034 A 
ATOM      4  C   UNL     1       4.510   0.684  -3.835  0.00  0.00    +0.026 A 
ATOM      5  C   UNL     1       5.023   0.157  -2.658  0.00  0.00    +0.046 A 
ATOM      6  C   UNL     1       6.239  -0.517  -2.674  0.00  0.00    +0.064 A 
ATOM      7  C   UNL     1       6.926  -0.669  -3.863  0.00  0.00    +0.054 A 
ATOM      8  C   UNL     1       6.411  -0.143  -5.033  0.00  0.00    +0.128 A 
ATOM      9 CL   UNL     1       6.889  -1.172  -1.204  0.00  0.00    -0.082 Cl
BRANCH   8  10
ATOM     10  N   UNL     1       7.153  -0.303  -6.304  0.00  0.00    +0.056 N 
ATOM     11  O   UNL     1       6.700   0.160  -7.336  0.00  0.00    -0.126 OA
ATOM     12  O   UNL     1       8.216  -0.898  -6.318  0.00  0.00    -0.126 OA
ENDBRANCH   8  10
ENDBRANCH   1   5
BRANCH   1  13
ATOM     13  C   UNL     1       3.044   1.024  -1.442  0.00  0.00    +0.106 C 
BRANCH  13  14
ATOM     14  C   UNL     1       2.490   1.047  -0.016  0.00  0.00    +0.055 C 
BRANCH  14  15
ATOM     15  C   UNL     1       1.175   1.783   0.000  0.00  0.00    -0.027 A 
ATOM     16  C   UNL     1      -0.013   1.076   0.008  0.00  0.00    +0.006 A 
ATOM     17  C   UNL     1      -1.219   1.750   0.017  0.00  0.00    +0.020 A 
ATOM     18  C   UNL     1      -1.238   3.134   0.031  0.00  0.00    +0.042 A 
ATOM     19  C   UNL     1      -0.050   3.842   0.023  0.00  0.00    +0.040 A 
ATOM     20  C   UNL     1       1.157   3.166   0.008  0.00  0.00    +0.046 A 
ATOM     21 CL   UNL     1       2.649   4.054  -0.003  0.00  0.00    -0.083 Cl
ATOM     22 CL   UNL     1      -2.753   3.981   0.049  0.00  0.00    -0.083 Cl
ENDBRANCH  14  15
ENDBRANCH  13  14
ENDBRANCH   1  13
TORSDOF 5
