REMARK  Name = ZINC23550878
REMARK  9 active torsions:
REMARK  status: ('A' for Active; 'I' for Inactive)
REMARK    1  A    between atoms: C_1  and  C_2
REMARK    2  A    between atoms: C_5  and  N_9
REMARK    3  A    between atoms: C_6  and  C_8
REMARK    4  A    between atoms: C_13  and  C_15
REMARK    5  A    between atoms: C_15  and  S_16
REMARK    6  A    between atoms: S_16  and  C_17
REMARK    7  A    between atoms: C_20  and  C_29
REMARK    8  A    between atoms: N_21  and  C_22
REMARK    9  A    between atoms: C_22  and  C_23
REMARK                            x       y       z     vdW  Elec       q    Type
REMARK                         _______ _______ _______ _____ _____    ______ ____
ROOT
ATOM      1  C   UNL     1       4.946  -2.956   0.360  0.00  0.00    +0.173 C 
ENDROOT
BRANCH   1   6
ATOM      2  N   UNL     1       2.403   1.106  -0.015  0.00  0.00    -0.269 N 
ATOM      3  C   UNL     1       2.426  -0.238   0.080  0.00  0.00    +0.310 C 
ATOM      4  O   UNL     1       1.386  -0.865   0.087  0.00  0.00    -0.252 OA
ATOM      5  N   UNL     1       3.605  -0.886   0.167  0.00  0.00    -0.239 N 
ATOM      6  C   UNL     1       3.629  -2.231   0.262  0.00  0.00    +0.231 C 
ATOM      7  O   UNL     1       2.590  -2.856   0.269  0.00  0.00    -0.274 OA
ATOM      8  H   UNL     1       3.345   1.669  -0.095  0.00  0.00    +0.156 HD
ATOM      9  H   UNL     1       4.547  -0.319   0.161  0.00  0.00    +0.159 HD
BRANCH   2  14
ATOM     10  C   UNL     1      -2.556   3.863   0.004  0.00  0.00    +0.044 C 
ATOM     11  C   UNL     1      -1.239   3.131  -0.001  0.00  0.00    -0.050 A 
ATOM     12  C   UNL     1      -1.140   1.892  -0.607  0.00  0.00    +0.005 A 
ATOM     13  C   UNL     1       0.064   1.216  -0.608  0.00  0.00    +0.024 A 
ATOM     14  C   UNL     1       1.180   1.786  -0.010  0.00  0.00    +0.038 A 
ATOM     15  C   UNL     1       1.079   3.033   0.592  0.00  0.00    -0.029 A 
ATOM     16  C   UNL     1      -0.130   3.702   0.595  0.00  0.00    +0.008 A 
ATOM     17  C   UNL     1       2.287   3.656   1.243  0.00  0.00    +0.045 C 
ENDBRANCH   2  14
ENDBRANCH   1   6
BRANCH   1  18
ATOM     18  S   UNL     1       4.647  -4.737   0.473  0.00  0.00    -0.077 S 
BRANCH  18  19
ATOM     19  C   UNL     1       6.307  -5.320   0.573  0.00  0.00    +0.192 A 
ATOM     20  N   UNL     1       7.394  -4.583   0.561  0.00  0.00    -0.122 NA
ATOM     21  N   UNL     1       8.436  -5.329   0.650  0.00  0.00    -0.128 NA
ATOM     22  C   UNL     1       8.079  -6.592   0.725  0.00  0.00    +0.172 A 
ATOM     23  N   UNL     1       6.703  -6.624   0.684  0.00  0.00    -0.299 N 
BRANCH  22  24
ATOM     24  C   UNL     1       8.979  -7.751   0.838  0.00  0.00    +0.056 A 
ATOM     25  C   UNL     1      10.313  -7.782   1.159  0.00  0.00    +0.019 A 
ATOM     26  C   UNL     1      10.952  -9.000   1.208  0.00  0.00    +0.008 A 
ATOM     27  C   UNL     1      10.251 -10.128   0.927  0.00  0.00    +0.046 A 
ATOM     28  S   UNL     1       8.622  -9.482   0.585  0.00  0.00    -0.094 S 
ENDBRANCH  22  24
BRANCH  23  29
ATOM     29  C   UNL     1       5.843  -7.809   0.743  0.00  0.00    +0.157 C 
BRANCH  29  30
ATOM     30  C   UNL     1       5.593  -8.329  -0.674  0.00  0.00    +0.138 C 
ATOM     31  C   UNL     1       4.729  -9.615  -0.631  0.00  0.00    +0.035 C 
ATOM     32  C   UNL     1       4.082  -9.583  -2.042  0.00  0.00    +0.031 C 
ATOM     33  C   UNL     1       3.904  -8.069  -2.287  0.00  0.00    +0.160 C 
ATOM     34  O   UNL     1       4.816  -7.381  -1.423  0.00  0.00    -0.375 OA
ENDBRANCH  29  30
ENDBRANCH  23  29
ENDBRANCH  18  19
ENDBRANCH   1  18
TORSDOF 7
