REMARK  Name = ZINC10244397
REMARK  8 active torsions:
REMARK  status: ('A' for Active; 'I' for Inactive)
REMARK    1  A    between atoms: N_13  and  C_28
REMARK    2  A    between atoms: C_14  and  S_16
REMARK    3  A    between atoms: S_16  and  C_17
REMARK    4  A    between atoms: C_17  and  C_18
REMARK    5  A    between atoms: N_20  and  C_21
REMARK    6  A    between atoms: C_21  and  C_22
REMARK    7  A    between atoms: C_31  and  O_34
REMARK    8  A    between atoms: O_34  and  C_35
REMARK                            x       y       z     vdW  Elec       q    Type
REMARK                         _______ _______ _______ _____ _____    ______ ____
ROOT
ATOM      1  C   UNL     1       3.092   5.366   9.033  0.00  0.00    +0.001 A 
ATOM      2  C   UNL     1       3.232   6.297  10.052  0.00  0.00    +0.002 A 
ATOM      3  C   UNL     1       2.125   6.841  10.663  0.00  0.00    +0.026 A 
ATOM      4  C   UNL     1       0.849   6.456  10.258  0.00  0.00    +0.049 A 
ATOM      5  C   UNL     1       0.713   5.512   9.225  0.00  0.00    +0.026 A 
ATOM      6  C   UNL     1       1.849   4.974   8.620  0.00  0.00    +0.012 A 
ATOM      7  C   UNL     1      -0.729   5.314   9.026  0.00  0.00    +0.104 A 
ATOM      8  C   UNL     1      -1.373   6.143   9.943  0.00  0.00    +0.132 A 
ATOM      9  N   UNL     1      -0.412   6.823  10.676  0.00  0.00    -0.349 N 
ATOM     10  H   UNL     1      -0.600   7.463  11.380  0.00  0.00    +0.166 HD
ATOM     11  C   UNL     1      -2.783   6.150   9.970  0.00  0.00    +0.283 A 
ATOM     12  O   UNL     1      -3.388   6.861  10.756  0.00  0.00    -0.265 OA
ATOM     13  N   UNL     1      -3.450   5.359   9.102  0.00  0.00    -0.254 N 
ATOM     14  C   UNL     1      -2.766   4.563   8.228  0.00  0.00    +0.177 A 
ATOM     15  N   UNL     1      -1.453   4.547   8.194  0.00  0.00    -0.221 NA
ENDROOT
BRANCH  13  16
ATOM     16  C   UNL     1      -4.852   5.351   9.103  0.00  0.00    +0.052 A 
ATOM     17  C   UNL     1      -5.541   4.457   9.912  0.00  0.00    +0.030 A 
ATOM     18  C   UNL     1      -6.922   4.452   9.915  0.00  0.00    +0.048 A 
ATOM     19  C   UNL     1      -7.621   5.334   9.103  0.00  0.00    +0.130 A 
ATOM     20  C   UNL     1      -6.933   6.224   8.291  0.00  0.00    +0.048 A 
ATOM     21  C   UNL     1      -5.552   6.233   8.290  0.00  0.00    +0.030 A 
BRANCH  19  22
ATOM     22  O   UNL     1      -8.980   5.326   9.104  0.00  0.00    -0.406 OA
BRANCH  22  23
ATOM     23  C   UNL     1      -9.623   4.383   9.964  0.00  0.00    +0.575 C 
ATOM     24  F   UNL     1      -9.248   4.630  11.289  0.00  0.00    -0.133 F 
ATOM     25  F   UNL     1     -11.011   4.510   9.841  0.00  0.00    -0.133 F 
ATOM     26  F   UNL     1      -9.240   3.087   9.605  0.00  0.00    -0.133 F 
ENDBRANCH  22  23
ENDBRANCH  19  22
ENDBRANCH  13  16
BRANCH  14  27
ATOM     27  S   UNL     1      -3.667   3.537   7.115  0.00  0.00    -0.078 S 
BRANCH  27  28
ATOM     28  C   UNL     1      -2.296   2.749   6.234  0.00  0.00    +0.173 C 
BRANCH  28  29
ATOM     29  C   UNL     1      -2.844   1.799   5.199  0.00  0.00    +0.223 C 
ATOM     30  O   UNL     1      -4.042   1.668   5.071  0.00  0.00    -0.275 OA
ATOM     31  N   UNL     1      -2.001   1.096   4.417  0.00  0.00    -0.312 N 
ATOM     32  H   UNL     1      -1.042   1.201   4.520  0.00  0.00    +0.149 HD
BRANCH  31  33
ATOM     33  C   UNL     1      -2.532   0.173   3.412  0.00  0.00    +0.135 C 
BRANCH  33  34
ATOM     34  C   UNL     1      -1.373  -0.493   2.667  0.00  0.00    +0.135 C 
ATOM     35  C   UNL     1      -1.905  -1.381   1.513  0.00  0.00    +0.035 C 
ATOM     36  C   UNL     1      -0.753  -2.400   1.331  0.00  0.00    +0.031 C 
ATOM     37  C   UNL     1       0.009  -2.351   2.670  0.00  0.00    +0.160 C 
ATOM     38  O   UNL     1      -0.686  -1.429   3.527  0.00  0.00    -0.375 OA
ENDBRANCH  33  34
ENDBRANCH  31  33
ENDBRANCH  28  29
ENDBRANCH  27  28
ENDBRANCH  14  27
TORSDOF 8
