REMARK  Name = ZINC30822846
REMARK  9 active torsions:
REMARK  status: ('A' for Active; 'I' for Inactive)
REMARK    1  A    between atoms: C_1  and  C_2
REMARK    2  A    between atoms: C_2  and  C_3
REMARK    3  A    between atoms: C_3  and  C_4
REMARK    4  A    between atoms: C_10  and  C_12
REMARK    5  A    between atoms: C_15  and  C_18
REMARK    6  A    between atoms: C_18  and  N_19
REMARK    7  A    between atoms: C_20  and  C_22
REMARK    8  A    between atoms: C_24  and  C_29
REMARK    9  A    between atoms: C_26  and  C_28
REMARK                            x       y       z     vdW  Elec       q    Type
REMARK                         _______ _______ _______ _____ _____    ______ ____
ROOT
ATOM      1  C   UNL     1       4.076   8.450   0.008  0.00  0.00    +0.009 A 
ATOM      2  C   UNL     1       4.221   7.756   1.210  0.00  0.00    +0.011 A 
ATOM      3  C   UNL     1       4.488   6.403   1.194  0.00  0.00    +0.006 A 
ATOM      4  C   UNL     1       4.611   5.733  -0.010  0.00  0.00    -0.030 A 
ATOM      5  C   UNL     1       4.473   6.416  -1.205  0.00  0.00    +0.006 A 
ATOM      6  C   UNL     1       4.201   7.769  -1.203  0.00  0.00    +0.011 A 
ENDROOT
BRANCH   1  13
ATOM      7  C   UNL     1       3.128  13.209  -1.532  0.00  0.00    +0.156 A 
ATOM      8  N   UNL     1       2.940  14.191  -0.696  0.00  0.00    -0.132 NA
ATOM      9  N   UNL     1       3.034  13.764   0.515  0.00  0.00    -0.120 NA
ATOM     10  C   UNL     1       3.285  12.490   0.505  0.00  0.00    +0.218 A 
ATOM     11  N   UNL     1       3.359  12.062  -0.798  0.00  0.00    -0.190 N 
ATOM     12  N   UNL     1       3.623  10.713  -0.995  0.00  0.00    -0.156 NA
ATOM     13  C   UNL     1       3.791   9.902   0.018  0.00  0.00    +0.132 A 
ATOM     14  S   UNL     1       3.578  10.994   1.415  0.00  0.00    -0.026 S 
BRANCH   7  15
ATOM     15  C   UNL     1       3.097  13.307  -3.035  0.00  0.00    +0.078 C 
BRANCH  15  17
ATOM     16  C   UNL     1       1.639  13.161  -5.059  0.00  0.00    +0.004 C 
ATOM     17  C   UNL     1       1.671  13.061  -3.533  0.00  0.00    +0.004 C 
ENDBRANCH  15  17
ENDBRANCH   7  15
ENDBRANCH   1  13
BRANCH   4  18
ATOM     18  C   UNL     1       4.903   4.254  -0.020  0.00  0.00    +0.139 C 
BRANCH  18  19
ATOM     19  N   UNL     1       3.642   3.508  -0.013  0.00  0.00    -0.307 N 
ATOM     20  C   UNL     1       3.657   2.160  -0.020  0.00  0.00    +0.244 C 
ATOM     21  O   UNL     1       4.716   1.564  -0.032  0.00  0.00    -0.270 OA
ATOM     22  H   UNL     1       2.683   4.047  -0.002  0.00  0.00    +0.149 HD
BRANCH  20  23
ATOM     23  C   UNL     1       2.385   1.407  -0.013  0.00  0.00    +0.037 A 
ATOM     24  C   UNL     1       1.167   2.088   0.002  0.00  0.00    +0.016 A 
ATOM     25  C   UNL     1      -0.017   1.379   0.010  0.00  0.00    -0.049 A 
ATOM     26  C   UNL     1       0.002  -0.004   0.002  0.00  0.00    +0.006 A 
ATOM     27  C   UNL     1       1.206  -0.686  -0.013  0.00  0.00    -0.049 A 
ATOM     28  C   UNL     1       2.397   0.011  -0.020  0.00  0.00    +0.016 A 
ATOM     29  C   UNL     1       1.217  -2.193  -0.020  0.00  0.00    +0.044 C 
ATOM     30  C   UNL     1      -1.333   2.113   0.020  0.00  0.00    +0.044 C 
ENDBRANCH  20  23
ENDBRANCH  18  19
ENDBRANCH   4  18
TORSDOF 6
