REMARK  Name = ZINC00751065
REMARK  13 active torsions:
REMARK  status: ('A' for Active; 'I' for Inactive)
REMARK    1  A    between atoms: C_1  and  C_2
REMARK    2  A    between atoms: C_5  and  N_9
REMARK    3  A    between atoms: C_6  and  C_8
REMARK    4  A    between atoms: C_10  and  N_20
REMARK    5  A    between atoms: C_12  and  C_14
REMARK    6  A    between atoms: C_21  and  C_23
REMARK    7  A    between atoms: C_23  and  N_24
REMARK    8  A    between atoms: N_24  and  C_25
REMARK    9  A    between atoms: C_25  and  C_26
REMARK   10  A    between atoms: C_26  and  C_27
REMARK   11  A    between atoms: C_26  and  C_28
REMARK   12  A    between atoms: N_31  and  C_32
REMARK   13  A    between atoms: C_37  and  C_38
REMARK                            x       y       z     vdW  Elec       q    Type
REMARK                         _______ _______ _______ _____ _____    ______ ____
ROOT
ATOM      1  N   UNL     1      -2.357  -0.450   0.285  0.00  0.00    -0.269 N 
ATOM      2  C   UNL     1      -3.325  -1.367   0.481  0.00  0.00    +0.236 C 
ATOM      3  O   UNL     1      -3.040  -2.543   0.563  0.00  0.00    -0.274 OA
ATOM      4  H   UNL     1      -2.585   0.490   0.219  0.00  0.00    +0.156 HD
ENDROOT
BRANCH   1   6
ATOM      5  N   UNL     1       0.057  -0.035   0.080  0.00  0.00    -0.218 N 
ATOM      6  C   UNL     1      -1.027  -0.854   0.175  0.00  0.00    +0.129 A 
ATOM      7  C   UNL     1      -0.578  -2.136   0.141  0.00  0.00    +0.074 A 
ATOM      8  C   UNL     1       0.825  -2.099   0.030  0.00  0.00    +0.095 A 
ATOM      9  N   UNL     1       1.201  -0.838  -0.006  0.00  0.00    -0.165 NA
BRANCH   5  14
ATOM     10  C   UNL     1      -0.043   5.639   0.057  0.00  0.00    +0.044 C 
ATOM     11  C   UNL     1      -0.017   4.132   0.063  0.00  0.00    -0.050 A 
ATOM     12  C   UNL     1      -0.849   3.424  -0.785  0.00  0.00    +0.005 A 
ATOM     13  C   UNL     1      -0.823   2.043  -0.785  0.00  0.00    +0.028 A 
ATOM     14  C   UNL     1       0.032   1.366   0.074  0.00  0.00    +0.070 A 
ATOM     15  C   UNL     1       0.866   2.080   0.924  0.00  0.00    -0.025 A 
ATOM     16  C   UNL     1       0.840   3.461   0.916  0.00  0.00    +0.008 A 
ATOM     17  C   UNL     1       1.800   1.349   1.854  0.00  0.00    +0.046 C 
ENDBRANCH   5  14
BRANCH   8  18
ATOM     18  C   UNL     1       1.724  -3.278  -0.034  0.00  0.00    +0.002 A 
ATOM     19  C   UNL     1       1.194  -4.566   0.020  0.00  0.00    +0.010 A 
ATOM     20  C   UNL     1       2.035  -5.658  -0.045  0.00  0.00    +0.001 A 
ATOM     21  C   UNL     1       3.402  -5.477  -0.154  0.00  0.00    +0.000 A 
ATOM     22  C   UNL     1       3.933  -4.201  -0.203  0.00  0.00    +0.001 A 
ATOM     23  C   UNL     1       3.102  -3.101  -0.144  0.00  0.00    +0.010 A 
ENDBRANCH   8  18
ENDBRANCH   1   6
BRANCH   2  24
ATOM     24  C   UNL     1      -4.763  -0.930   0.599  0.00  0.00    +0.205 C 
BRANCH  24  25
ATOM     25  N   UNL     1      -5.614  -2.104   0.807  0.00  0.00    -0.276 N 
ATOM     26  C   UNL     1      -5.877  -2.533   2.058  0.00  0.00    +0.307 C 
ATOM     27  O   UNL     1      -5.408  -1.945   3.013  0.00  0.00    -0.252 OA
ATOM     28  N   UNL     1      -6.660  -3.613   2.249  0.00  0.00    -0.269 N 
ATOM     29  H   UNL     1      -6.984  -4.118   1.488  0.00  0.00    +0.156 HD
BRANCH  28  30
ATOM     30  C   UNL     1      -7.006  -4.005   3.548  0.00  0.00    +0.038 A 
ATOM     31  C   UNL     1      -6.099  -3.844   4.588  0.00  0.00    +0.023 A 
ATOM     32  C   UNL     1      -6.445  -4.228   5.868  0.00  0.00    +0.002 A 
ATOM     33  C   UNL     1      -7.688  -4.782   6.114  0.00  0.00    +0.000 A 
ATOM     34  C   UNL     1      -8.590  -4.949   5.080  0.00  0.00    +0.005 A 
ATOM     35  C   UNL     1      -8.253  -4.562   3.797  0.00  0.00    -0.029 A 
ATOM     36  C   UNL     1      -9.236  -4.745   2.671  0.00  0.00    +0.045 C 
ENDBRANCH  28  30
BRANCH  25  37
ATOM     37  C   UNL     1      -6.180  -2.812  -0.344  0.00  0.00    +0.113 C 
BRANCH  37  38
ATOM     38  C   UNL     1      -5.214  -3.911  -0.792  0.00  0.00    +0.000 C 
ATOM     39  C   UNL     1      -5.092  -4.964   0.311  0.00  0.00    +0.009 C 
ATOM     40  C   UNL     1      -5.745  -4.567  -2.068  0.00  0.00    +0.009 C 
ENDBRANCH  37  38
ENDBRANCH  25  37
ENDBRANCH  24  25
ENDBRANCH   2  24
TORSDOF 8
