REMARK  Name = ZINC06616317
REMARK  8 active torsions:
REMARK  status: ('A' for Active; 'I' for Inactive)
REMARK    1  A    between atoms: C_1  and  C_2
REMARK    2  A    between atoms: C_2  and  C_3
REMARK    3  A    between atoms: C_2  and  C_4
REMARK    4  A    between atoms: C_4  and  C_5
REMARK    5  A    between atoms: C_5  and  C_7
REMARK    6  A    between atoms: C_5  and  N_10
REMARK    7  A    between atoms: C_11  and  C_13
REMARK    8  A    between atoms: C_16  and  C_18
REMARK                            x       y       z     vdW  Elec       q    Type
REMARK                         _______ _______ _______ _____ _____    ______ ____
ROOT
ATOM      1  N   UNL     1      -5.611   0.948  -2.971  0.00  0.00    -0.299 N 
ATOM      2  C   UNL     1      -5.685   1.561  -1.774  0.00  0.00    +0.264 C 
ATOM      3  O   UNL     1      -6.768   1.869  -1.313  0.00  0.00    -0.268 OA
ATOM      4  H   UNL     1      -4.747   0.703  -3.339  0.00  0.00    +0.150 HD
ENDROOT
BRANCH   2   5
ATOM      5  C   UNL     1      -4.454   1.859  -1.022  0.00  0.00    +0.133 A 
ATOM      6  C   UNL     1      -4.499   2.481   0.200  0.00  0.00    +0.079 A 
ATOM      7  S   UNL     1      -2.815   2.572   0.605  0.00  0.00    -0.081 S 
ATOM      8  C   UNL     1      -2.176   1.808  -0.815  0.00  0.00    +0.065 A 
ATOM      9  N   UNL     1      -3.253   1.538  -1.506  0.00  0.00    -0.241 NA
BRANCH   8  10
ATOM     10  C   UNL     1      -0.738   1.531  -1.168  0.00  0.00    -0.015 C 
ATOM     11  C   UNL     1      -0.007   2.849  -1.526  0.00  0.00    -0.011 C 
ATOM     12  C   UNL     1       1.470   2.479  -1.231  0.00  0.00    -0.020 C 
ATOM     13  C   UNL     1       1.357   1.552  -0.003  0.00  0.00    -0.082 C 
ATOM     14  N   UNL     1      -0.009   1.009   0.003  0.00  0.00    +0.385 N 
ATOM     15  H   UNL     1       0.027  -0.016  -0.043  0.00  0.00    -0.085 HD
ATOM     16  H   UNL     1      -0.490   1.295   0.864  0.00  0.00    -0.085 HD
ENDBRANCH   8  10
ENDBRANCH   2   5
BRANCH   1  17
ATOM     17  C   UNL     1      -6.835   0.652  -3.719  0.00  0.00    +0.159 C 
BRANCH  17  18
ATOM     18  C   UNL     1      -7.237   1.861  -4.524  0.00  0.00    +0.231 C 
ATOM     19  O   UNL     1      -6.567   2.870  -4.478  0.00  0.00    -0.274 OA
ATOM     20  N   UNL     1      -8.342   1.820  -5.296  0.00  0.00    -0.328 N 
ATOM     21  H   UNL     1      -8.878   1.012  -5.333  0.00  0.00    +0.145 HD
ATOM     22  H   UNL     1      -8.600   2.598  -5.814  0.00  0.00    +0.145 HD
ENDBRANCH  17  18
BRANCH  17  23
ATOM     23  C   UNL     1      -6.585  -0.528  -4.661  0.00  0.00    +0.034 C 
BRANCH  23  25
ATOM     24  C   UNL     1      -7.546  -2.165  -3.036  0.00  0.00    +0.007 C 
ATOM     25  C   UNL     1      -6.300  -1.786  -3.837  0.00  0.00    -0.015 C 
ATOM     26  C   UNL     1      -5.928  -2.936  -4.775  0.00  0.00    +0.007 C 
ENDBRANCH  23  25
ENDBRANCH  17  23
ENDBRANCH   1  17
TORSDOF 6
