REMARK  Name = ZINC03667192
REMARK  13 active torsions:
REMARK  status: ('A' for Active; 'I' for Inactive)
REMARK    1  A    between atoms: C_1  and  C_2
REMARK    2  A    between atoms: C_2  and  C_3
REMARK    3  A    between atoms: C_3  and  C_5
REMARK    4  A    between atoms: C_3  and  O_22
REMARK    5  A    between atoms: N_7  and  C_8
REMARK    6  A    between atoms: C_9  and  C_17
REMARK    7  A    between atoms: C_17  and  O_19
REMARK    8  A    between atoms: O_19  and  C_20
REMARK    9  A    between atoms: C_20  and  C_21
REMARK   10  A    between atoms: O_22  and  C_23
REMARK   11  A    between atoms: C_23  and  C_25
REMARK   12  A    between atoms: C_26  and  C_27
REMARK   13  A    between atoms: C_30  and  N_33
REMARK                            x       y       z     vdW  Elec       q    Type
REMARK                         _______ _______ _______ _____ _____    ______ ____
ROOT
ATOM      1  C   UNL     1      -1.345   3.596   2.571  0.00  0.00    +0.258 C 
ATOM      2  O   UNL     1      -2.395   4.203   2.566  0.00  0.00    -0.271 OA
ATOM      3  N   UNL     1      -0.709   3.358   3.736  0.00  0.00    -0.276 N 
ATOM      4  H   UNL     1       0.131   2.873   3.740  0.00  0.00    +0.155 HD
ENDROOT
BRANCH   3   5
ATOM      5  C   UNL     1      -1.257   3.806   4.928  0.00  0.00    +0.086 A 
ATOM      6  C   UNL     1      -0.760   3.655   6.216  0.00  0.00    +0.091 A 
ATOM      7  C   UNL     1      -1.533   4.229   7.305  0.00  0.00    -0.021 A 
ATOM      8  C   UNL     1      -2.675   4.848   6.936  0.00  0.00    -0.004 A 
ATOM      9  S   UNL     1      -2.730   4.684   5.174  0.00  0.00    -0.077 S 
ATOM     10  C   UNL     1      -3.669   5.520   7.832  0.00  0.00    +0.043 C 
ATOM     11  C   UNL     1      -3.392   5.081   9.277  0.00  0.00    +0.005 C 
ATOM     12  C   UNL     1      -1.891   5.216   9.554  0.00  0.00    +0.005 C 
ATOM     13  C   UNL     1      -1.120   4.154   8.770  0.00  0.00    +0.037 C 
BRANCH   6  14
ATOM     14  C   UNL     1       0.497   2.948   6.468  0.00  0.00    +0.342 C 
ATOM     15  O   UNL     1       1.548   3.560   6.475  0.00  0.00    -0.245 OA
BRANCH  14  16
ATOM     16  O   UNL     1       0.490   1.618   6.691  0.00  0.00    -0.461 OA
BRANCH  16  17
ATOM     17  C   UNL     1       1.773   0.983   6.933  0.00  0.00    +0.229 C 
ATOM     18  C   UNL     1       1.565  -0.516   7.164  0.00  0.00    +0.048 C 
ENDBRANCH  16  17
ENDBRANCH  14  16
ENDBRANCH   6  14
ENDBRANCH   3   5
BRANCH   1  19
ATOM     19  C   UNL     1      -0.750   3.109   1.275  0.00  0.00    +0.262 C 
BRANCH  19  21
ATOM     20  C   UNL     1      -0.013   1.086   0.008  0.00  0.00    +0.008 C 
ATOM     21  C   UNL     1      -0.729   1.579   1.267  0.00  0.00    +0.051 C 
ENDBRANCH  19  21
BRANCH  19  22
ATOM     22  O   UNL     1      -1.539   3.581   0.182  0.00  0.00    -0.449 OA
BRANCH  22  23
ATOM     23  C   UNL     1      -0.900   3.800  -0.986  0.00  0.00    +0.333 C 
ATOM     24  O   UNL     1       0.296   3.596  -1.072  0.00  0.00    -0.246 OA
BRANCH  23  25
ATOM     25  C   UNL     1      -1.645   4.283  -2.148  0.00  0.00    +0.092 C 
ATOM     26  C   UNL     1      -1.005   4.502  -3.316  0.00  0.00    +0.015 C 
BRANCH  26  27
ATOM     27  C   UNL     1      -1.754   4.989  -4.485  0.00  0.00    -0.025 A 
ATOM     28  C   UNL     1      -3.131   5.219  -4.392  0.00  0.00    +0.010 A 
ATOM     29  C   UNL     1      -3.825   5.681  -5.490  0.00  0.00    +0.033 A 
ATOM     30  C   UNL     1      -3.165   5.904  -6.686  0.00  0.00    +0.126 A 
ATOM     31  C   UNL     1      -1.804   5.673  -6.788  0.00  0.00    +0.033 A 
ATOM     32  C   UNL     1      -1.095   5.217  -5.697  0.00  0.00    +0.010 A 
BRANCH  30  33
ATOM     33  N   UNL     1      -3.919   6.393  -7.862  0.00  0.00    +0.056 N 
ATOM     34  O   UNL     1      -3.341   6.591  -8.917  0.00  0.00    -0.126 OA
ATOM     35  O   UNL     1      -5.116   6.598  -7.776  0.00  0.00    -0.126 OA
ENDBRANCH  30  33
ENDBRANCH  26  27
ENDBRANCH  23  25
ENDBRANCH  22  23
ENDBRANCH  19  22
ENDBRANCH   1  19
TORSDOF 11
