REMARK  Name = ZINC00149014
REMARK  11 active torsions:
REMARK  status: ('A' for Active; 'I' for Inactive)
REMARK    1  A    between atoms: C_1  and  C_2
REMARK    2  A    between atoms: C_2  and  C_25
REMARK    3  A    between atoms: C_3  and  C_4
REMARK    4  A    between atoms: N_6  and  C_7
REMARK    5  A    between atoms: C_8  and  C_21
REMARK    6  A    between atoms: C_13  and  C_17
REMARK    7  A    between atoms: C_17  and  C_18
REMARK    8  A    between atoms: C_17  and  C_19
REMARK    9  A    between atoms: C_17  and  C_20
REMARK   10  A    between atoms: C_21  and  O_23
REMARK   11  A    between atoms: O_23  and  C_24
REMARK                            x       y       z     vdW  Elec       q    Type
REMARK                         _______ _______ _______ _____ _____    ______ ____
ROOT
ATOM      1  C   UNL     1      -1.590  -5.000  -0.637  0.00  0.00    +0.087 A 
ATOM      2  C   UNL     1      -0.276  -4.557  -0.567  0.00  0.00    +0.091 A 
ATOM      3  C   UNL     1       0.044  -3.298  -1.219  0.00  0.00    -0.021 A 
ATOM      4  C   UNL     1      -0.994  -2.689  -1.833  0.00  0.00    -0.004 A 
ATOM      5  S   UNL     1      -2.377  -3.759  -1.555  0.00  0.00    -0.077 S 
ATOM      6  C   UNL     1      -0.965  -1.393  -2.582  0.00  0.00    +0.046 C 
ATOM      7  C   UNL     1       0.500  -1.035  -2.874  0.00  0.00    -0.000 C 
ATOM      8  C   UNL     1       1.313  -1.197  -1.586  0.00  0.00    +0.009 C 
ATOM      9  C   UNL     1       1.436  -2.679  -1.232  0.00  0.00    +0.037 C 
ENDROOT
BRANCH   1  12
ATOM     10  C   UNL     1      -3.449  -6.419  -0.276  0.00  0.00    +0.241 C 
ATOM     11  O   UNL     1      -4.149  -5.646  -0.900  0.00  0.00    -0.270 OA
ATOM     12  N   UNL     1      -2.139  -6.154  -0.103  0.00  0.00    -0.276 N 
ATOM     13  H   UNL     1      -1.581  -6.771   0.395  0.00  0.00    +0.156 HD
BRANCH  10  16
ATOM     14  C   UNL     1      -6.253  -6.759  -0.283  0.00  0.00    +0.039 C 
ATOM     15  C   UNL     1      -5.345  -7.849   0.225  0.00  0.00    -0.071 C 
ATOM     16  C   UNL     1      -4.032  -7.645   0.291  0.00  0.00    +0.066 C 
ATOM     17  C   UNL     1      -5.924  -9.171   0.658  0.00  0.00    +0.039 C 
ENDBRANCH  10  16
ENDBRANCH   1  12
BRANCH   7  18
ATOM     18  C   UNL     1       0.588   0.414  -3.358  0.00  0.00    -0.035 C 
ATOM     19  C   UNL     1       2.050   0.773  -3.631  0.00  0.00    +0.011 C 
ATOM     20  C   UNL     1      -0.225   0.572  -4.644  0.00  0.00    +0.011 C 
ATOM     21  C   UNL     1       0.026   1.345  -2.282  0.00  0.00    +0.011 C 
ENDBRANCH   7  18
BRANCH   2  22
ATOM     22  C   UNL     1       0.750  -5.329   0.138  0.00  0.00    +0.342 C 
ATOM     23  O   UNL     1       0.954  -5.132   1.321  0.00  0.00    -0.245 OA
BRANCH  22  24
ATOM     24  O   UNL     1       1.468  -6.259  -0.525  0.00  0.00    -0.464 OA
ATOM     25  C   UNL     1       2.467  -6.986   0.237  0.00  0.00    +0.280 C 
ENDBRANCH  22  24
ENDBRANCH   2  22
TORSDOF 5
