REMARK  Name = ZINC16011443
REMARK  5 active torsions:
REMARK  status: ('A' for Active; 'I' for Inactive)
REMARK    1  A    between atoms: C_1  and  C_2
REMARK    2  A    between atoms: C_5  and  N_9
REMARK    3  A    between atoms: C_29  and  C_31
REMARK    4  A    between atoms: C_31  and  C_32
REMARK    5  A    between atoms: C_31  and  C_33
REMARK                            x       y       z     vdW  Elec       q    Type
REMARK                         _______ _______ _______ _____ _____    ______ ____
ROOT
ATOM      1  N   UNL     1       0.058  -4.173  -0.023  0.00  0.00    -0.209 N 
ATOM      2  C   UNL     1      -1.070  -4.944  -0.028  0.00  0.00    +0.232 C 
ATOM      3  O   UNL     1      -2.199  -4.583   0.228  0.00  0.00    -0.274 OA
ATOM      4  C   UNL     1      -0.633  -6.323  -0.412  0.00  0.00    +0.107 C 
ATOM      5  C   UNL     1       0.789  -6.265   0.262  0.00  0.00    +0.123 C 
ATOM      6  C   UNL     1       1.211  -4.918  -0.033  0.00  0.00    +0.233 C 
ATOM      7  O   UNL     1       2.340  -4.526  -0.242  0.00  0.00    -0.274 OA
ATOM      8  C   UNL     1       1.258  -7.649   0.205  0.00  0.00    +0.136 C 
ATOM      9  C   UNL     1       2.208  -8.034   1.312  0.00  0.00    +0.003 A 
ATOM     10  C   UNL     1       2.131  -7.962   2.685  0.00  0.00    +0.008 A 
ATOM     11  C   UNL     1       3.188  -8.404   3.460  0.00  0.00    +0.000 A 
ATOM     12  C   UNL     1       4.319  -8.917   2.853  0.00  0.00    +0.002 A 
ATOM     13  C   UNL     1       4.400  -8.990   1.477  0.00  0.00    +0.023 A 
ATOM     14  C   UNL     1       3.339  -8.547   0.690  0.00  0.00    +0.039 A 
ATOM     15  N   UNL     1       3.183  -8.518  -0.697  0.00  0.00    -0.283 N 
ATOM     16  C   UNL     1       1.993  -8.008  -1.064  0.00  0.00    +0.243 C 
ATOM     17  O   UNL     1       1.588  -7.864  -2.198  0.00  0.00    -0.273 OA
ATOM     18  N   UNL     1       0.022  -8.485   0.308  0.00  0.00    -0.295 NA
ATOM     19  C   UNL     1      -1.170  -7.547   0.323  0.00  0.00    +0.070 C 
ATOM     20  H   UNL     1       3.854  -8.830  -1.324  0.00  0.00    +0.155 HD
ATOM     21  H   UNL     1      -0.043  -9.131  -0.464  0.00  0.00    +0.124 HD
ENDROOT
BRANCH   1  26
ATOM     22  C   UNL     1      -0.018   1.503   0.010  0.00  0.00    +0.044 C 
ATOM     23  C   UNL     1       0.002  -0.004   0.002  0.00  0.00    -0.049 A 
ATOM     24  C   UNL     1       0.006  -0.688  -1.200  0.00  0.00    +0.005 A 
ATOM     25  C   UNL     1       0.024  -2.068  -1.212  0.00  0.00    +0.025 A 
ATOM     26  C   UNL     1       0.040  -2.771  -0.014  0.00  0.00    +0.058 A 
ATOM     27  C   UNL     1       0.036  -2.082   1.192  0.00  0.00    +0.040 A 
ATOM     28  C   UNL     1       0.023  -0.700   1.196  0.00  0.00    +0.020 A 
ATOM     29 BR   UNL     1       0.056  -3.034   2.825  0.00  0.00    -0.048 Br
ENDBRANCH   1  26
BRANCH  19  30
ATOM     30  C   UNL     1      -2.355  -8.153  -0.432  0.00  0.00    +0.001 C 
ATOM     31  C   UNL     1      -2.871  -9.377   0.328  0.00  0.00    +0.009 C 
ATOM     32  C   UNL     1      -3.473  -7.115  -0.546  0.00  0.00    +0.009 C 
ENDBRANCH  19  30
TORSDOF 2
