REMARK  Name = ZINC14531213
REMARK  11 active torsions:
REMARK  status: ('A' for Active; 'I' for Inactive)
REMARK    1  A    between atoms: C_1  and  C_2
REMARK    2  A    between atoms: C_2  and  N_74
REMARK    3  A    between atoms: C_6  and  C_8
REMARK    4  A    between atoms: C_8  and  N_9
REMARK    5  A    between atoms: C_10  and  C_12
REMARK    6  A    between atoms: N_15  and  C_17
REMARK    7  A    between atoms: C_17  and  C_18
REMARK    8  A    between atoms: C_18  and  O_19
REMARK    9  A    between atoms: O_19  and  C_20
REMARK   10  A    between atoms: C_25  and  C_27
REMARK   11  A    between atoms: C_27  and  C_28
REMARK                            x       y       z     vdW  Elec       q    Type
REMARK                         _______ _______ _______ _____ _____    ______ ____
ROOT
ATOM      1  C   UNL     1       2.324  -3.890  -4.720  0.00  0.00    +0.152 A 
ATOM      2  C   UNL     1       3.630  -4.043  -4.229  0.00  0.00    +0.023 A 
ATOM      3  C   UNL     1       3.650  -3.436  -3.017  0.00  0.00    +0.046 A 
ATOM      4  N   UNL     1       2.415  -2.951  -2.799  0.00  0.00    -0.265 N 
ATOM      5  N   UNL     1       1.649  -3.226  -3.798  0.00  0.00    -0.166 NA
ATOM      6  C   UNL     1       4.865  -3.350  -2.131  0.00  0.00    +0.074 C 
ATOM      7  C   UNL     1       5.882  -4.405  -2.584  0.00  0.00    +0.114 C 
ATOM      8  N   UNL     1       5.999  -4.370  -4.050  0.00  0.00    -0.297 N 
ATOM      9  C   UNL     1       4.816  -4.727  -4.856  0.00  0.00    +0.147 C 
ATOM     10  C   UNL     1       7.157  -4.018  -4.642  0.00  0.00    +0.216 C 
ATOM     11  O   UNL     1       7.237  -3.994  -5.852  0.00  0.00    -0.276 OA
ENDROOT
BRANCH   1  13
ATOM     12  N   UNL     1       0.518  -4.157  -6.350  0.00  0.00    -0.312 N 
ATOM     13  C   UNL     1       1.803  -4.381  -6.013  0.00  0.00    +0.264 C 
ATOM     14  O   UNL     1       2.534  -4.987  -6.772  0.00  0.00    -0.268 OA
ATOM     15  H   UNL     1      -0.066  -3.674  -5.744  0.00  0.00    +0.149 HD
BRANCH  12  16
ATOM     16  C   UNL     1       0.002  -4.644  -7.632  0.00  0.00    +0.089 C 
BRANCH  16  20
ATOM     17  C   UNL     1      -3.498  -5.028  -8.752  0.00  0.00    -0.078 C 
ATOM     18  C   UNL     1      -3.571  -5.624  -7.330  0.00  0.00    -0.020 C 
ATOM     19  C   UNL     1      -2.257  -5.191  -6.647  0.00  0.00    -0.016 C 
ATOM     20  C   UNL     1      -1.502  -4.370  -7.713  0.00  0.00    -0.051 C 
ATOM     21  N   UNL     1      -2.065  -4.851  -8.980  0.00  0.00    +0.382 N 
ATOM     22  H   UNL     1      -1.637  -5.749  -9.236  0.00  0.00    -0.081 HD
BRANCH  21  24
ATOM     23  C   UNL     1      -2.029  -4.516 -11.438  0.00  0.00    -0.017 C 
ATOM     24  C   UNL     1      -1.817  -3.858 -10.073  0.00  0.00    -0.082 C 
ENDBRANCH  21  24
ENDBRANCH  16  20
ENDBRANCH  12  16
ENDBRANCH   1  13
BRANCH   4  25
ATOM     25  C   UNL     1       2.000  -2.223  -1.598  0.00  0.00    +0.171 C 
BRANCH  25  26
ATOM     26  C   UNL     1       2.233  -0.725  -1.804  0.00  0.00    +0.182 C 
BRANCH  26  27
ATOM     27  O   UNL     1       1.828  -0.014  -0.632  0.00  0.00    -0.381 OA
ATOM     28  C   UNL     1       2.005   1.401  -0.721  0.00  0.00    +0.194 C 
ENDBRANCH  26  27
ENDBRANCH  25  26
ENDBRANCH   4  25
BRANCH  10  29
ATOM     29  C   UNL     1       8.354  -3.656  -3.801  0.00  0.00    +0.099 C 
BRANCH  29  30
ATOM     30  C   UNL     1       9.530  -3.300  -4.713  0.00  0.00    -0.002 C 
ATOM     31  C   UNL     1       9.953  -4.537  -5.507  0.00  0.00    +0.004 C 
ATOM     32  C   UNL     1      11.129  -4.181  -6.419  0.00  0.00    +0.000 C 
ATOM     33  C   UNL     1      12.304  -3.694  -5.569  0.00  0.00    +0.000 C 
ATOM     34  C   UNL     1      11.881  -2.456  -4.775  0.00  0.00    +0.000 C 
ATOM     35  C   UNL     1      10.705  -2.813  -3.863  0.00  0.00    +0.004 C 
ENDBRANCH  29  30
ENDBRANCH  10  29
TORSDOF 9
