REMARK  Name = ZINC02459883
REMARK  11 active torsions:
REMARK  status: ('A' for Active; 'I' for Inactive)
REMARK    1  A    between atoms: C_1  and  C_2
REMARK    2  A    between atoms: C_2  and  N_3
REMARK    3  A    between atoms: N_3  and  C_4
REMARK    4  A    between atoms: N_3  and  S_6
REMARK    5  A    between atoms: C_4  and  C_5
REMARK    6  A    between atoms: S_6  and  C_9
REMARK    7  A    between atoms: C_15  and  C_32
REMARK    8  A    between atoms: C_16  and  C_18
REMARK    9  A    between atoms: N_20  and  C_21
REMARK   10  A    between atoms: C_26  and  C_31
REMARK   11  A    between atoms: C_28  and  C_30
REMARK                            x       y       z     vdW  Elec       q    Type
REMARK                         _______ _______ _______ _____ _____    ______ ____
ROOT
ATOM      1  C   UNL     1      -5.424   4.067  -5.794  0.00  0.00    +0.106 A 
ATOM      2  C   UNL     1      -4.180   4.176  -6.400  0.00  0.00    +0.032 A 
ATOM      3  C   UNL     1      -3.032   3.833  -5.719  0.00  0.00    +0.049 A 
ATOM      4  C   UNL     1      -3.116   3.373  -4.410  0.00  0.00    +0.136 A 
ATOM      5  C   UNL     1      -4.380   3.264  -3.801  0.00  0.00    +0.026 A 
ATOM      6  C   UNL     1      -5.531   3.616  -4.509  0.00  0.00    +0.040 A 
ATOM      7  C   UNL     1      -4.127   2.760  -2.451  0.00  0.00    +0.008 A 
ATOM      8  C   UNL     1      -2.781   2.608  -2.352  0.00  0.00    +0.193 A 
ATOM      9  O   UNL     1      -2.195   2.978  -3.510  0.00  0.00    -0.450 OA
ATOM     10  C   UNL     1      -5.153   2.467  -1.387  0.00  0.00    +0.048 C 
ENDROOT
BRANCH   8  11
ATOM     11  C   UNL     1      -2.070   2.122  -1.161  0.00  0.00    +0.280 C 
ATOM     12  O   UNL     1      -2.694   1.818  -0.162  0.00  0.00    -0.267 OA
ATOM     13  N   UNL     1      -0.727   2.011  -1.176  0.00  0.00    -0.306 N 
ATOM     14  H   UNL     1      -0.230   2.253  -1.973  0.00  0.00    +0.149 HD
BRANCH  13  15
ATOM     15  C   UNL     1      -0.019   1.526   0.010  0.00  0.00    +0.076 C 
ATOM     16  C   UNL     1       0.002  -0.004   0.002  0.00  0.00    +0.022 C 
ATOM     17  C   UNL     1       0.742  -0.511   1.242  0.00  0.00    +0.002 C 
ATOM     18  C   UNL     1       2.178   0.019   1.231  0.00  0.00    +0.003 C 
ATOM     19  C   UNL     1       2.157   1.548   1.239  0.00  0.00    -0.009 C 
ATOM     20  C   UNL     1       1.417   2.055  -0.000  0.00  0.00    +0.009 C 
ATOM     21  C   UNL     1       1.396   3.585   0.008  0.00  0.00    +0.009 C 
ATOM     22  C   UNL     1       1.441   2.042   2.498  0.00  0.00    +0.008 C 
ENDBRANCH  13  15
ENDBRANCH   8  11
BRANCH   1  23
ATOM     23  S   UNL     1      -6.875   4.511  -6.689  0.00  0.00    +0.061 S 
ATOM     24  O   UNL     1      -7.864   4.838  -5.723  0.00  0.00    -0.153 OA
ATOM     25  O   UNL     1      -6.466   5.424  -7.699  0.00  0.00    -0.153 OA
BRANCH  23  26
ATOM     26  N   UNL     1      -7.407   3.150  -7.468  0.00  0.00    -0.177 NA
BRANCH  26  28
ATOM     27  C   UNL     1      -9.780   2.607  -7.232  0.00  0.00    +0.022 C 
ATOM     28  C   UNL     1      -8.354   2.250  -6.807  0.00  0.00    +0.106 C 
ENDBRANCH  26  28
BRANCH  26  29
ATOM     29  C   UNL     1      -6.929   2.847  -8.820  0.00  0.00    +0.106 C 
ATOM     30  C   UNL     1      -5.737   1.891  -8.737  0.00  0.00    +0.022 C 
ENDBRANCH  26  29
ENDBRANCH  23  26
ENDBRANCH   1  23
TORSDOF 6
