REMARK  Name = ZINC64110898
REMARK  5 active torsions:
REMARK  status: ('A' for Active; 'I' for Inactive)
REMARK    1  A    between atoms: C_7  and  C_10
REMARK    2  A    between atoms: C_10  and  C_11
REMARK    3  A    between atoms: C_11  and  C_12
REMARK    4  A    between atoms: N_14  and  C_15
REMARK    5  A    between atoms: N_26  and  C_27
REMARK                            x       y       z     vdW  Elec       q    Type
REMARK                         _______ _______ _______ _____ _____    ______ ____
ROOT
ATOM      1  C   UNL     1      -0.484  -4.830  -1.460  0.00  0.00    +0.214 C 
ATOM      2  O   UNL     1      -0.925  -5.254  -0.412  0.00  0.00    -0.276 OA
ATOM      3  N   UNL     1      -0.837  -5.413  -2.623  0.00  0.00    -0.312 N 
ATOM      4  H   UNL     1      -0.485  -5.075  -3.461  0.00  0.00    +0.149 HD
ENDROOT
BRANCH   3   5
ATOM      5  C   UNL     1      -1.752  -6.557  -2.622  0.00  0.00    +0.083 C 
ATOM      6  C   UNL     1      -3.169  -6.030  -2.528  0.00  0.00    +0.023 C 
ATOM      7  C   UNL     1      -3.619  -5.462  -3.873  0.00  0.00    +0.004 C 
ATOM      8  C   UNL     1      -3.583  -6.587  -4.907  0.00  0.00    +0.025 C 
ATOM      9  C   UNL     1      -2.142  -7.044  -5.128  0.00  0.00    +0.108 C 
ATOM     10  C   UNL     1      -1.451  -7.396  -3.817  0.00  0.00    +0.074 C 
ATOM     11  C   UNL     1      -1.749  -8.862  -3.635  0.00  0.00    +0.110 C 
ATOM     12  N   UNL     1      -2.190  -9.326  -4.742  0.00  0.00    -0.191 NA
ATOM     13  N   UNL     1      -2.211  -8.385  -5.771  0.00  0.00    -0.218 N 
BRANCH  13  14
ATOM     14  C   UNL     1      -2.286  -8.650  -7.141  0.00  0.00    +0.087 A 
ATOM     15  C   UNL     1      -1.326  -8.137  -8.004  0.00  0.00    +0.028 A 
ATOM     16  C   UNL     1      -1.403  -8.401  -9.357  0.00  0.00    +0.002 A 
ATOM     17  C   UNL     1      -2.435  -9.176  -9.855  0.00  0.00    +0.003 A 
ATOM     18  C   UNL     1      -3.394  -9.689  -9.001  0.00  0.00    +0.040 A 
ATOM     19  C   UNL     1      -3.320  -9.434  -7.644  0.00  0.00    +0.146 A 
ATOM     20  F   UNL     1      -4.253  -9.940  -6.809  0.00  0.00    -0.203 F 
ENDBRANCH  13  14
ENDBRANCH   3   5
BRANCH   1  21
ATOM     21  C   UNL     1       0.457  -3.653  -1.462  0.00  0.00    +0.100 C 
BRANCH  21  22
ATOM     22  C   UNL     1       0.691  -3.186  -0.024  0.00  0.00    +0.042 C 
BRANCH  22  29
ATOM     23  C   UNL     1      -0.016   1.348   0.009  0.00  0.00    +0.001 A 
ATOM     24  C   UNL     1       1.166   2.101   0.002  0.00  0.00    +0.002 A 
ATOM     25  C   UNL     1       2.391   1.535  -0.013  0.00  0.00    +0.026 A 
ATOM     26  C   UNL     1       2.529   0.120  -0.022  0.00  0.00    +0.043 A 
ATOM     27  N   UNL     1       3.587  -0.654  -0.037  0.00  0.00    -0.380 N 
ATOM     28  C   UNL     1       3.143  -2.053  -0.041  0.00  0.00    +0.144 C 
ATOM     29  C   UNL     1       1.631  -2.008  -0.025  0.00  0.00    -0.041 C 
ATOM     30  C   UNL     1       1.295  -0.698  -0.014  0.00  0.00    -0.001 A 
ATOM     31  C   UNL     1       0.002  -0.004   0.002  0.00  0.00    +0.010 A 
ATOM     32  H   UNL     1       4.509  -0.353  -0.045  0.00  0.00    +0.160 HD
ENDBRANCH  22  29
ENDBRANCH  21  22
ENDBRANCH   1  21
TORSDOF 5
