REMARK  Name = ZINC11789347
REMARK  10 active torsions:
REMARK  status: ('A' for Active; 'I' for Inactive)
REMARK    1  A    between atoms: C_1  and  C_2
REMARK    2  A    between atoms: C_2  and  C_3
REMARK    3  A    between atoms: C_3  and  C_4
REMARK    4  A    between atoms: C_5  and  C_22
REMARK    5  A    between atoms: C_9  and  C_21
REMARK    6  A    between atoms: N_10  and  C_11
REMARK    7  A    between atoms: C_11  and  C_12
REMARK    8  A    between atoms: N_24  and  C_25
REMARK    9  A    between atoms: C_25  and  C_27
REMARK   10  A    between atoms: C_25  and  C_28
REMARK                            x       y       z     vdW  Elec       q    Type
REMARK                         _______ _______ _______ _____ _____    ______ ____
ROOT
ATOM      1  C   UNL     1       0.947   2.161  -0.351  0.00  0.00    +0.035 A 
ATOM      2  C   UNL     1       2.170   1.539  -0.207  0.00  0.00    +0.103 A 
ATOM      3  C   UNL     1       2.202   0.069  -0.152  0.00  0.00    +0.194 A 
ATOM      4  O   UNL     1       3.255  -0.534  -0.025  0.00  0.00    -0.287 OA
ATOM      5  C   UNL     1       0.970  -0.624  -0.252  0.00  0.00    +0.072 A 
ATOM      6  C   UNL     1      -0.173   0.078  -0.391  0.00  0.00    +0.020 A 
ATOM      7  N   UNL     1      -0.179   1.433  -0.439  0.00  0.00    -0.343 N 
ATOM      8  C   UNL     1      -1.481  -0.665  -0.497  0.00  0.00    +0.063 C 
ENDROOT
BRANCH   2   9
ATOM      9  C   UNL     1       3.411   2.326  -0.110  0.00  0.00    +0.250 C 
ATOM     10  O   UNL     1       4.029   2.614  -1.117  0.00  0.00    -0.270 OA
ATOM     11  N   UNL     1       3.863   2.726   1.096  0.00  0.00    -0.302 N 
ATOM     12  H   UNL     1       3.370   2.496   1.899  0.00  0.00    +0.150 HD
BRANCH  11  13
ATOM     13  C   UNL     1       5.097   3.509   1.192  0.00  0.00    +0.136 C 
ATOM     14  C   UNL     1       6.300   2.563   1.219  0.00  0.00    +0.036 C 
BRANCH  13  15
ATOM     15  C   UNL     1       5.074   4.329   2.456  0.00  0.00    +0.128 A 
ATOM     16  N   UNL     1       5.765   5.485   2.648  0.00  0.00    -0.340 N 
ATOM     17  H   UNL     1       6.367   5.932   1.986  0.00  0.00    +0.167 HD
ATOM     18  C   UNL     1       5.481   5.926   3.925  0.00  0.00    +0.066 A 
ATOM     19  C   UNL     1       5.876   7.023   4.679  0.00  0.00    +0.028 A 
ATOM     20  C   UNL     1       5.396   7.178   5.962  0.00  0.00    +0.002 A 
ATOM     21  C   UNL     1       4.522   6.246   6.503  0.00  0.00    +0.002 A 
ATOM     22  C   UNL     1       4.123   5.161   5.776  0.00  0.00    +0.030 A 
ATOM     23  C   UNL     1       4.596   4.983   4.473  0.00  0.00    +0.089 A 
ATOM     24  N   UNL     1       4.387   4.037   3.522  0.00  0.00    -0.231 NA
ENDBRANCH  13  15
ENDBRANCH  11  13
ENDBRANCH   2   9
BRANCH   1  25
ATOM     25  C   UNL     1       0.873   3.665  -0.411  0.00  0.00    +0.054 C 
BRANCH  25  27
ATOM     26  C   UNL     1       0.783   5.759   0.949  0.00  0.00    +0.004 C 
ATOM     27  C   UNL     1       0.847   4.231   1.010  0.00  0.00    +0.003 C 
ENDBRANCH  25  27
ENDBRANCH   1  25
BRANCH   7  28
ATOM     28  C   UNL     1      -1.459   2.128  -0.598  0.00  0.00    +0.157 C 
BRANCH  28  29
ATOM     29  C   UNL     1      -1.831   2.167  -2.058  0.00  0.00    -0.024 A 
ATOM     30  C   UNL     1      -2.691   1.216  -2.576  0.00  0.00    +0.009 A 
ATOM     31  C   UNL     1      -3.036   1.248  -3.914  0.00  0.00    +0.050 A 
ATOM     32  C   UNL     1      -2.520   2.234  -4.740  0.00  0.00    +0.166 A 
ATOM     33  C   UNL     1      -1.655   3.192  -4.218  0.00  0.00    +0.167 A 
ATOM     34  C   UNL     1      -1.317   3.157  -2.874  0.00  0.00    +0.055 A 
ATOM     35  O   UNL     1      -1.290   4.043  -5.221  0.00  0.00    -0.453 OA
ATOM     36  C   UNL     1      -2.258   3.842  -6.267  0.00  0.00    +0.466 C 
ATOM     37  O   UNL     1      -2.698   2.485  -6.069  0.00  0.00    -0.453 OA
ENDBRANCH  28  29
ENDBRANCH   7  28
TORSDOF 7
