REMARK  Name = ZINC12547802
REMARK  10 active torsions:
REMARK  status: ('A' for Active; 'I' for Inactive)
REMARK    1  A    between atoms: C_1  and  C_2
REMARK    2  A    between atoms: C_2  and  C_3
REMARK    3  A    between atoms: C_3  and  N_4
REMARK    4  A    between atoms: C_5  and  C_7
REMARK    5  A    between atoms: C_18  and  C_20
REMARK    6  A    between atoms: C_23  and  N_26
REMARK    7  A    between atoms: C_27  and  C_29
REMARK    8  A    between atoms: C_29  and  S_30
REMARK    9  A    between atoms: S_30  and  C_31
REMARK   10  A    between atoms: N_35  and  C_36
REMARK                            x       y       z     vdW  Elec       q    Type
REMARK                         _______ _______ _______ _____ _____    ______ ____
ROOT
ATOM      1  C   UNL     1      -4.789   1.369   2.957  0.00  0.00    +0.276 C 
ATOM      2  C   UNL     1      -5.090   0.285   1.913  0.00  0.00    +0.168 C 
ATOM      3  N   UNL     1      -3.901  -0.580   1.813  0.00  0.00    -0.260 N 
ATOM      4  C   UNL     1      -2.641   0.041   1.812  0.00  0.00    +0.079 A 
ATOM      5  C   UNL     1      -1.514  -0.675   1.442  0.00  0.00    +0.027 A 
ATOM      6  C   UNL     1      -0.275  -0.062   1.450  0.00  0.00    +0.002 A 
ATOM      7  C   UNL     1      -0.160   1.264   1.825  0.00  0.00    +0.004 A 
ATOM      8  C   UNL     1      -1.281   1.984   2.192  0.00  0.00    +0.047 A 
ATOM      9  C   UNL     1      -2.529   1.377   2.187  0.00  0.00    +0.143 A 
ATOM     10  O   UNL     1      -3.626   2.093   2.547  0.00  0.00    -0.476 OA
ATOM     11  C   UNL     1      -4.019  -1.919   1.728  0.00  0.00    +0.251 C 
ATOM     12  O   UNL     1      -3.027  -2.609   1.591  0.00  0.00    -0.270 OA
ENDROOT
BRANCH  11  13
ATOM     13  C   UNL     1      -5.351  -2.549   1.800  0.00  0.00    +0.037 A 
ATOM     14  C   UNL     1      -6.476  -1.863   1.335  0.00  0.00    +0.015 A 
ATOM     15  C   UNL     1      -7.717  -2.456   1.399  0.00  0.00    +0.024 A 
ATOM     16  C   UNL     1      -7.854  -3.732   1.935  0.00  0.00    +0.033 A 
ATOM     17  C   UNL     1      -6.736  -4.416   2.404  0.00  0.00    +0.024 A 
ATOM     18  C   UNL     1      -5.492  -3.831   2.338  0.00  0.00    +0.015 A 
BRANCH  16  19
ATOM     19  N   UNL     1      -9.113  -4.327   2.004  0.00  0.00    -0.285 N 
ATOM     20  C   UNL     1      -9.427  -5.122   3.046  0.00  0.00    +0.227 C 
ATOM     21  O   UNL     1      -8.588  -5.387   3.881  0.00  0.00    -0.275 OA
ATOM     22  H   UNL     1      -9.763  -4.170   1.301  0.00  0.00    +0.155 HD
BRANCH  20  23
ATOM     23  C   UNL     1     -10.821  -5.680   3.175  0.00  0.00    +0.173 C 
BRANCH  23  24
ATOM     24  S   UNL     1     -10.927  -6.699   4.667  0.00  0.00    -0.078 S 
BRANCH  24  25
ATOM     25  C   UNL     1     -12.611  -7.208   4.570  0.00  0.00    +0.169 A 
ATOM     26  N   UNL     1     -13.463  -6.870   3.630  0.00  0.00    -0.230 NA
ATOM     27  C   UNL     1     -14.651  -7.446   3.880  0.00  0.00    +0.131 A 
ATOM     28  C   UNL     1     -14.546  -8.158   5.014  0.00  0.00    +0.107 A 
ATOM     29  N   UNL     1     -13.252  -8.013   5.461  0.00  0.00    -0.329 N 
ATOM     30  C   UNL     1     -12.674  -8.612   6.667  0.00  0.00    +0.151 C 
ENDBRANCH  24  25
ENDBRANCH  23  24
ENDBRANCH  20  23
ENDBRANCH  16  19
ENDBRANCH  11  13
BRANCH   1  32
ATOM     31  N   UNL     1      -7.144   1.868   3.527  0.00  0.00    -0.312 N 
ATOM     32  C   UNL     1      -5.961   2.312   3.058  0.00  0.00    +0.255 C 
ATOM     33  O   UNL     1      -5.839   3.470   2.719  0.00  0.00    -0.272 OA
ATOM     34  H   UNL     1      -7.241   0.942   3.799  0.00  0.00    +0.149 HD
BRANCH  31  35
ATOM     35  C   UNL     1      -8.281   2.785   3.631  0.00  0.00    +0.104 C 
BRANCH  35  37
ATOM     36  C   UNL     1     -10.679   2.994   4.303  0.00  0.00    +0.005 C 
ATOM     37  C   UNL     1      -9.491   2.036   4.194  0.00  0.00    +0.015 C 
ENDBRANCH  35  37
ENDBRANCH  31  35
ENDBRANCH   1  32
TORSDOF 8
