REMARK  Name = ZINC34892457
REMARK  8 active torsions:
REMARK  status: ('A' for Active; 'I' for Inactive)
REMARK    1  A    between atoms: C_1  and  C_2
REMARK    2  A    between atoms: C_11  and  S_15
REMARK    3  A    between atoms: S_15  and  C_16
REMARK    4  A    between atoms: C_16  and  C_17
REMARK    5  A    between atoms: C_21  and  C_24
REMARK    6  A    between atoms: C_27  and  N_30
REMARK    7  A    between atoms: N_30  and  C_31
REMARK    8  A    between atoms: N_30  and  C_32
REMARK                            x       y       z     vdW  Elec       q    Type
REMARK                         _______ _______ _______ _____ _____    ______ ____
ROOT
ATOM      1  C   UNL     1       0.974  -6.165  -3.641  0.00  0.00    +0.105 C 
ENDROOT
BRANCH   1   2
ATOM      2  C   UNL     1       0.620  -5.920  -5.109  0.00  0.00    +0.110 C 
ATOM      3  C   UNL     1       0.679  -7.240  -5.918  0.00  0.00    -0.046 C 
ATOM      4  N   UNL     1       0.953  -6.767  -7.297  0.00  0.00    +0.401 N 
ATOM      5  C   UNL     1       1.537  -5.419  -7.156  0.00  0.00    +0.094 C 
ATOM      6  O   UNL     1       1.632  -5.111  -5.753  0.00  0.00    -0.388 OA
ATOM      7  H   UNL     1       1.610  -7.384  -7.752  0.00  0.00    -0.081 HD
ATOM      8  H   UNL     1       0.095  -6.721  -7.825  0.00  0.00    -0.081 HD
BRANCH   5   9
ATOM      9  C   UNL     1       2.909  -5.391  -7.779  0.00  0.00    -0.036 A 
ATOM     10  C   UNL     1       3.679  -6.539  -7.802  0.00  0.00    +0.006 A 
ATOM     11  C   UNL     1       4.937  -6.516  -8.372  0.00  0.00    +0.023 A 
ATOM     12  C   UNL     1       5.428  -5.339  -8.921  0.00  0.00    +0.029 A 
ATOM     13  C   UNL     1       4.652  -4.187  -8.895  0.00  0.00    +0.023 A 
ATOM     14  C   UNL     1       3.393  -4.218  -8.329  0.00  0.00    +0.006 A 
BRANCH  12  15
ATOM     15  N   UNL     1       6.700  -5.313  -9.498  0.00  0.00    -0.336 N 
ATOM     16  C   UNL     1       7.518  -6.528  -9.523  0.00  0.00    +0.129 C 
ATOM     17  C   UNL     1       7.217  -4.070 -10.076  0.00  0.00    +0.129 C 
ENDBRANCH  12  15
ENDBRANCH   5   9
ENDBRANCH   1   2
BRANCH   1  18
ATOM     18  S   UNL     1       0.827  -4.611  -2.717  0.00  0.00    -0.103 S 
BRANCH  18  28
ATOM     19  C   UNL     1      -0.019   1.526   0.010  0.00  0.00    +0.008 C 
ATOM     20  C   UNL     1       0.002  -0.004   0.002  0.00  0.00    -0.009 C 
ATOM     21  C   UNL     1       0.726  -0.501  -1.253  0.00  0.00    +0.008 C 
ATOM     22  C   UNL     1       0.536  -2.011  -1.396  0.00  0.00    +0.037 C 
ATOM     23  C   UNL     1       0.950  -2.688  -0.092  0.00  0.00    -0.025 A 
ATOM     24  C   UNL     1       1.032  -1.976   1.055  0.00  0.00    -0.004 A 
ATOM     25  S   UNL     1       1.537  -3.143   2.295  0.00  0.00    -0.073 S 
ATOM     26  C   UNL     1       1.638  -4.580   1.278  0.00  0.00    +0.113 A 
ATOM     27  C   UNL     1       1.272  -4.103  -0.006  0.00  0.00    +0.043 A 
ATOM     28  C   UNL     1       1.260  -5.054  -1.067  0.00  0.00    +0.109 A 
ATOM     29  N   UNL     1       1.598  -6.299  -0.734  0.00  0.00    -0.229 NA
ATOM     30  C   UNL     1       1.928  -6.671   0.486  0.00  0.00    +0.223 A 
ATOM     31  N   UNL     1       1.959  -5.836   1.519  0.00  0.00    -0.228 NA
ATOM     32  C   UNL     1       0.751  -0.516   1.240  0.00  0.00    +0.046 C 
ENDBRANCH  18  28
ENDBRANCH   1  18
TORSDOF 5
