REMARK  Name = ZINC39897960
REMARK  10 active torsions:
REMARK  status: ('A' for Active; 'I' for Inactive)
REMARK    1  A    between atoms: C_1  and  C_2
REMARK    2  A    between atoms: C_2  and  C_3
REMARK    3  A    between atoms: C_3  and  C_4
REMARK    4  A    between atoms: C_4  and  O_5
REMARK    5  A    between atoms: O_5  and  C_6
REMARK    6  A    between atoms: C_9  and  C_12
REMARK    7  A    between atoms: C_15  and  C_26
REMARK    8  A    between atoms: N_22  and  C_23
REMARK    9  A    between atoms: C_23  and  C_24
REMARK   10  A    between atoms: C_24  and  O_25
REMARK                            x       y       z     vdW  Elec       q    Type
REMARK                         _______ _______ _______ _____ _____    ______ ____
ROOT
ATOM      1  C   UNL     1       1.905  -8.096   2.995  0.00  0.00    +0.141 C 
ATOM      2  C   UNL     1       3.277  -8.551   2.579  0.00  0.00    +0.035 A 
ATOM      3  C   UNL     1       4.204  -8.645   1.590  0.00  0.00    +0.075 A 
ATOM      4  N   UNL     1       5.291  -9.271   2.131  0.00  0.00    -0.276 N 
ATOM      5  N   UNL     1       5.066  -9.550   3.366  0.00  0.00    -0.168 NA
ATOM      6  H   UNL     1       6.111  -9.475   1.654  0.00  0.00    +0.189 HD
ATOM      7  C   UNL     1       3.863  -9.146   3.719  0.00  0.00    +0.153 A 
ATOM      8  C   UNL     1       2.888  -9.066   4.822  0.00  0.00    +0.268 C 
ATOM      9  O   UNL     1       3.077  -9.488   5.946  0.00  0.00    -0.268 OA
ATOM     10  N   UNL     1       1.759  -8.463   4.409  0.00  0.00    -0.283 N 
ENDROOT
BRANCH   3  11
ATOM     11  C   UNL     1       4.063  -8.164   0.198  0.00  0.00    +0.048 A 
ATOM     12  C   UNL     1       4.050  -9.073  -0.859  0.00  0.00    +0.033 A 
ATOM     13  C   UNL     1       3.918  -8.619  -2.156  0.00  0.00    +0.042 A 
ATOM     14  C   UNL     1       3.799  -7.262  -2.411  0.00  0.00    +0.024 A 
ATOM     15  C   UNL     1       3.812  -6.353  -1.370  0.00  0.00    +0.053 A 
ATOM     16  C   UNL     1       3.938  -6.795  -0.063  0.00  0.00    +0.188 A 
ATOM     17  O   UNL     1       3.945  -5.902   0.961  0.00  0.00    -0.287 OA
ATOM     18 CL   UNL     1       3.900  -9.751  -3.472  0.00  0.00    -0.084 Cl
ENDBRANCH   3  11
BRANCH   1  22
ATOM     19  C   UNL     1       1.563  -3.861   2.537  0.00  0.00    +0.121 A 
ATOM     20  C   UNL     1       1.020  -4.709   1.582  0.00  0.00    +0.046 A 
ATOM     21  C   UNL     1       1.133  -6.078   1.733  0.00  0.00    +0.009 A 
ATOM     22  C   UNL     1       1.784  -6.602   2.834  0.00  0.00    -0.022 A 
ATOM     23  C   UNL     1       2.325  -5.759   3.787  0.00  0.00    +0.009 A 
ATOM     24  C   UNL     1       2.221  -4.390   3.638  0.00  0.00    +0.046 A 
BRANCH  19  25
ATOM     25  O   UNL     1       1.454  -2.514   2.391  0.00  0.00    -0.492 OA
BRANCH  25  26
ATOM     26  C   UNL     1       0.763  -2.041   1.233  0.00  0.00    +0.229 C 
BRANCH  26  27
ATOM     27  C   UNL     1       0.742  -0.511   1.242  0.00  0.00    +0.041 C 
BRANCH  27  29
ATOM     28  C   UNL     1      -0.019   1.526   0.010  0.00  0.00    +0.004 C 
ATOM     29  C   UNL     1       0.002  -0.004   0.002  0.00  0.00    -0.000 C 
ENDBRANCH  27  29
ENDBRANCH  26  27
ENDBRANCH  25  26
ENDBRANCH  19  25
ENDBRANCH   1  22
BRANCH  10  30
ATOM     30  C   UNL     1       0.575  -8.211   5.235  0.00  0.00    +0.137 C 
BRANCH  30  31
ATOM     31  C   UNL     1      -0.380  -9.403   5.134  0.00  0.00    +0.175 C 
BRANCH  31  32
ATOM     32  O   UNL     1       0.239 -10.559   5.702  0.00  0.00    -0.393 OA
ATOM     33  H   UNL     1      -0.310 -11.354   5.672  0.00  0.00    +0.209 HD
ENDBRANCH  31  32
ENDBRANCH  30  31
ENDBRANCH  10  30
TORSDOF 9
