REMARK  Name = ZINC15101468
REMARK  8 active torsions:
REMARK  status: ('A' for Active; 'I' for Inactive)
REMARK    1  A    between atoms: C_1  and  N_2
REMARK    2  A    between atoms: N_2  and  C_3
REMARK    3  A    between atoms: N_2  and  C_13
REMARK    4  A    between atoms: C_3  and  C_4
REMARK    5  A    between atoms: C_4  and  O_5
REMARK    6  A    between atoms: O_5  and  C_6
REMARK    7  A    between atoms: C_13  and  C_14
REMARK    8  A    between atoms: C_20  and  C_25
REMARK                            x       y       z     vdW  Elec       q    Type
REMARK                         _______ _______ _______ _____ _____    ______ ____
ROOT
ATOM      1  C   UNL     1      -0.237  -0.122   2.360  0.00  0.00    +0.094 A 
ATOM      2  N   UNL     1       0.193  -0.515   3.587  0.00  0.00    -0.312 N 
ATOM      3  H   UNL     1       0.997  -1.053   3.659  0.00  0.00    +0.170 HD
ATOM      4  C   UNL     1      -0.474  -0.173   4.704  0.00  0.00    +0.260 A 
ATOM      5  O   UNL     1      -0.075  -0.533   5.798  0.00  0.00    -0.267 OA
ATOM      6  C   UNL     1      -1.659   0.622   4.589  0.00  0.00    +0.080 A 
ATOM      7  C   UNL     1      -2.545   1.116   5.637  0.00  0.00    +0.004 A 
ATOM      8  C   UNL     1      -3.621   1.860   5.283  0.00  0.00    +0.056 A 
ATOM      9  S   UNL     1      -3.502   1.939   3.507  0.00  0.00    -0.076 S 
ATOM     10  C   UNL     1      -2.026   0.981   3.281  0.00  0.00    +0.116 A 
ATOM     11  N   UNL     1      -1.311   0.608   2.223  0.00  0.00    -0.229 NA
ENDROOT
BRANCH   7  12
ATOM     12  C   UNL     1      -2.273   0.809   7.061  0.00  0.00    -0.016 A 
ATOM     13  C   UNL     1      -2.018  -0.502   7.458  0.00  0.00    +0.010 A 
ATOM     14  C   UNL     1      -1.765  -0.782   8.786  0.00  0.00    +0.020 A 
ATOM     15  C   UNL     1      -1.766   0.237   9.723  0.00  0.00    +0.041 A 
ATOM     16  C   UNL     1      -2.019   1.541   9.334  0.00  0.00    +0.020 A 
ATOM     17  C   UNL     1      -2.267   1.833   8.008  0.00  0.00    +0.010 A 
ATOM     18 CL   UNL     1      -1.447  -0.122  11.391  0.00  0.00    -0.084 Cl
ENDBRANCH   7  12
BRANCH   1  19
ATOM     19  C   UNL     1       0.543  -0.529   1.137  0.00  0.00    -0.003 C 
BRANCH  19  21
ATOM     20  C   UNL     1      -0.043   1.483  -0.031  0.00  0.00    -0.095 C 
ATOM     21  N   UNL     1      -0.108   0.016  -0.062  0.00  0.00    +0.385 N 
ATOM     22  H   UNL     1      -1.073  -0.278  -0.084  0.00  0.00    -0.081 HD
BRANCH  21  23
ATOM     23  C   UNL     1       0.582  -0.479  -1.261  0.00  0.00    -0.037 C 
BRANCH  23  24
ATOM     24  C   UNL     1       0.378  -1.991  -1.380  0.00  0.00    +0.210 C 
BRANCH  24  25
ATOM     25  O   UNL     1      -1.008  -2.269  -1.591  0.00  0.00    -0.494 OA
BRANCH  25  26
ATOM     26  C   UNL     1      -1.363  -3.575  -1.718  0.00  0.00    +0.121 A 
ATOM     27  C   UNL     1      -0.398  -4.568  -1.636  0.00  0.00    +0.048 A 
ATOM     28  C   UNL     1      -0.760  -5.894  -1.766  0.00  0.00    +0.042 A 
ATOM     29  C   UNL     1      -2.086  -6.233  -1.979  0.00  0.00    +0.124 A 
ATOM     30  C   UNL     1      -3.050  -5.243  -2.061  0.00  0.00    +0.042 A 
ATOM     31  C   UNL     1      -2.692  -3.916  -1.925  0.00  0.00    +0.048 A 
ATOM     32  F   UNL     1      -2.438  -7.531  -2.106  0.00  0.00    -0.205 F 
ENDBRANCH  25  26
ENDBRANCH  24  25
ENDBRANCH  23  24
ENDBRANCH  21  23
ENDBRANCH  19  21
ENDBRANCH   1  19
TORSDOF 7
