REMARK  Name = ZINC08995815
REMARK  7 active torsions:
REMARK  status: ('A' for Active; 'I' for Inactive)
REMARK    1  A    between atoms: C_1  and  C_2
REMARK    2  A    between atoms: C_2  and  C_3
REMARK    3  A    between atoms: C_3  and  C_4
REMARK    4  A    between atoms: C_4  and  N_5
REMARK    5  A    between atoms: C_25  and  C_27
REMARK    6  A    between atoms: C_27  and  C_28
REMARK    7  A    between atoms: C_27  and  C_29
REMARK                            x       y       z     vdW  Elec       q    Type
REMARK                         _______ _______ _______ _____ _____    ______ ____
ROOT
ATOM      1  N   UNL     1       5.588  -1.897  -2.840  0.00  0.00    -0.242 N 
ATOM      2  C   UNL     1       6.025  -2.583  -1.745  0.00  0.00    +0.224 C 
ATOM      3  O   UNL     1       6.639  -3.629  -1.733  0.00  0.00    -0.275 OA
ATOM      4  C   UNL     1       5.599  -1.785  -0.593  0.00  0.00    +0.073 C 
ATOM      5  C   UNL     1       4.207  -1.287  -1.154  0.00  0.00    +0.088 C 
ATOM      6  C   UNL     1       4.650  -0.950  -2.520  0.00  0.00    +0.225 C 
ATOM      7  O   UNL     1       4.266  -0.032  -3.213  0.00  0.00    -0.275 OA
ATOM      8  C   UNL     1       3.841  -0.371  -0.032  0.00  0.00    +0.050 C 
ATOM      9  C   UNL     1       2.394   0.031  -0.019  0.00  0.00    -0.026 A 
ATOM     10  C   UNL     1       1.212  -0.676  -0.012  0.00  0.00    +0.024 A 
ATOM     11  C   UNL     1       0.002  -0.004   0.002  0.00  0.00    +0.041 A 
ATOM     12  C   UNL     1      -0.017   1.380   0.010  0.00  0.00    +0.022 A 
ATOM     13  C   UNL     1       1.165   2.092   0.002  0.00  0.00    +0.025 A 
ATOM     14  C   UNL     1       2.386   1.423  -0.013  0.00  0.00    +0.036 A 
ATOM     15  N   UNL     1       3.695   1.913  -0.023  0.00  0.00    -0.286 N 
ATOM     16  C   UNL     1       4.607   0.923  -0.034  0.00  0.00    +0.211 C 
ATOM     17  O   UNL     1       5.814   1.051  -0.043  0.00  0.00    -0.277 OA
ATOM     18 CL   UNL     1      -1.488  -0.895   0.011  0.00  0.00    -0.084 Cl
ATOM     19  C   UNL     1       5.221  -2.164   0.798  0.00  0.00    -0.055 C 
ATOM     20  H   UNL     1       3.919   2.857  -0.023  0.00  0.00    +0.155 HD
ATOM     21  N   UNL     1       4.178  -1.167   1.175  0.00  0.00    +0.394 N 
ATOM     22  H   UNL     1       3.340  -1.652   1.517  0.00  0.00    -0.083 HD
ATOM     23  H   UNL     1       4.538  -0.547   1.910  0.00  0.00    -0.083 HD
ENDROOT
BRANCH  19  24
ATOM     24  C   UNL     1       6.432  -2.058   1.728  0.00  0.00    -0.031 C 
ATOM     25  C   UNL     1       6.001  -2.369   3.163  0.00  0.00    +0.005 C 
ATOM     26  C   UNL     1       7.502  -3.060   1.288  0.00  0.00    +0.005 C 
ENDBRANCH  19  24
BRANCH   1  27
ATOM     27  C   UNL     1       6.058  -2.149  -4.205  0.00  0.00    +0.116 C 
BRANCH  27  28
ATOM     28  C   UNL     1       7.267  -1.260  -4.500  0.00  0.00    +0.019 C 
BRANCH  28  30
ATOM     29  C   UNL     1       8.967  -0.633  -6.221  0.00  0.00    +0.004 C 
ATOM     30  C   UNL     1       7.758  -1.523  -5.926  0.00  0.00    -0.002 C 
ENDBRANCH  28  30
ENDBRANCH  27  28
ENDBRANCH   1  27
TORSDOF 4
