REMARK  Name = ZINC62893374
REMARK  6 active torsions:
REMARK  status: ('A' for Active; 'I' for Inactive)
REMARK    1  A    between atoms: C_1  and  C_2
REMARK    2  A    between atoms: C_2  and  C_3
REMARK    3  A    between atoms: C_3  and  C_4
REMARK    4  A    between atoms: C_4  and  C_9
REMARK    5  A    between atoms: N_11  and  C_12
REMARK    6  A    between atoms: C_17  and  N_18
REMARK                            x       y       z     vdW  Elec       q    Type
REMARK                         _______ _______ _______ _____ _____    ______ ____
ROOT
ATOM      1  C   UNL     1      -0.719  -2.659  -1.054  0.00  0.00    +0.222 C 
ATOM      2  O   UNL     1      -1.286  -3.312  -1.905  0.00  0.00    -0.275 OA
ATOM      3  N   UNL     1       0.619  -2.505  -1.102  0.00  0.00    -0.283 N 
ATOM      4  H   UNL     1       1.064  -1.931  -0.460  0.00  0.00    +0.155 HD
ENDROOT
BRANCH   1   5
ATOM      5  C   UNL     1      -1.512  -2.021   0.057  0.00  0.00    +0.031 C 
ATOM      6  C   UNL     1      -1.029  -2.527   1.442  0.00  0.00    -0.005 C 
ATOM      7  C   UNL     1      -1.799  -3.865   1.571  0.00  0.00    -0.082 C 
ATOM      8  N   UNL     1      -3.120  -3.600   0.963  0.00  0.00    +0.380 N 
ATOM      9  C   UNL     1      -2.984  -2.482   0.012  0.00  0.00    -0.067 C 
ATOM     10  H   UNL     1      -3.440  -4.424   0.475  0.00  0.00    -0.086 HD
ATOM     11  H   UNL     1      -3.783  -3.355   1.683  0.00  0.00    -0.086 HD
BRANCH   5  12
ATOM     12  C   UNL     1      -1.420  -0.495  -0.023  0.00  0.00    +0.014 C 
BRANCH  12  14
ATOM     13  C   UNL     1      -2.167   1.524  -1.290  0.00  0.00    +0.004 C 
ATOM     14  C   UNL     1      -2.152  -0.005  -1.274  0.00  0.00    -0.002 C 
ENDBRANCH  12  14
ENDBRANCH   5  12
ENDBRANCH   1   5
BRANCH   3  15
ATOM     15  C   UNL     1       1.365  -3.173  -2.080  0.00  0.00    +0.064 A 
ATOM     16  C   UNL     1       0.836  -3.365  -3.349  0.00  0.00    +0.027 A 
ATOM     17  C   UNL     1       1.575  -4.024  -4.312  0.00  0.00    +0.017 A 
ATOM     18  C   UNL     1       2.842  -4.493  -4.012  0.00  0.00    +0.020 A 
ATOM     19  C   UNL     1       3.372  -4.303  -2.748  0.00  0.00    +0.050 A 
ATOM     20  C   UNL     1       2.639  -3.640  -1.784  0.00  0.00    +0.148 A 
ATOM     21 BR   UNL     1       3.850  -5.396  -5.332  0.00  0.00    -0.050 Br
BRANCH  20  22
ATOM     22  N   UNL     1       3.209  -3.431  -0.433  0.00  0.00    +0.058 N 
ATOM     23  O   UNL     1       4.353  -3.749  -0.204  0.00  0.00    -0.126 OA
ATOM     24  O   UNL     1       2.531  -2.943   0.440  0.00  0.00    -0.126 OA
ENDBRANCH  20  22
ENDBRANCH   3  15
TORSDOF 5
