REMARK  Name = ZINC14013429
REMARK  14 active torsions:
REMARK  status: ('A' for Active; 'I' for Inactive)
REMARK    1  A    between atoms: C_1  and  C_2
REMARK    2  A    between atoms: C_3  and  C_29
REMARK    3  A    between atoms: C_4  and  C_28
REMARK    4  A    between atoms: C_7  and  C_8
REMARK    5  A    between atoms: C_8  and  O_10
REMARK    6  A    between atoms: O_10  and  C_11
REMARK    7  A    between atoms: C_11  and  C_12
REMARK    8  A    between atoms: C_12  and  O_14
REMARK    9  A    between atoms: O_14  and  C_15
REMARK   10  A    between atoms: C_18  and  C_27
REMARK   11  A    between atoms: C_22  and  C_24
REMARK   12  A    between atoms: C_24  and  C_25
REMARK   13  A    between atoms: C_24  and  C_26
REMARK   14  A    between atoms: C_29  and  C_31
REMARK                            x       y       z     vdW  Elec       q    Type
REMARK                         _______ _______ _______ _____ _____    ______ ____
ROOT
ATOM      1  O   UNL     1       3.759   5.272  -1.923  0.00  0.00    -0.449 OA
ENDROOT
BRANCH   1   2
ATOM      2  C   UNL     1       3.809   6.620  -1.901  0.00  0.00    +0.356 C 
ATOM      3  O   UNL     1       2.853   7.257  -1.503  0.00  0.00    -0.243 OA
BRANCH   2  10
ATOM      4  C   UNL     1       4.198   9.713  -1.959  0.00  0.00    +0.047 C 
ATOM      5  C   UNL     1       5.195   8.667  -2.387  0.00  0.00    -0.008 A 
ATOM      6  C   UNL     1       6.495   8.902  -2.895  0.00  0.00    +0.041 A 
ATOM      7  C   UNL     1       7.057   7.662  -3.157  0.00  0.00    +0.024 A 
ATOM      8  N   UNL     1       6.166   6.716  -2.826  0.00  0.00    -0.352 N 
ATOM      9  H   UNL     1       6.307   5.759  -2.906  0.00  0.00    +0.166 HD
ATOM     10  C   UNL     1       5.016   7.316  -2.358  0.00  0.00    +0.128 A 
ATOM     11  C   UNL     1       8.437   7.418  -3.711  0.00  0.00    +0.064 C 
BRANCH   6  12
ATOM     12  C   UNL     1       7.127  10.208  -3.106  0.00  0.00    +0.162 C 
ATOM     13  O   UNL     1       6.962  10.800  -4.152  0.00  0.00    -0.292 OA
ATOM     14  C   UNL     1       7.981  10.815  -2.022  0.00  0.00    +0.091 C 
ENDBRANCH   6  12
ENDBRANCH   2  10
ENDBRANCH   1   2
BRANCH   1  15
ATOM     15  C   UNL     1       2.533   4.650  -1.456  0.00  0.00    +0.352 C 
BRANCH  15  16
ATOM     16  C   UNL     1       2.661   3.152  -1.554  0.00  0.00    +0.346 C 
ATOM     17  O   UNL     1       3.681   2.659  -1.973  0.00  0.00    -0.247 OA
BRANCH  16  18
ATOM     18  O   UNL     1       1.642   2.365  -1.174  0.00  0.00    -0.459 OA
BRANCH  18  19
ATOM     19  C   UNL     1       1.835   0.931  -1.295  0.00  0.00    +0.180 C 
ATOM     20  C   UNL     1       2.435   0.386   0.003  0.00  0.00    +0.048 C 
ATOM     21  C   UNL     1       1.483   0.676   1.165  0.00  0.00    -0.011 C 
ATOM     22  C   UNL     1       0.136  -0.000   0.902  0.00  0.00    +0.004 C 
ATOM     23  C   UNL     1      -0.463   0.545  -0.396  0.00  0.00    +0.007 C 
ATOM     24  C   UNL     1       0.488   0.255  -1.558  0.00  0.00    +0.032 C 
ATOM     25  C   UNL     1       2.083   0.130   2.463  0.00  0.00    +0.007 C 
BRANCH  24  26
ATOM     26  C   UNL     1      -0.111   0.800  -2.856  0.00  0.00    -0.011 C 
ATOM     27  C   UNL     1       0.840   0.511  -4.019  0.00  0.00    +0.007 C 
ATOM     28  C   UNL     1      -1.458   0.124  -3.119  0.00  0.00    +0.007 C 
ENDBRANCH  24  26
ENDBRANCH  18  19
ENDBRANCH  16  18
ENDBRANCH  15  16
ENDBRANCH   1  15
TORSDOF 8
