REMARK  Name = ZINC14473977
REMARK  3 active torsions:
REMARK  status: ('A' for Active; 'I' for Inactive)
REMARK    1  A    between atoms: C_4  and  O_27
REMARK    2  A    between atoms: C_5  and  C_7
REMARK    3  A    between atoms: C_17  and  N_24
REMARK                            x       y       z     vdW  Elec       q    Type
REMARK                         _______ _______ _______ _____ _____    ______ ____
ROOT
ATOM      1  C   UNL     1      -2.721   4.434  -0.617  0.00  0.00    +0.108 C 
ATOM      2  C   UNL     1      -2.928   4.771   0.846  0.00  0.00    +0.029 C 
ATOM      3  C   UNL     1      -2.087   5.904   1.446  0.00  0.00    +0.033 C 
ATOM      4  C   UNL     1      -3.023   6.435   2.534  0.00  0.00    -0.030 C 
ATOM      5  C   UNL     1      -4.286   6.178   2.210  0.00  0.00    -0.023 C 
ATOM      6  C   UNL     1      -4.305   5.503   0.890  0.00  0.00    +0.051 C 
ATOM      7  C   UNL     1      -5.331   4.507   0.514  0.00  0.00    +0.014 A 
ATOM      8  C   UNL     1      -6.607   4.547   1.037  0.00  0.00    +0.132 A 
ATOM      9  C   UNL     1      -7.555   3.619   0.650  0.00  0.00    +0.036 A 
ATOM     10  C   UNL     1      -7.219   2.642  -0.270  0.00  0.00    +0.042 A 
ATOM     11  C   UNL     1      -5.945   2.589  -0.792  0.00  0.00    +0.145 A 
ATOM     12  C   UNL     1      -4.974   3.518  -0.405  0.00  0.00    +0.069 A 
ATOM     13  N   UNL     1      -3.702   3.393  -0.963  0.00  0.00    -0.334 N 
ATOM     14  F   UNL     1      -5.630   1.629  -1.689  0.00  0.00    -0.204 F 
ATOM     15  H   UNL     1      -3.324   2.471  -0.800  0.00  0.00    +0.147 HD
ENDROOT
BRANCH   1  20
ATOM     16  C   UNL     1       0.727   3.050   0.053  0.00  0.00    +0.001 A 
ATOM     17  C   UNL     1       1.246   2.962  -1.226  0.00  0.00    +0.004 A 
ATOM     18  C   UNL     1       0.482   3.348  -2.311  0.00  0.00    +0.046 A 
ATOM     19  C   UNL     1      -0.805   3.826  -2.116  0.00  0.00    +0.122 A 
ATOM     20  C   UNL     1      -1.323   3.915  -0.832  0.00  0.00    +0.014 A 
ATOM     21  C   UNL     1      -0.558   3.521   0.249  0.00  0.00    +0.009 A 
BRANCH  19  22
ATOM     22  O   UNL     1      -1.558   4.207  -3.181  0.00  0.00    -0.506 OA
ATOM     23  H   UNL     1      -2.092   3.496  -3.560  0.00  0.00    +0.292 HD
ENDBRANCH  19  22
ENDBRANCH   1  20
BRANCH   8  24
ATOM     24  N   UNL     1      -6.964   5.593   2.021  0.00  0.00    +0.057 N 
ATOM     25  O   UNL     1      -7.492   5.284   3.075  0.00  0.00    -0.126 OA
ATOM     26  O   UNL     1      -6.731   6.764   1.778  0.00  0.00    -0.126 OA
ENDBRANCH   8  24
TORSDOF 3
