REMARK  Name = ZINC45344271
REMARK  10 active torsions:
REMARK  status: ('A' for Active; 'I' for Inactive)
REMARK    1  A    between atoms: C_1  and  C_2
REMARK    2  A    between atoms: C_2  and  C_3
REMARK    3  A    between atoms: C_2  and  C_4
REMARK    4  A    between atoms: C_4  and  C_6
REMARK    5  A    between atoms: C_4  and  N_13
REMARK    6  A    between atoms: C_14  and  C_16
REMARK    7  A    between atoms: C_16  and  S_17
REMARK    8  A    between atoms: S_17  and  C_18
REMARK    9  A    between atoms: C_20  and  C_24
REMARK   10  A    between atoms: N_22  and  N_23
REMARK                            x       y       z     vdW  Elec       q    Type
REMARK                         _______ _______ _______ _____ _____    ______ ____
ROOT
ATOM      1  C   UNL     1      -3.456   1.665  -2.381  0.00  0.00    +0.173 C 
ENDROOT
BRANCH   1   3
ATOM      2  N   UNL     1      -2.142  -0.048  -1.174  0.00  0.00    -0.308 N 
ATOM      3  C   UNL     1      -2.727   1.166  -1.160  0.00  0.00    +0.224 C 
ATOM      4  O   UNL     1      -2.667   1.857  -0.165  0.00  0.00    -0.275 OA
ATOM      5  H   UNL     1      -2.190  -0.601  -1.970  0.00  0.00    +0.149 HD
BRANCH   2   6
ATOM      6  C   UNL     1      -1.433  -0.534   0.013  0.00  0.00    +0.106 C 
BRANCH   6   7
ATOM      7  C   UNL     1      -1.413  -2.041   0.005  0.00  0.00    -0.027 A 
ATOM      8  C   UNL     1      -1.201  -2.722  -1.179  0.00  0.00    +0.008 A 
ATOM      9  C   UNL     1      -1.182  -4.104  -1.188  0.00  0.00    +0.038 A 
ATOM     10  C   UNL     1      -1.375  -4.806  -0.011  0.00  0.00    +0.123 A 
ATOM     11  C   UNL     1      -1.586  -4.122   1.175  0.00  0.00    +0.038 A 
ATOM     12  C   UNL     1      -1.600  -2.740   1.182  0.00  0.00    +0.008 A 
ATOM     13  F   UNL     1      -1.356  -6.157  -0.018  0.00  0.00    -0.205 F 
ENDBRANCH   6   7
BRANCH   6  15
ATOM     14  C   UNL     1      -0.019   1.526   0.010  0.00  0.00    +0.009 C 
ATOM     15  C   UNL     1       0.002  -0.004   0.002  0.00  0.00    +0.008 C 
ATOM     16  C   UNL     1       0.742  -0.511   1.242  0.00  0.00    +0.009 C 
ENDBRANCH   6  15
ENDBRANCH   2   6
ENDBRANCH   1   3
BRANCH   1  17
ATOM     17  S   UNL     1      -4.128   3.317  -2.050  0.00  0.00    -0.077 S 
BRANCH  17  18
ATOM     18  C   UNL     1      -4.939   3.756  -3.552  0.00  0.00    +0.187 A 
ATOM     19  N   UNL     1      -5.011   3.009  -4.628  0.00  0.00    -0.221 NA
ATOM     20  C   UNL     1      -5.711   3.671  -5.582  0.00  0.00    +0.092 A 
ATOM     21  C   UNL     1      -6.083   4.871  -5.070  0.00  0.00    +0.138 A 
ATOM     22  N   UNL     1      -5.600   4.923  -3.785  0.00  0.00    -0.251 N 
BRANCH  20  23
ATOM     23  C   UNL     1      -6.016   3.172  -6.945  0.00  0.00    +0.002 A 
ATOM     24  C   UNL     1      -6.745   3.962  -7.833  0.00  0.00    +0.010 A 
ATOM     25  C   UNL     1      -7.025   3.492  -9.100  0.00  0.00    +0.001 A 
ATOM     26  C   UNL     1      -6.586   2.240  -9.489  0.00  0.00    +0.000 A 
ATOM     27  C   UNL     1      -5.863   1.451  -8.612  0.00  0.00    +0.001 A 
ATOM     28  C   UNL     1      -5.571   1.913  -7.345  0.00  0.00    +0.010 A 
ENDBRANCH  20  23
BRANCH  22  29
ATOM     29  N   UNL     1      -5.752   5.957  -2.905  0.00  0.00    -0.296 N 
ATOM     30  H   UNL     1      -4.995   6.618  -2.990  0.00  0.00    +0.163 HD
ATOM     31  H   UNL     1      -6.644   6.410  -3.031  0.00  0.00    +0.163 HD
ENDBRANCH  22  29
ENDBRANCH  17  18
ENDBRANCH   1  17
TORSDOF 8
