REMARK  Name = ZINC16649502
REMARK  16 active torsions:
REMARK  status: ('A' for Active; 'I' for Inactive)
REMARK    1  A    between atoms: C_1  and  C_2
REMARK    2  A    between atoms: C_2  and  C_3
REMARK    3  A    between atoms: C_3  and  C_4
REMARK    4  A    between atoms: C_4  and  N_5
REMARK    5  A    between atoms: N_8  and  C_9
REMARK    6  A    between atoms: N_8  and  C_13
REMARK    7  A    between atoms: C_9  and  C_10
REMARK    8  A    between atoms: C_10  and  O_11
REMARK    9  A    between atoms: O_11  and  C_12
REMARK   10  A    between atoms: C_13  and  C_14
REMARK   11  A    between atoms: N_16  and  C_17
REMARK   12  A    between atoms: N_16  and  C_29
REMARK   13  A    between atoms: C_17  and  C_18
REMARK   14  A    between atoms: C_18  and  C_19
REMARK   15  A    between atoms: C_29  and  C_30
REMARK   16  A    between atoms: C_33  and  C_36
REMARK                            x       y       z     vdW  Elec       q    Type
REMARK                         _______ _______ _______ _____ _____    ______ ____
ROOT
ATOM      1  C   UNL     1      -3.891  -1.634  -1.153  0.00  0.00    +0.233 C 
ATOM      2  O   UNL     1      -4.155  -0.452  -1.106  0.00  0.00    -0.274 OA
ATOM      3  N   UNL     1      -2.610  -2.042  -1.062  0.00  0.00    -0.296 N 
ENDROOT
BRANCH   1   4
ATOM      4  C   UNL     1      -4.995  -2.647  -1.313  0.00  0.00    +0.205 C 
BRANCH   4   8
ATOM      5  N   UNL     1      -8.067  -0.876  -2.285  0.00  0.00    -0.299 N 
ATOM      6  C   UNL     1      -6.873  -1.497  -2.356  0.00  0.00    +0.303 C 
ATOM      7  O   UNL     1      -6.319  -1.629  -3.430  0.00  0.00    -0.253 OA
ATOM      8  N   UNL     1      -6.293  -1.972  -1.236  0.00  0.00    -0.275 N 
ATOM      9  H   UNL     1      -8.508  -0.770  -1.428  0.00  0.00    +0.150 HD
BRANCH   5  10
ATOM     10  C   UNL     1      -8.697  -0.360  -3.502  0.00  0.00    +0.106 C 
BRANCH  10  11
ATOM     11  C   UNL     1     -10.034   0.295  -3.146  0.00  0.00    +0.018 C 
BRANCH  11  13
ATOM     12  C   UNL     1     -12.029   1.488  -4.062  0.00  0.00    +0.004 C 
ATOM     13  C   UNL     1     -10.693   0.834  -4.418  0.00  0.00    -0.002 C 
ENDBRANCH  11  13
ENDBRANCH  10  11
ENDBRANCH   5  10
BRANCH   8  14
ATOM     14  C   UNL     1      -6.960  -1.813   0.059  0.00  0.00    +0.138 C 
BRANCH  14  15
ATOM     15  C   UNL     1      -6.523  -0.493   0.699  0.00  0.00    +0.178 C 
BRANCH  15  16
ATOM     16  O   UNL     1      -6.982   0.599  -0.100  0.00  0.00    -0.381 OA
ATOM     17  C   UNL     1      -6.625   1.884   0.412  0.00  0.00    +0.194 C 
ENDBRANCH  15  16
ENDBRANCH  14  15
ENDBRANCH   8  14
ENDBRANCH   4   8
ENDBRANCH   1   4
BRANCH   3  18
ATOM     18  C   UNL     1      -1.528  -1.055  -1.021  0.00  0.00    +0.113 C 
BRANCH  18  19
ATOM     19  C   UNL     1      -1.241  -0.673   0.432  0.00  0.00    +0.056 C 
BRANCH  19  20
ATOM     20  C   UNL     1      -0.128   0.342   0.474  0.00  0.00    -0.021 A 
ATOM     21  C   UNL     1       1.178   0.088   0.657  0.00  0.00    +0.087 A 
ATOM     22  N   UNL     1       1.887   1.258   0.637  0.00  0.00    -0.360 N 
ATOM     23  H   UNL     1       2.848   1.329   0.749  0.00  0.00    +0.165 HD
ATOM     24  C   UNL     1       1.034   2.320   0.435  0.00  0.00    +0.047 A 
ATOM     25  C   UNL     1      -0.266   1.792   0.324  0.00  0.00    +0.003 A 
ATOM     26  C   UNL     1      -1.349   2.648   0.118  0.00  0.00    +0.010 A 
ATOM     27  C   UNL     1      -1.140   3.995   0.016  0.00  0.00    +0.001 A 
ATOM     28  C   UNL     1       0.140   4.520   0.124  0.00  0.00    +0.002 A 
ATOM     29  C   UNL     1       1.223   3.694   0.332  0.00  0.00    +0.026 A 
ENDBRANCH  19  20
ENDBRANCH  18  19
ENDBRANCH   3  18
BRANCH   3  30
ATOM     30  C   UNL     1      -2.299  -3.473  -1.005  0.00  0.00    +0.143 C 
BRANCH  30  31
ATOM     31  C   UNL     1      -1.987  -3.975  -2.391  0.00  0.00    -0.030 A 
ATOM     32  C   UNL     1      -2.971  -4.592  -3.141  0.00  0.00    +0.006 A 
ATOM     33  C   UNL     1      -2.686  -5.049  -4.414  0.00  0.00    +0.013 A 
ATOM     34  C   UNL     1      -1.414  -4.897  -4.934  0.00  0.00    +0.055 A 
ATOM     35  C   UNL     1      -0.429  -4.285  -4.183  0.00  0.00    +0.013 A 
ATOM     36  C   UNL     1      -0.715  -3.824  -2.911  0.00  0.00    +0.006 A 
BRANCH  34  37
ATOM     37  C   UNL     1      -1.102  -5.400  -6.320  0.00  0.00    +0.417 C 
ATOM     38  F   UNL     1      -0.660  -6.725  -6.247  0.00  0.00    -0.166 F 
ATOM     39  F   UNL     1      -2.255  -5.335  -7.110  0.00  0.00    -0.166 F 
ATOM     40  F   UNL     1      -0.101  -4.605  -6.890  0.00  0.00    -0.166 F 
ENDBRANCH  34  37
ENDBRANCH  30  31
ENDBRANCH   3  30
TORSDOF 14
