REMARK  Name = ZINC10476072
REMARK  4 active torsions:
REMARK  status: ('A' for Active; 'I' for Inactive)
REMARK    1  A    between atoms: C_6  and  C_7
REMARK    2  A    between atoms: N_9  and  N_10
REMARK    3  A    between atoms: C_11  and  C_12
REMARK    4  A    between atoms: C_14  and  N_18
REMARK                            x       y       z     vdW  Elec       q    Type
REMARK                         _______ _______ _______ _____ _____    ______ ____
ROOT
ATOM      1  N   UNL     1       1.193   1.683  -0.000  0.00  0.00    -0.187 NA
ATOM      2  C   UNL     1       2.325   1.049  -0.015  0.00  0.00    +0.142 C 
ENDROOT
BRANCH   2   3
ATOM      3  C   UNL     1       3.592   1.803  -0.023  0.00  0.00    +0.043 A 
ATOM      4  C   UNL     1       4.813   1.125  -0.032  0.00  0.00    +0.046 A 
ATOM      5  C   UNL     1       5.994   1.837  -0.045  0.00  0.00    +0.127 A 
ATOM      6  C   UNL     1       5.975   3.221  -0.037  0.00  0.00    +0.036 A 
ATOM      7  C   UNL     1       4.773   3.904  -0.022  0.00  0.00    +0.054 A 
ATOM      8  C   UNL     1       3.577   3.205  -0.015  0.00  0.00    +0.188 A 
ATOM      9  O   UNL     1       2.396   3.874   0.000  0.00  0.00    -0.287 OA
BRANCH   5  10
ATOM     10  N   UNL     1       7.288   1.118  -0.061  0.00  0.00    +0.056 N 
ATOM     11  O   UNL     1       8.332   1.744  -0.067  0.00  0.00    -0.126 OA
ATOM     12  O   UNL     1       7.307  -0.100  -0.068  0.00  0.00    -0.126 OA
ENDBRANCH   5  10
ENDBRANCH   2   3
BRANCH   1  15
ATOM     13  C   UNL     1      -1.187   1.624   0.017  0.00  0.00    +0.263 C 
ATOM     14  O   UNL     1      -1.204   2.840   0.023  0.00  0.00    -0.268 OA
ATOM     15  N   UNL     1      -0.011   0.966   0.007  0.00  0.00    -0.203 N 
ATOM     16  H   UNL     1       0.002  -0.004   0.002  0.00  0.00    +0.178 HD
BRANCH  13  22
ATOM     17  C   UNL     1      -2.441  -0.528   0.005  0.00  0.00    +0.014 A 
ATOM     18  C   UNL     1      -3.630  -1.228   0.013  0.00  0.00    +0.015 A 
ATOM     19  C   UNL     1      -4.836  -0.549   0.022  0.00  0.00    +0.013 A 
ATOM     20  C   UNL     1      -4.858   0.835   0.030  0.00  0.00    +0.015 A 
ATOM     21  C   UNL     1      -3.677   1.546   0.028  0.00  0.00    +0.014 A 
ATOM     22  C   UNL     1      -2.457   0.868   0.018  0.00  0.00    +0.038 A 
ATOM     23  I   UNL     1      -6.636  -1.622   0.026  0.00  0.00    -0.044 I 
ENDBRANCH  13  22
ENDBRANCH   1  15
TORSDOF 4
