REMARK  Name = ZINC44998817
REMARK  10 active torsions:
REMARK  status: ('A' for Active; 'I' for Inactive)
REMARK    1  A    between atoms: C_1  and  C_2
REMARK    2  A    between atoms: C_2  and  C_3
REMARK    3  A    between atoms: C_2  and  S_4
REMARK    4  A    between atoms: S_4  and  C_5
REMARK    5  A    between atoms: C_5  and  C_7
REMARK    6  A    between atoms: C_5  and  N_27
REMARK    7  A    between atoms: N_12  and  C_15
REMARK    8  A    between atoms: C_28  and  O_30
REMARK    9  A    between atoms: O_30  and  C_31
REMARK   10  A    between atoms: C_31  and  C_32
REMARK                            x       y       z     vdW  Elec       q    Type
REMARK                         _______ _______ _______ _____ _____    ______ ____
ROOT
ATOM      1  C   UNL     1       3.057  -1.352  -0.196  0.00  0.00    +0.246 C 
ATOM      2  O   UNL     1       2.259  -2.107   0.320  0.00  0.00    -0.273 OA
ATOM      3  N   UNL     1       4.371  -1.469   0.080  0.00  0.00    -0.296 N 
ATOM      4  C   UNL     1       5.347  -0.557  -0.532  0.00  0.00    +0.126 C 
ATOM      5  C   UNL     1       6.160   0.112   0.584  0.00  0.00    +0.124 C 
ATOM      6  N   UNL     1       6.641  -0.929   1.503  0.00  0.00    -0.327 N 
ATOM      7  C   UNL     1       5.665  -1.840   2.115  0.00  0.00    +0.124 C 
ATOM      8  C   UNL     1       4.852  -2.506   1.004  0.00  0.00    +0.126 C 
ENDROOT
BRANCH   6   9
ATOM      9  C   UNL     1       8.005  -1.050   1.790  0.00  0.00    +0.032 A 
ATOM     10  C   UNL     1       8.903  -0.106   1.303  0.00  0.00    +0.025 A 
ATOM     11  C   UNL     1      10.250  -0.220   1.583  0.00  0.00    +0.029 A 
ATOM     12  C   UNL     1      10.710  -1.278   2.351  0.00  0.00    +0.067 A 
ATOM     13  C   UNL     1       9.812  -2.228   2.841  0.00  0.00    +0.069 A 
ATOM     14  C   UNL     1       8.459  -2.108   2.563  0.00  0.00    +0.051 A 
ATOM     15  N   UNL     1      10.559  -3.154   3.566  0.00  0.00    -0.306 N 
ATOM     16  H   UNL     1      10.206  -3.932   4.025  0.00  0.00    +0.170 HD
ATOM     17  C   UNL     1      11.853  -2.786   3.519  0.00  0.00    +0.325 A 
ATOM     18  O   UNL     1      12.770  -3.381   4.053  0.00  0.00    -0.247 OA
ATOM     19  N   UNL     1      11.978  -1.658   2.794  0.00  0.00    -0.306 N 
ATOM     20  H   UNL     1      12.807  -1.190   2.611  0.00  0.00    +0.170 HD
ENDBRANCH   6   9
BRANCH   1  21
ATOM     21  C   UNL     1       2.578  -0.284  -1.145  0.00  0.00    +0.221 C 
BRANCH  21  22
ATOM     22  N   UNL     1       2.732   1.031  -0.517  0.00  0.00    -0.261 N 
ATOM     23  C   UNL     1       3.237   2.061  -1.226  0.00  0.00    +0.402 C 
ATOM     24  O   UNL     1       3.564   1.898  -2.385  0.00  0.00    -0.226 OA
ATOM     25  H   UNL     1       2.471   1.161   0.408  0.00  0.00    +0.154 HD
BRANCH  23  26
ATOM     26  O   UNL     1       3.379   3.269  -0.649  0.00  0.00    -0.446 OA
BRANCH  26  27
ATOM     27  C   UNL     1       3.920   4.315  -1.459  0.00  0.00    +0.269 C 
BRANCH  27  28
ATOM     28  C   UNL     1       4.004   5.584  -0.651  0.00  0.00    -0.010 A 
ATOM     29  C   UNL     1       2.936   6.461  -0.629  0.00  0.00    +0.007 A 
ATOM     30  C   UNL     1       3.013   7.626   0.113  0.00  0.00    +0.000 A 
ATOM     31  C   UNL     1       4.158   7.912   0.833  0.00  0.00    +0.000 A 
ATOM     32  C   UNL     1       5.225   7.034   0.812  0.00  0.00    +0.000 A 
ATOM     33  C   UNL     1       5.147   5.868   0.074  0.00  0.00    +0.007 A 
ENDBRANCH  27  28
ENDBRANCH  26  27
ENDBRANCH  23  26
ENDBRANCH  21  22
BRANCH  21  34
ATOM     34  S   UNL     1       0.830  -0.564  -1.539  0.00  0.00    -0.126 S 
BRANCH  34  36
ATOM     35  C   UNL     1      -1.566   0.208  -0.470  0.00  0.00    +0.019 C 
ATOM     36  C   UNL     1      -0.062   0.268  -0.197  0.00  0.00    +0.043 C 
ATOM     37  C   UNL     1       0.244  -0.431   1.129  0.00  0.00    +0.019 C 
ENDBRANCH  34  36
ENDBRANCH  21  34
ENDBRANCH   1  21
TORSDOF 8
