REMARK  Name = ZINC13254191
REMARK  9 active torsions:
REMARK  status: ('A' for Active; 'I' for Inactive)
REMARK    1  A    between atoms: C_1  and  C_2
REMARK    2  A    between atoms: C_5  and  N_9
REMARK    3  A    between atoms: C_6  and  C_8
REMARK    4  A    between atoms: N_9  and  S_10
REMARK    5  A    between atoms: S_10  and  C_13
REMARK    6  A    between atoms: C_15  and  N_20
REMARK    7  A    between atoms: C_18  and  C_19
REMARK    8  A    between atoms: C_21  and  C_23
REMARK    9  A    between atoms: C_29  and  C_31
REMARK                            x       y       z     vdW  Elec       q    Type
REMARK                         _______ _______ _______ _____ _____    ______ ____
ROOT
ATOM      1  C   UNL     1       1.145   3.298  -0.170  0.00  0.00    +0.113 A 
ATOM      2  C   UNL     1      -0.038   4.010  -0.133  0.00  0.00    +0.052 A 
ATOM      3  C   UNL     1      -1.252   3.340  -0.197  0.00  0.00    +0.035 A 
ATOM      4  C   UNL     1      -1.273   1.955  -0.303  0.00  0.00    +0.023 A 
ATOM      5  C   UNL     1      -0.087   1.249  -0.335  0.00  0.00    +0.007 A 
ATOM      6  C   UNL     1       1.121   1.919  -0.271  0.00  0.00    -0.024 A 
ATOM      7  C   UNL     1       2.413   1.146  -0.311  0.00  0.00    +0.046 C 
ENDROOT
BRANCH   3   8
ATOM      8  N   UNL     1      -2.452   4.058  -0.160  0.00  0.00    -0.285 N 
ATOM      9  C   UNL     1      -3.547   3.512   0.406  0.00  0.00    +0.221 C 
ATOM     10  O   UNL     1      -3.469   2.440   0.967  0.00  0.00    -0.275 OA
ATOM     11  H   UNL     1      -2.496   4.949  -0.540  0.00  0.00    +0.155 HD
BRANCH   9  12
ATOM     12  C   UNL     1      -4.869   4.234   0.341  0.00  0.00    +0.093 C 
ATOM     13  C   UNL     1      -5.278   4.427  -1.121  0.00  0.00    +0.040 C 
ATOM     14  C   UNL     1      -6.702   4.896  -1.201  0.00  0.00    -0.030 C 
ATOM     15  C   UNL     1      -7.551   4.809  -0.227  0.00  0.00    -0.030 C 
ATOM     16  C   UNL     1      -7.229   4.233   1.120  0.00  0.00    +0.042 C 
ATOM     17  C   UNL     1      -5.947   3.401   1.045  0.00  0.00    +0.118 C 
BRANCH  17  18
ATOM     18  C   UNL     1      -5.487   3.051   2.437  0.00  0.00    +0.360 C 
ATOM     19  O   UNL     1      -4.409   3.427   2.830  0.00  0.00    -0.246 OA
ATOM     20  O   UNL     1      -6.277   2.321   3.240  0.00  0.00    -0.246 OA
ENDBRANCH  17  18
ENDBRANCH   9  12
ENDBRANCH   3   8
BRANCH   1  21
ATOM     21  S   UNL     1       2.687   4.148  -0.090  0.00  0.00    +0.073 S 
ATOM     22  O   UNL     1       3.477   3.658  -1.164  0.00  0.00    -0.150 OA
ATOM     23  O   UNL     1       2.383   5.527   0.066  0.00  0.00    -0.150 OA
BRANCH  21  24
ATOM     24  N   UNL     1       3.437   3.669   1.307  0.00  0.00    -0.216 N 
ATOM     25  H   UNL     1       4.240   3.126   1.264  0.00  0.00    +0.174 HD
BRANCH  24  30
ATOM     26  C   UNL     1       1.316   5.207   6.336  0.00  0.00    +0.044 C 
ATOM     27  C   UNL     1       1.879   4.797   5.000  0.00  0.00    -0.050 A 
ATOM     28  C   UNL     1       1.026   4.511   3.949  0.00  0.00    +0.005 A 
ATOM     29  C   UNL     1       1.540   4.141   2.722  0.00  0.00    +0.025 A 
ATOM     30  C   UNL     1       2.915   4.047   2.546  0.00  0.00    +0.051 A 
ATOM     31  C   UNL     1       3.768   4.335   3.603  0.00  0.00    -0.028 A 
ATOM     32  C   UNL     1       3.248   4.709   4.826  0.00  0.00    +0.008 A 
ATOM     33  C   UNL     1       5.261   4.240   3.414  0.00  0.00    +0.046 C 
ENDBRANCH  24  30
ENDBRANCH  21  24
ENDBRANCH   1  21
TORSDOF 6
