REMARK  Name = ZINC25671379
REMARK  14 active torsions:
REMARK  status: ('A' for Active; 'I' for Inactive)
REMARK    1  A    between atoms: C_1  and  C_2
REMARK    2  A    between atoms: C_2  and  O_3
REMARK    3  A    between atoms: O_3  and  C_4
REMARK    4  A    between atoms: C_4  and  C_6
REMARK    5  A    between atoms: C_7  and  C_20
REMARK    6  A    between atoms: C_12  and  C_14
REMARK    7  A    between atoms: C_17  and  C_19
REMARK    8  A    between atoms: C_20  and  S_21
REMARK    9  A    between atoms: S_21  and  C_22
REMARK   10  A    between atoms: C_25  and  C_27
REMARK   11  A    between atoms: C_30  and  C_33
REMARK   12  A    between atoms: C_33  and  C_34
REMARK   13  A    between atoms: C_33  and  C_35
REMARK   14  A    between atoms: C_33  and  C_36
REMARK                            x       y       z     vdW  Elec       q    Type
REMARK                         _______ _______ _______ _____ _____    ______ ____
ROOT
ATOM      1  C   UNL     1       1.030   2.081   0.370  0.00  0.00    +0.082 C 
ATOM      2  C   UNL     1      -0.139   1.507   0.012  0.00  0.00    +0.034 C 
ATOM      3  N   UNL     1      -1.218   2.265  -0.340  0.00  0.00    -0.272 N 
ATOM      4  C   UNL     1      -1.209   3.604  -0.363  0.00  0.00    +0.304 C 
ATOM      5  O   UNL     1      -2.221   4.193  -0.689  0.00  0.00    -0.252 OA
ATOM      6  N   UNL     1      -0.115   4.319  -0.036  0.00  0.00    -0.285 N 
ATOM      7  C   UNL     1       1.105   3.594   0.358  0.00  0.00    +0.179 C 
ATOM      8  H   UNL     1      -2.163   1.779  -0.624  0.00  0.00    +0.156 HD
ATOM      9  H   UNL     1      -0.118   5.419  -0.059  0.00  0.00    +0.151 HD
ENDROOT
BRANCH   7  10
ATOM     10  C   UNL     1       2.211   4.002  -0.580  0.00  0.00    +0.130 A 
ATOM     11  C   UNL     1       3.490   4.234  -0.235  0.00  0.00    +0.047 A 
ATOM     12  C   UNL     1       4.177   4.587  -1.419  0.00  0.00    +0.045 A 
ATOM     13  C   UNL     1       3.276   4.550  -2.417  0.00  0.00    +0.102 A 
ATOM     14  O   UNL     1       2.089   4.189  -1.905  0.00  0.00    -0.463 OA
ATOM     15  C   UNL     1       3.555   4.854  -3.867  0.00  0.00    +0.086 C 
ENDBRANCH   7  10
BRANCH   1  16
ATOM     16  C   UNL     1       2.147   1.296   0.740  0.00  0.00    +0.339 C 
ATOM     17  O   UNL     1       2.115   0.088   0.601  0.00  0.00    -0.245 OA
BRANCH  16  18
ATOM     18  O   UNL     1       3.249   1.888   1.247  0.00  0.00    -0.462 OA
BRANCH  18  20
ATOM     19  C   UNL     1       5.490   1.879   2.151  0.00  0.00    +0.048 C 
ATOM     20  C   UNL     1       4.340   1.035   1.599  0.00  0.00    +0.229 C 
ENDBRANCH  18  20
ENDBRANCH  16  18
ENDBRANCH   1  16
BRANCH   2  21
ATOM     21  C   UNL     1      -0.255   0.004   0.005  0.00  0.00    +0.130 C 
BRANCH  21  22
ATOM     22  S   UNL     1      -0.058  -0.609  -1.687  0.00  0.00    -0.060 S 
BRANCH  22  23
ATOM     23  C   UNL     1      -0.233  -2.340  -1.407  0.00  0.00    +0.278 A 
ATOM     24  N   UNL     1      -0.440  -2.923  -0.249  0.00  0.00    -0.101 NA
ATOM     25  N   UNL     1      -0.520  -4.196  -0.419  0.00  0.00    -0.106 NA
ATOM     26  C   UNL     1      -0.359  -4.477  -1.689  0.00  0.00    +0.249 A 
ATOM     27  O   UNL     1      -0.173  -3.308  -2.342  0.00  0.00    -0.411 OA
BRANCH  26  28
ATOM     28  C   UNL     1      -0.377  -5.824  -2.296  0.00  0.00    +0.039 A 
ATOM     29  C   UNL     1      -0.196  -5.975  -3.672  0.00  0.00    +0.013 A 
ATOM     30  C   UNL     1      -0.209  -7.236  -4.232  0.00  0.00    +0.005 A 
ATOM     31  C   UNL     1      -0.411  -8.348  -3.434  0.00  0.00    -0.042 A 
ATOM     32  C   UNL     1      -0.596  -8.205  -2.070  0.00  0.00    +0.005 A 
ATOM     33  C   UNL     1      -0.580  -6.950  -1.497  0.00  0.00    +0.013 A 
BRANCH  31  34
ATOM     34  C   UNL     1      -0.430  -9.722  -4.053  0.00  0.00    -0.013 C 
ATOM     35  C   UNL     1      -1.785 -10.381  -3.790  0.00  0.00    +0.015 C 
ATOM     36  C   UNL     1      -0.203  -9.605  -5.561  0.00  0.00    +0.015 C 
ATOM     37  C   UNL     1       0.680 -10.575  -3.435  0.00  0.00    +0.015 C 
ENDBRANCH  31  34
ENDBRANCH  26  28
ENDBRANCH  22  23
ENDBRANCH  21  22
ENDBRANCH   2  21
TORSDOF 9
