REMARK  Name = ZINC27981316
REMARK  4 active torsions:
REMARK  status: ('A' for Active; 'I' for Inactive)
REMARK    1  A    between atoms: C_1  and  C_2
REMARK    2  A    between atoms: C_12  and  C_14
REMARK    3  A    between atoms: C_17  and  C_19
REMARK    4  A    between atoms: C_19  and  N_20
REMARK                            x       y       z     vdW  Elec       q    Type
REMARK                         _______ _______ _______ _____ _____    ______ ____
ROOT
ATOM      1  C   UNL     1      -3.613   1.767   7.576  0.00  0.00    +0.029 C 
ATOM      2  C   UNL     1      -4.098   0.639   6.663  0.00  0.00    +0.083 C 
ATOM      3  C   UNL     1      -3.241  -0.621   6.869  0.00  0.00    +0.059 C 
ATOM      4  C   UNL     1      -2.611  -0.877   5.518  0.00  0.00    -0.024 A 
ATOM      5  C   UNL     1      -1.746  -1.868   5.096  0.00  0.00    +0.005 A 
ATOM      6  C   UNL     1      -1.302  -1.890   3.787  0.00  0.00    +0.000 A 
ATOM      7  C   UNL     1      -1.726  -0.918   2.900  0.00  0.00    +0.002 A 
ATOM      8  C   UNL     1      -2.590   0.072   3.317  0.00  0.00    +0.024 A 
ATOM      9  C   UNL     1      -3.047   0.098   4.636  0.00  0.00    +0.040 A 
ATOM     10  N   UNL     1      -3.909   1.006   5.257  0.00  0.00    -0.262 N 
ATOM     11  C   UNL     1      -4.486   2.062   4.650  0.00  0.00    +0.286 C 
ATOM     12  O   UNL     1      -4.259   2.288   3.476  0.00  0.00    -0.266 OA
ENDROOT
BRANCH  11  13
ATOM     13  C   UNL     1      -5.387   2.939   5.404  0.00  0.00    +0.190 A 
ATOM     14  C   UNL     1      -5.899   4.129   4.970  0.00  0.00    +0.055 A 
ATOM     15  C   UNL     1      -6.709   4.621   6.005  0.00  0.00    +0.047 A 
ATOM     16  C   UNL     1      -6.650   3.726   7.016  0.00  0.00    +0.127 A 
ATOM     17  O   UNL     1      -5.855   2.713   6.649  0.00  0.00    -0.453 OA
BRANCH  16  18
ATOM     18  C   UNL     1      -7.366   3.846   8.337  0.00  0.00    +0.217 C 
BRANCH  18  19
ATOM     19  N   UNL     1      -8.688   3.222   8.235  0.00  0.00    -0.264 N 
ATOM     20  C   UNL     1      -9.171   2.250   9.036  0.00  0.00    +0.109 A 
ATOM     21  C   UNL     1     -10.422   1.953   8.616  0.00  0.00    +0.041 A 
ATOM     22  C   UNL     1     -10.712   2.768   7.516  0.00  0.00    +0.134 A 
ATOM     23  N   UNL     1      -9.672   3.527   7.285  0.00  0.00    -0.179 NA
ENDBRANCH  18  19
ENDBRANCH  16  18
ENDBRANCH  11  13
TORSDOF 3
