REMARK  Name = ZINC35777616
REMARK  16 active torsions:
REMARK  status: ('A' for Active; 'I' for Inactive)
REMARK    1  A    between atoms: C_1  and  C_2
REMARK    2  A    between atoms: C_2  and  C_3
REMARK    3  A    between atoms: C_4  and  C_22
REMARK    4  A    between atoms: C_5  and  O_15
REMARK    5  A    between atoms: N_6  and  C_8
REMARK    6  A    between atoms: O_15  and  C_16
REMARK    7  A    between atoms: C_22  and  N_23
REMARK    8  A    between atoms: N_23  and  C_24
REMARK    9  A    between atoms: N_23  and  C_30
REMARK   10  A    between atoms: C_24  and  C_25
REMARK   11  A    between atoms: C_30  and  C_31
REMARK   12  A    between atoms: C_31  and  C_33
REMARK   13  A    between atoms: C_31  and  O_38
REMARK   14  A    between atoms: C_33  and  O_34
REMARK   15  A    between atoms: O_34  and  C_35
REMARK   16  A    between atoms: C_35  and  C_36
REMARK                            x       y       z     vdW  Elec       q    Type
REMARK                         _______ _______ _______ _____ _____    ______ ____
ROOT
ATOM      1  C   UNL     1      -2.345  -0.783  -0.373  0.00  0.00    +0.068 A 
ATOM      2  C   UNL     1      -2.387  -0.875   1.021  0.00  0.00    +0.021 A 
ATOM      3  C   UNL     1      -3.531  -1.526   1.362  0.00  0.00    +0.225 A 
ATOM      4  N   UNL     1      -4.186  -1.832   0.210  0.00  0.00    -0.200 N 
ATOM      5  N   UNL     1      -3.420  -1.348  -0.859  0.00  0.00    -0.168 NA
ENDROOT
BRANCH   4   6
ATOM      6  C   UNL     1      -5.411  -2.507   0.110  0.00  0.00    +0.069 A 
ATOM      7  C   UNL     1      -5.649  -3.635   0.884  0.00  0.00    +0.031 A 
ATOM      8  C   UNL     1      -6.856  -4.298   0.784  0.00  0.00    +0.040 A 
ATOM      9  C   UNL     1      -7.830  -3.838  -0.087  0.00  0.00    +0.124 A 
ATOM     10  C   UNL     1      -7.594  -2.713  -0.860  0.00  0.00    +0.040 A 
ATOM     11  C   UNL     1      -6.390  -2.044  -0.758  0.00  0.00    +0.031 A 
ATOM     12  F   UNL     1      -9.010  -4.488  -0.184  0.00  0.00    -0.205 F 
ENDBRANCH   4   6
BRANCH   1  14
ATOM     13  C   UNL     1      -1.559   1.352  -1.360  0.00  0.00    +0.010 C 
ATOM     14  C   UNL     1      -1.249  -0.135  -1.180  0.00  0.00    +0.054 C 
ENDBRANCH   1  14
BRANCH   3  15
ATOM     15  O   UNL     1      -3.944  -1.818   2.622  0.00  0.00    -0.438 OA
BRANCH  15  16
ATOM     16  C   UNL     1      -3.466  -2.950   3.204  0.00  0.00    +0.130 A 
ATOM     17  C   UNL     1      -2.496  -3.705   2.561  0.00  0.00    +0.046 A 
ATOM     18  C   UNL     1      -2.012  -4.855   3.154  0.00  0.00    +0.004 A 
ATOM     19  C   UNL     1      -2.494  -5.253   4.388  0.00  0.00    +0.000 A 
ATOM     20  C   UNL     1      -3.461  -4.502   5.030  0.00  0.00    +0.004 A 
ATOM     21  C   UNL     1      -3.943  -3.348   4.444  0.00  0.00    +0.046 A 
ENDBRANCH  15  16
ENDBRANCH   3  15
BRANCH   2  22
ATOM     22  C   UNL     1      -1.348  -0.347   1.977  0.00  0.00    -0.035 C 
BRANCH  22  23
ATOM     23  N   UNL     1      -1.636   1.060   2.284  0.00  0.00    +0.389 N 
ATOM     24  H   UNL     1      -1.692   1.587   1.425  0.00  0.00    -0.081 HD
BRANCH  23  25
ATOM     25  C   UNL     1      -0.563   1.607   3.125  0.00  0.00    -0.003 C 
BRANCH  25  26
ATOM     26  C   UNL     1       0.741   1.559   2.371  0.00  0.00    +0.089 A 
ATOM     27  C   UNL     1       1.256   2.553   1.626  0.00  0.00    +0.042 A 
ATOM     28  C   UNL     1       2.482   2.080   1.105  0.00  0.00    +0.041 A 
ATOM     29  C   UNL     1       2.643   0.826   1.563  0.00  0.00    +0.195 A 
ATOM     30  O   UNL     1       1.588   0.517   2.334  0.00  0.00    -0.470 OA
ENDBRANCH  25  26
ENDBRANCH  23  25
BRANCH  23  31
ATOM     31  C   UNL     1      -2.916   1.154   3.000  0.00  0.00    -0.044 C 
BRANCH  31  32
ATOM     32  C   UNL     1      -3.308   2.624   3.152  0.00  0.00    +0.124 C 
BRANCH  32  33
ATOM     33  O   UNL     1      -2.401   3.269   4.049  0.00  0.00    -0.391 OA
ATOM     34  H   UNL     1      -2.385   2.885   4.936  0.00  0.00    +0.210 HD
ENDBRANCH  32  33
BRANCH  32  35
ATOM     35  C   UNL     1      -4.730   2.717   3.711  0.00  0.00    +0.190 C 
BRANCH  35  36
ATOM     36  O   UNL     1      -5.140   4.086   3.744  0.00  0.00    -0.365 OA
BRANCH  36  37
ATOM     37  C   UNL     1      -6.461   4.284   4.252  0.00  0.00    +0.248 C 
BRANCH  37  38
ATOM     38  C   UNL     1      -6.779   5.721   4.242  0.00  0.00    -0.077 C 
ATOM     39  C   UNL     1      -7.033   6.868   4.235  0.00  0.00    +0.006 C 
ENDBRANCH  37  38
ENDBRANCH  36  37
ENDBRANCH  35  36
ENDBRANCH  32  35
ENDBRANCH  31  32
ENDBRANCH  23  31
ENDBRANCH  22  23
ENDBRANCH   2  22
TORSDOF 15
