REMARK  Name = ZINC06178048
REMARK  9 active torsions:
REMARK  status: ('A' for Active; 'I' for Inactive)
REMARK    1  A    between atoms: C_1  and  C_2
REMARK    2  A    between atoms: C_4  and  C_40
REMARK    3  A    between atoms: C_9  and  C_14
REMARK    4  A    between atoms: C_14  and  C_16
REMARK    5  A    between atoms: C_14  and  N_76
REMARK    6  A    between atoms: N_20  and  C_21
REMARK    7  A    between atoms: N_29  and  C_32
REMARK    8  A    between atoms: C_35  and  O_38
REMARK    9  A    between atoms: O_38  and  C_39
REMARK                            x       y       z     vdW  Elec       q    Type
REMARK                         _______ _______ _______ _____ _____    ______ ____
ROOT
ATOM      1  C   UNL     1       1.817  -1.796  -0.025  0.00  0.00    +0.039 C 
ENDROOT
BRANCH   1  10
ATOM      2  C   UNL     1       1.497  -5.695  -6.375  0.00  0.00    +0.044 C 
ATOM      3  C   UNL     1       2.136  -4.637  -5.513  0.00  0.00    -0.050 A 
ATOM      4  C   UNL     1       3.236  -3.934  -5.988  0.00  0.00    +0.008 A 
ATOM      5  C   UNL     1       3.836  -2.962  -5.218  0.00  0.00    -0.026 A 
ATOM      6  C   UNL     1       3.337  -2.681  -3.950  0.00  0.00    +0.052 A 
ATOM      7  C   UNL     1       2.223  -3.396  -3.471  0.00  0.00    -0.001 A 
ATOM      8  C   UNL     1       1.630  -4.378  -4.271  0.00  0.00    +0.013 A 
ATOM      9  C   UNL     1       1.710  -3.097  -2.133  0.00  0.00    +0.017 A 
ATOM     10  C   UNL     1       2.323  -2.132  -1.405  0.00  0.00    +0.011 A 
ATOM     11  C   UNL     1       3.438  -1.444  -1.931  0.00  0.00    +0.251 A 
ATOM     12  O   UNL     1       3.977  -0.583  -1.258  0.00  0.00    -0.268 OA
ATOM     13  N   UNL     1       3.919  -1.715  -3.157  0.00  0.00    -0.322 N 
ATOM     14  H   UNL     1       4.687  -1.224  -3.488  0.00  0.00    +0.169 HD
ATOM     15  C   UNL     1       5.028  -2.207  -5.747  0.00  0.00    +0.046 C 
ENDBRANCH   1  10
BRANCH   1  21
ATOM     16  C   UNL     1       3.510  -3.263   0.894  0.00  0.00    -0.058 C 
ATOM     17  C   UNL     1       4.697  -3.327   1.857  0.00  0.00    +0.086 C 
ATOM     18  N   UNL     1       4.239  -3.007   3.217  0.00  0.00    -0.333 N 
ATOM     19  C   UNL     1       3.644  -1.664   3.266  0.00  0.00    +0.086 C 
ATOM     20  C   UNL     1       2.457  -1.600   2.302  0.00  0.00    -0.058 C 
ATOM     21  N   UNL     1       2.934  -1.903   0.936  0.00  0.00    +0.391 N 
ATOM     22  H   UNL     1       3.661  -1.224   0.680  0.00  0.00    -0.080 HD
BRANCH  18  23
ATOM     23  C   UNL     1       5.285  -3.126   4.139  0.00  0.00    +0.030 A 
ATOM     24  C   UNL     1       5.631  -2.046   4.940  0.00  0.00    +0.027 A 
ATOM     25  C   UNL     1       6.659  -2.166   5.854  0.00  0.00    +0.047 A 
ATOM     26  C   UNL     1       7.354  -3.361   5.964  0.00  0.00    +0.120 A 
ATOM     27  C   UNL     1       7.013  -4.439   5.160  0.00  0.00    +0.047 A 
ATOM     28  C   UNL     1       5.981  -4.322   4.250  0.00  0.00    +0.027 A 
BRANCH  26  29
ATOM     29  O   UNL     1       8.371  -3.476   6.860  0.00  0.00    -0.495 OA
ATOM     30  C   UNL     1       8.668  -2.327   7.655  0.00  0.00    +0.277 C 
ENDBRANCH  26  29
ENDBRANCH  18  23
ENDBRANCH   1  21
BRANCH   1  31
ATOM     31  C   UNL     1       1.294  -0.383  -0.012  0.00  0.00    +0.143 A 
ATOM     32  N   UNL     1       2.008   0.716  -0.013  0.00  0.00    -0.115 NA
ATOM     33  N   UNL     1       1.197   1.718  -0.000  0.00  0.00    -0.023 NA
ATOM     34  N   UNL     1      -0.015   1.286   0.009  0.00  0.00    -0.044 NA
ATOM     35  N   UNL     1       0.002  -0.004   0.002  0.00  0.00    -0.227 N 
BRANCH  35  36
ATOM     36  C   UNL     1      -1.165  -0.890   0.008  0.00  0.00    +0.111 C 
ATOM     37  C   UNL     1      -2.019  -0.617  -1.231  0.00  0.00    +0.027 C 
ATOM     38  C   UNL     1      -3.237  -1.543  -1.224  0.00  0.00    +0.002 C 
ATOM     39  C   UNL     1      -4.068  -1.284   0.035  0.00  0.00    +0.000 C 
ATOM     40  C   UNL     1      -3.213  -1.557   1.274  0.00  0.00    +0.002 C 
ATOM     41  C   UNL     1      -1.995  -0.631   1.267  0.00  0.00    +0.027 C 
ENDBRANCH  35  36
ENDBRANCH   1  31
TORSDOF 6
