REMARK  Name = ZINC34829766
REMARK  10 active torsions:
REMARK  status: ('A' for Active; 'I' for Inactive)
REMARK    1  A    between atoms: C_1  and  C_2
REMARK    2  A    between atoms: C_5  and  C_8
REMARK    3  A    between atoms: N_17  and  C_18
REMARK    4  A    between atoms: C_18  and  C_19
REMARK    5  A    between atoms: C_25  and  C_28
REMARK    6  A    between atoms: C_29  and  C_31
REMARK    7  A    between atoms: C_32  and  O_39
REMARK    8  A    between atoms: C_36  and  O_37
REMARK    9  A    between atoms: O_37  and  C_38
REMARK   10  A    between atoms: O_39  and  C_40
REMARK                            x       y       z     vdW  Elec       q    Type
REMARK                         _______ _______ _______ _____ _____    ______ ____
ROOT
ATOM      1  C   UNL     1       3.234  -4.727   1.877  0.00  0.00    +0.199 C 
ATOM      2  O   UNL     1       2.779  -5.302   2.843  0.00  0.00    -0.278 OA
ATOM      3  N   UNL     1       4.549  -4.437   1.823  0.00  0.00    -0.300 N 
ATOM      4  C   UNL     1       5.114  -3.736   0.662  0.00  0.00    +0.126 C 
ATOM      5  C   UNL     1       6.263  -4.577   0.093  0.00  0.00    +0.127 C 
ATOM      6  N   UNL     1       7.158  -4.956   1.195  0.00  0.00    -0.292 N 
ATOM      7  C   UNL     1       6.594  -5.657   2.357  0.00  0.00    +0.091 C 
ATOM      8  C   UNL     1       5.443  -4.811   2.928  0.00  0.00    +0.130 C 
ATOM      9  C   UNL     1       6.067  -7.027   1.924  0.00  0.00    +0.029 C 
ATOM     10  C   UNL     1       8.473  -4.666   1.141  0.00  0.00    +0.254 C 
ATOM     11  O   UNL     1       9.204  -4.984   2.060  0.00  0.00    -0.270 OA
ENDROOT
BRANCH  10  12
ATOM     12  C   UNL     1       9.025  -3.963  -0.029  0.00  0.00    +0.120 A 
ATOM     13  C   UNL     1       9.082  -2.562  -0.050  0.00  0.00    +0.136 A 
ATOM     14  C   UNL     1       9.604  -1.911  -1.156  0.00  0.00    +0.046 A 
ATOM     15  C   UNL     1      10.067  -2.638  -2.237  0.00  0.00    +0.007 A 
ATOM     16  C   UNL     1      10.015  -4.019  -2.227  0.00  0.00    +0.046 A 
ATOM     17  C   UNL     1       9.502  -4.691  -1.129  0.00  0.00    +0.136 A 
BRANCH  17  18
ATOM     18  O   UNL     1       9.458  -6.046  -1.120  0.00  0.00    -0.494 OA
ATOM     19  C   UNL     1       9.962  -6.720  -2.275  0.00  0.00    +0.277 C 
ENDBRANCH  17  18
BRANCH  13  20
ATOM     20  O   UNL     1       8.628  -1.847   1.010  0.00  0.00    -0.494 OA
ATOM     21  C   UNL     1       8.718  -0.423   0.918  0.00  0.00    +0.277 C 
ENDBRANCH  13  20
ENDBRANCH  10  12
BRANCH   1  22
ATOM     22  C   UNL     1       2.329  -4.338   0.737  0.00  0.00    +0.020 C 
BRANCH  22  31
ATOM     23  C   UNL     1       0.059  -4.275  -0.021  0.00  0.00    -0.005 C 
ATOM     24  C   UNL     1      -1.346  -4.806   0.240  0.00  0.00    -0.047 A 
ATOM     25  C   UNL     1      -2.502  -4.255  -0.307  0.00  0.00    +0.010 A 
ATOM     26  C   UNL     1      -3.711  -4.792  -0.017  0.00  0.00    +0.045 A 
ATOM     27  S   UNL     1      -3.266  -6.138   1.072  0.00  0.00    -0.101 S 
ATOM     28  C   UNL     1      -1.514  -5.885   1.056  0.00  0.00    -0.010 A 
ATOM     29  C   UNL     1      -0.434  -6.647   1.752  0.00  0.00    +0.024 C 
ATOM     30  C   UNL     1       0.907  -6.228   1.125  0.00  0.00    -0.072 C 
ATOM     31  N   UNL     1       0.955  -4.762   1.035  0.00  0.00    +0.393 N 
ATOM     32  H   UNL     1       0.671  -4.367   1.919  0.00  0.00    -0.080 HD
BRANCH  23  37
ATOM     33  C   UNL     1      -0.018   1.503   0.010  0.00  0.00    +0.044 C 
ATOM     34  C   UNL     1       0.002  -0.004   0.002  0.00  0.00    -0.050 A 
ATOM     35  C   UNL     1       0.006  -0.689  -1.199  0.00  0.00    +0.003 A 
ATOM     36  C   UNL     1       0.025  -2.071  -1.206  0.00  0.00    +0.002 A 
ATOM     37  C   UNL     1       0.040  -2.768  -0.013  0.00  0.00    -0.057 A 
ATOM     38  C   UNL     1       0.037  -2.084   1.188  0.00  0.00    +0.002 A 
ATOM     39  C   UNL     1       0.023  -0.702   1.195  0.00  0.00    +0.003 A 
ENDBRANCH  23  37
ENDBRANCH  22  31
ENDBRANCH   1  22
TORSDOF 6
