REMARK  Name = ZINC33269177
REMARK  10 active torsions:
REMARK  status: ('A' for Active; 'I' for Inactive)
REMARK    1  A    between atoms: C_1  and  C_2
REMARK    2  A    between atoms: C_2  and  C_3
REMARK    3  A    between atoms: C_3  and  N_4
REMARK    4  A    between atoms: C_5  and  C_7
REMARK    5  A    between atoms: C_14  and  S_25
REMARK    6  A    between atoms: N_15  and  C_18
REMARK    7  A    between atoms: C_18  and  C_19
REMARK    8  A    between atoms: S_25  and  C_26
REMARK    9  A    between atoms: C_26  and  C_27
REMARK   10  A    between atoms: C_31  and  C_33
REMARK                            x       y       z     vdW  Elec       q    Type
REMARK                         _______ _______ _______ _____ _____    ______ ____
ROOT
ATOM      1  C   UNL     1      -6.151   1.349   0.069  0.00  0.00    +0.039 A 
ATOM      2  C   UNL     1      -6.647   0.040   0.066  0.00  0.00    +0.014 A 
ATOM      3  C   UNL     1      -5.795  -1.027   0.051  0.00  0.00    +0.016 A 
ATOM      4  C   UNL     1      -4.417  -0.815   0.040  0.00  0.00    +0.065 A 
ATOM      5  C   UNL     1      -3.899   0.500   0.042  0.00  0.00    +0.080 A 
ATOM      6  C   UNL     1      -4.782   1.584   0.057  0.00  0.00    +0.041 A 
ATOM      7  N   UNL     1      -2.558   0.681   0.030  0.00  0.00    -0.223 NA
ATOM      8  C   UNL     1      -1.729  -0.334   0.017  0.00  0.00    +0.173 A 
ATOM      9  N   UNL     1      -2.144  -1.635   0.008  0.00  0.00    -0.285 N 
ATOM     10  C   UNL     1      -3.463  -1.935   0.025  0.00  0.00    +0.262 A 
ATOM     11  O   UNL     1      -3.846  -3.090   0.022  0.00  0.00    -0.267 OA
ENDROOT
BRANCH   1  13
ATOM     12  N   UNL     1      -8.421   2.270   0.097  0.00  0.00    -0.311 N 
ATOM     13  C   UNL     1      -7.092   2.492   0.085  0.00  0.00    +0.244 C 
ATOM     14  O   UNL     1      -6.666   3.630   0.087  0.00  0.00    -0.270 OA
ATOM     15  H   UNL     1      -8.807   1.240   0.095  0.00  0.00    +0.149 HD
BRANCH  12  16
ATOM     16  C   UNL     1      -9.352   3.401   0.112  0.00  0.00    +0.104 C 
BRANCH  16  18
ATOM     17  C   UNL     1     -11.762   4.059   0.140  0.00  0.00    +0.005 C 
ATOM     18  C   UNL     1     -10.790   2.878   0.123  0.00  0.00    +0.015 C 
ENDBRANCH  16  18
ENDBRANCH  12  16
ENDBRANCH   1  13
BRANCH   9  19
ATOM     19  C   UNL     1      -1.153  -2.713  -0.013  0.00  0.00    +0.159 C 
BRANCH  19  20
ATOM     20  C   UNL     1      -0.793  -3.103   1.422  0.00  0.00    +0.138 C 
ATOM     21  C   UNL     1       0.334  -4.158   1.411  0.00  0.00    +0.035 C 
ATOM     22  C   UNL     1      -0.095  -5.111   2.560  0.00  0.00    +0.031 C 
ATOM     23  C   UNL     1      -1.638  -5.048   2.433  0.00  0.00    +0.160 C 
ATOM     24  O   UNL     1      -1.930  -3.691   2.066  0.00  0.00    -0.375 OA
ENDBRANCH  19  20
ENDBRANCH   9  19
BRANCH   8  25
ATOM     25  S   UNL     1       0.002  -0.004   0.002  0.00  0.00    -0.083 S 
BRANCH  25  26
ATOM     26  C   UNL     1      -0.022   1.806   0.012  0.00  0.00    +0.112 C 
BRANCH  26  27
ATOM     27  C   UNL     1       1.391   2.327   0.001  0.00  0.00    -0.037 A 
ATOM     28  C   UNL     1       2.049   2.566   1.194  0.00  0.00    +0.004 A 
ATOM     29  C   UNL     1       3.348   3.039   1.184  0.00  0.00    +0.001 A 
ATOM     30  C   UNL     1       3.985   3.285  -0.018  0.00  0.00    +0.003 A 
ATOM     31  C   UNL     1       3.325   3.052  -1.210  0.00  0.00    -0.050 A 
ATOM     32  C   UNL     1       2.028   2.573  -1.200  0.00  0.00    +0.007 A 
ATOM     33  C   UNL     1       4.019   3.320  -2.521  0.00  0.00    +0.044 C 
ENDBRANCH  26  27
ENDBRANCH  25  26
ENDBRANCH   8  25
TORSDOF 8
