REMARK  Name = ZINC58408679
REMARK  9 active torsions:
REMARK  status: ('A' for Active; 'I' for Inactive)
REMARK    1  A    between atoms: C_1  and  C_2
REMARK    2  A    between atoms: C_6  and  N_9
REMARK    3  A    between atoms: C_7  and  C_8
REMARK    4  A    between atoms: N_9  and  C_10
REMARK    5  A    between atoms: C_15  and  C_16
REMARK    6  A    between atoms: N_18  and  C_19
REMARK    7  A    between atoms: N_18  and  C_20
REMARK    8  A    between atoms: C_20  and  C_21
REMARK    9  A    between atoms: C_26  and  C_29
REMARK                            x       y       z     vdW  Elec       q    Type
REMARK                         _______ _______ _______ _____ _____    ______ ____
ROOT
ATOM      1  C   UNL     1      -0.010  -4.181   2.272  0.00  0.00    +0.044 A 
ATOM      2  C   UNL     1       0.068  -4.781   1.021  0.00  0.00    +0.024 A 
ATOM      3  C   UNL     1       0.241  -6.146   0.919  0.00  0.00    +0.002 A 
ATOM      4  C   UNL     1       0.337  -6.929   2.058  0.00  0.00    +0.001 A 
ATOM      5  C   UNL     1       0.261  -6.353   3.307  0.00  0.00    +0.015 A 
ATOM      6  C   UNL     1       0.092  -4.971   3.428  0.00  0.00    +0.058 A 
ENDROOT
BRANCH   6   7
ATOM      7  C   UNL     1       0.016  -4.347   4.762  0.00  0.00    +0.249 C 
ATOM      8  O   UNL     1      -0.967  -3.704   5.077  0.00  0.00    -0.270 OA
ATOM      9  N   UNL     1       1.036  -4.489   5.631  0.00  0.00    -0.292 N 
ATOM     10  C   UNL     1       2.179  -5.338   5.288  0.00  0.00    +0.133 C 
BRANCH   9  11
ATOM     11  C   UNL     1       1.001  -3.793   6.920  0.00  0.00    +0.203 C 
BRANCH  11  12
ATOM     12  C   UNL     1       0.335  -4.671   7.948  0.00  0.00    +0.236 C 
ATOM     13  O   UNL     1      -0.071  -5.770   7.634  0.00  0.00    -0.274 OA
ATOM     14  N   UNL     1       0.191  -4.236   9.215  0.00  0.00    -0.266 N 
ATOM     15  C   UNL     1      -0.426  -5.049  10.166  0.00  0.00    +0.168 A 
ATOM     16  C   UNL     1      -0.939  -6.346   9.944  0.00  0.00    +0.091 A 
ATOM     17  C   UNL     1      -1.452  -6.797  11.103  0.00  0.00    +0.136 A 
ATOM     18  O   UNL     1      -1.283  -5.844  12.033  0.00  0.00    -0.358 OA
ATOM     19  N   UNL     1      -0.627  -4.747  11.423  0.00  0.00    -0.063 NA
ATOM     20  C   UNL     1      -2.103  -8.138  11.319  0.00  0.00    +0.089 C 
ATOM     21  H   UNL     1       0.516  -3.357   9.466  0.00  0.00    +0.156 HD
ENDBRANCH  11  12
ENDBRANCH   9  11
ENDBRANCH   6   7
BRANCH   1  22
ATOM     22  N   UNL     1      -0.184  -2.807   2.378  0.00  0.00    -0.314 N 
ATOM     23  H   UNL     1      -1.060  -2.416   2.236  0.00  0.00    +0.152 HD
BRANCH  22  29
ATOM     24  C   UNL     1       1.647   1.694   3.118  0.00  0.00    +0.044 C 
ATOM     25  C   UNL     1       1.821   0.198   3.055  0.00  0.00    -0.046 A 
ATOM     26  C   UNL     1       3.059  -0.365   3.306  0.00  0.00    +0.004 A 
ATOM     27  C   UNL     1       3.223  -1.736   3.250  0.00  0.00    +0.002 A 
ATOM     28  C   UNL     1       2.149  -2.549   2.943  0.00  0.00    +0.023 A 
ATOM     29  C   UNL     1       0.904  -1.987   2.690  0.00  0.00    +0.035 A 
ATOM     30  C   UNL     1       0.742  -0.609   2.753  0.00  0.00    -0.026 A 
ATOM     31  C   UNL     1      -0.608   0.005   2.486  0.00  0.00    +0.046 C 
ENDBRANCH  22  29
ENDBRANCH   1  22
TORSDOF 5
