REMARK  Name = ZINC67163953
REMARK  10 active torsions:
REMARK  status: ('A' for Active; 'I' for Inactive)
REMARK    1  A    between atoms: C_1  and  C_2
REMARK    2  A    between atoms: N_8  and  C_9
REMARK    3  A    between atoms: C_9  and  C_11
REMARK    4  A    between atoms: C_9  and  C_12
REMARK    5  A    between atoms: C_12  and  N_13
REMARK    6  A    between atoms: C_14  and  C_16
REMARK    7  A    between atoms: C_16  and  C_17
REMARK    8  A    between atoms: C_17  and  C_18
REMARK    9  A    between atoms: C_18  and  C_19
REMARK   10  A    between atoms: C_19  and  C_20
REMARK                            x       y       z     vdW  Elec       q    Type
REMARK                         _______ _______ _______ _____ _____    ______ ____
ROOT
ATOM      1  N   UNL     1       2.684  -2.167   2.422  0.00  0.00    -0.317 N 
ATOM      2  C   UNL     1       3.115  -2.985   3.403  0.00  0.00    +0.213 C 
ATOM      3  O   UNL     1       3.675  -2.524   4.375  0.00  0.00    -0.276 OA
ATOM      4  H   UNL     1       2.236  -2.535   1.645  0.00  0.00    +0.149 HD
ENDROOT
BRANCH   1   5
ATOM      5  C   UNL     1       2.893  -0.721   2.530  0.00  0.00    +0.088 C 
BRANCH   5   6
ATOM      6  C   UNL     1       2.158  -0.013   1.391  0.00  0.00    -0.054 C 
ATOM      7  C   UNL     1       2.533   1.471   1.385  0.00  0.00    -0.012 C 
BRANCH   6  14
ATOM      8  C   UNL     1       0.766  -2.018   0.002  0.00  0.00    -0.013 C 
ATOM      9  C   UNL     1       0.321  -1.553   1.390  0.00  0.00    -0.071 C 
ATOM     10  C   UNL     1      -1.198  -1.688   1.509  0.00  0.00    -0.016 C 
ATOM     11  C   UNL     1      -1.639  -1.223   2.900  0.00  0.00    -0.003 C 
ATOM     12  C   UNL     1      -1.165   0.217   3.120  0.00  0.00    -0.019 C 
ATOM     13  C   UNL     1       0.353   0.281   2.941  0.00  0.00    -0.078 C 
ATOM     14  N   UNL     1       0.708  -0.151   1.583  0.00  0.00    +0.384 N 
ATOM     15  H   UNL     1       0.225   0.426   0.911  0.00  0.00    -0.081 HD
ENDBRANCH   6  14
ENDBRANCH   5   6
ENDBRANCH   1   5
BRANCH   2  16
ATOM     16  C   UNL     1       2.901  -4.472   3.292  0.00  0.00    +0.096 C 
BRANCH  16  17
ATOM     17  C   UNL     1       3.479  -5.165   4.527  0.00  0.00    +0.009 C 
BRANCH  17  18
ATOM     18  C   UNL     1       3.261  -6.675   4.415  0.00  0.00    +0.002 C 
BRANCH  18  19
ATOM     19  C   UNL     1       3.839  -7.367   5.650  0.00  0.00    +0.016 C 
BRANCH  19  20
ATOM     20  C   UNL     1       3.621  -8.878   5.538  0.00  0.00    +0.069 C 
ATOM     21  C   UNL     1       4.149  -9.596   6.753  0.00  0.00    +0.108 C 
ATOM     22  C   UNL     1       4.527 -11.053   6.344  0.00  0.00    +0.105 C 
ATOM     23  C   UNL     1       5.573 -10.906   5.241  0.00  0.00    +0.093 C 
ATOM     24  S   UNL     1       4.691  -9.612   4.214  0.00  0.00    -0.154 S 
ATOM     25  N   UNL     1       4.871 -11.580   7.645  0.00  0.00    -0.294 N 
ATOM     26  C   UNL     1       4.053 -10.932   8.528  0.00  0.00    +0.300 C 
ATOM     27  O   UNL     1       3.884 -11.290   9.678  0.00  0.00    -0.253 OA
ATOM     28  N   UNL     1       3.438  -9.853   7.971  0.00  0.00    -0.294 N 
ATOM     29  H   UNL     1       5.540 -12.251   7.849  0.00  0.00    +0.151 HD
ATOM     30  H   UNL     1       2.683  -9.360   8.329  0.00  0.00    +0.151 HD
ENDBRANCH  19  20
ENDBRANCH  18  19
ENDBRANCH  17  18
ENDBRANCH  16  17
ENDBRANCH   2  16
TORSDOF 8
