REMARK  Name = ZINC49026940
REMARK  7 active torsions:
REMARK  status: ('A' for Active; 'I' for Inactive)
REMARK    1  A    between atoms: C_1  and  C_2
REMARK    2  A    between atoms: C_7  and  N_8
REMARK    3  A    between atoms: N_11  and  C_12
REMARK    4  A    between atoms: C_12  and  C_13
REMARK    5  A    between atoms: C_13  and  C_15
REMARK    6  A    between atoms: C_13  and  O_21
REMARK    7  A    between atoms: C_18  and  C_20
REMARK                            x       y       z     vdW  Elec       q    Type
REMARK                         _______ _______ _______ _____ _____    ______ ____
ROOT
ATOM      1  N   UNL     1       0.025  -0.015   2.417  0.00  0.00    -0.269 N 
ATOM      2  C   UNL     1      -0.056  -0.694   3.578  0.00  0.00    +0.304 C 
ATOM      3  O   UNL     1      -0.040  -1.910   3.573  0.00  0.00    -0.253 OA
ATOM      4  N   UNL     1      -0.156  -0.026   4.745  0.00  0.00    -0.296 N 
ATOM      5  H   UNL     1       0.078   0.954   2.425  0.00  0.00    +0.156 HD
ATOM      6  H   UNL     1      -0.169   0.944   4.748  0.00  0.00    +0.150 HD
ENDROOT
BRANCH   1  13
ATOM      7  C   UNL     1      -1.266   1.182   0.182  0.00  0.00    +0.045 C 
ATOM      8  C   UNL     1      -0.585  -0.158   0.085  0.00  0.00    -0.029 A 
ATOM      9  C   UNL     1      -0.570  -0.841  -1.116  0.00  0.00    +0.005 A 
ATOM     10  C   UNL     1       0.055  -2.071  -1.206  0.00  0.00    +0.000 A 
ATOM     11  C   UNL     1       0.667  -2.622  -0.095  0.00  0.00    +0.002 A 
ATOM     12  C   UNL     1       0.655  -1.945   1.108  0.00  0.00    +0.023 A 
ATOM     13  C   UNL     1       0.034  -0.706   1.200  0.00  0.00    +0.038 A 
ENDBRANCH   1  13
BRANCH   4  14
ATOM     14  C   UNL     1      -0.245  -0.765   6.006  0.00  0.00    +0.145 C 
BRANCH  14  15
ATOM     15  C   UNL     1      -0.348   0.223   7.170  0.00  0.00    +0.197 C 
BRANCH  15  16
ATOM     16  C   UNL     1      -0.316  -0.531   8.474  0.00  0.00    +0.135 A 
ATOM     17  C   UNL     1       0.756  -0.672   9.275  0.00  0.00    +0.047 A 
ATOM     18  C   UNL     1       0.341  -1.448  10.382  0.00  0.00    +0.045 A 
ATOM     19  C   UNL     1      -0.959  -1.735  10.191  0.00  0.00    +0.102 A 
ATOM     20  O   UNL     1      -1.353  -1.172   9.037  0.00  0.00    -0.462 OA
ATOM     21  C   UNL     1      -1.828  -2.546  11.118  0.00  0.00    +0.086 C 
ENDBRANCH  15  16
BRANCH  15  22
ATOM     22  O   UNL     1      -1.575   0.949   7.070  0.00  0.00    -0.383 OA
ATOM     23  H   UNL     1      -2.365   0.393   7.098  0.00  0.00    +0.210 HD
ENDBRANCH  15  22
ENDBRANCH  14  15
ENDBRANCH   4  14
TORSDOF 5
