REMARK  Name = ZINC65192510
REMARK  5 active torsions:
REMARK  status: ('A' for Active; 'I' for Inactive)
REMARK    1  A    between atoms: C_6  and  C_7
REMARK    2  A    between atoms: C_7  and  C_12
REMARK    3  A    between atoms: N_14  and  N_15
REMARK    4  A    between atoms: N_18  and  C_19
REMARK    5  A    between atoms: C_19  and  C_20
REMARK                            x       y       z     vdW  Elec       q    Type
REMARK                         _______ _______ _______ _____ _____    ______ ____
ROOT
ATOM      1  C   UNL     1      -2.177  -0.310  -1.119  0.00  0.00    +0.240 C 
ATOM      2  O   UNL     1      -2.616  -1.113  -1.915  0.00  0.00    -0.273 OA
ATOM      3  N   UNL     1      -2.479   0.997  -1.244  0.00  0.00    -0.232 N 
ATOM      4  H   UNL     1      -2.071   1.648  -0.652  0.00  0.00    +0.173 HD
ENDROOT
BRANCH   3   5
ATOM      5  N   UNL     1      -3.383   1.416  -2.229  0.00  0.00    -0.218 N 
ATOM      6  C   UNL     1      -3.686   2.723  -2.354  0.00  0.00    +0.316 C 
ATOM      7  O   UNL     1      -4.471   3.087  -3.208  0.00  0.00    -0.251 OA
ATOM      8  N   UNL     1      -3.118   3.628  -1.531  0.00  0.00    -0.298 N 
ATOM      9  H   UNL     1      -3.792   0.765  -2.820  0.00  0.00    +0.174 HD
ATOM     10  H   UNL     1      -2.492   3.338  -0.850  0.00  0.00    +0.150 HD
BRANCH   8  11
ATOM     11  C   UNL     1      -3.447   5.049  -1.667  0.00  0.00    +0.109 C 
BRANCH  11  12
ATOM     12  C   UNL     1      -2.674   5.854  -0.621  0.00  0.00    +0.006 C 
ATOM     13  C   UNL     1      -3.486   6.596   0.442  0.00  0.00    +0.005 C 
ATOM     14  C   UNL     1      -2.790   7.378  -0.674  0.00  0.00    +0.005 C 
ENDBRANCH  11  12
ENDBRANCH   8  11
ENDBRANCH   3   5
BRANCH   1  15
ATOM     15  C   UNL     1      -1.293  -0.775   0.010  0.00  0.00    +0.073 C 
ATOM     16  C   UNL     1      -1.872  -0.310   1.362  0.00  0.00    +0.021 C 
ATOM     17  C   UNL     1      -2.690  -1.526   1.863  0.00  0.00    +0.001 C 
ATOM     18  C   UNL     1      -1.815  -2.728   1.429  0.00  0.00    +0.001 C 
ATOM     19  C   UNL     1      -1.256  -2.312   0.053  0.00  0.00    +0.021 C 
BRANCH  15  25
ATOM     20  C   UNL     1       0.428   0.466  -1.317  0.00  0.00    +0.007 A 
ATOM     21  C   UNL     1       1.706   0.966  -1.482  0.00  0.00    +0.038 A 
ATOM     22  C   UNL     1       2.659   0.769  -0.497  0.00  0.00    +0.123 A 
ATOM     23  C   UNL     1       2.330   0.072   0.653  0.00  0.00    +0.038 A 
ATOM     24  C   UNL     1       1.051  -0.427   0.816  0.00  0.00    +0.007 A 
ATOM     25  C   UNL     1       0.101  -0.230  -0.169  0.00  0.00    -0.032 A 
ATOM     26  F   UNL     1       3.908   1.257  -0.657  0.00  0.00    -0.205 F 
ENDBRANCH  15  25
ENDBRANCH   1  15
TORSDOF 5
