REMARK  Name = ZINC40080016
REMARK  2 active torsions:
REMARK  status: ('A' for Active; 'I' for Inactive)
REMARK    1  A    between atoms: C_9  and  C_10
REMARK    2  A    between atoms: C_17  and  C_19
REMARK                            x       y       z     vdW  Elec       q    Type
REMARK                         _______ _______ _______ _____ _____    ______ ____
ROOT
ATOM      1  C   UNL     1       4.764   0.060  -0.257  0.00  0.00    +0.075 C 
ATOM      2  C   UNL     1       5.338  -0.181   1.141  0.00  0.00    +0.014 C 
ATOM      3  C   UNL     1       6.835   0.139   1.142  0.00  0.00    +0.020 C 
ATOM      4  C   UNL     1       7.553  -0.789   0.158  0.00  0.00    +0.108 C 
ATOM      5  N   UNL     1       6.911  -0.670  -1.159  0.00  0.00    -0.297 N 
ATOM      6  C   UNL     1       5.459  -0.869  -1.258  0.00  0.00    +0.119 C 
ATOM      7  C   UNL     1       7.641  -0.383  -2.255  0.00  0.00    +0.247 C 
ATOM      8  O   UNL     1       7.110  -0.356  -3.349  0.00  0.00    -0.270 OA
ENDROOT
BRANCH   7   9
ATOM      9  C   UNL     1       9.085  -0.101  -2.128  0.00  0.00    +0.038 A 
ATOM     10  C   UNL     1       9.626   1.057  -2.703  0.00  0.00    +0.015 A 
ATOM     11  C   UNL     1      10.957   1.330  -2.595  0.00  0.00    +0.027 A 
ATOM     12  C   UNL     1      11.799   0.458  -1.908  0.00  0.00    +0.047 A 
ATOM     13  C   UNL     1      11.268  -0.709  -1.323  0.00  0.00    +0.004 A 
ATOM     14  C   UNL     1       9.906  -0.983  -1.432  0.00  0.00    +0.023 A 
ATOM     15  C   UNL     1      12.397  -1.391  -0.690  0.00  0.00    -0.019 A 
ATOM     16  C   UNL     1      13.489  -0.641  -0.908  0.00  0.00    +0.020 A 
ATOM     17  N   UNL     1      13.147   0.466  -1.641  0.00  0.00    -0.358 N 
ATOM     18  H   UNL     1      13.766   1.155  -1.929  0.00  0.00    +0.166 HD
ATOM     19  C   UNL     1      14.878  -0.965  -0.412  0.00  0.00    +0.053 C 
ATOM     20  C   UNL     1      15.198  -2.431  -0.709  0.00  0.00    +0.006 C 
ATOM     21  C   UNL     1      14.741  -3.304   0.457  0.00  0.00    +0.001 C 
ATOM     22  C   UNL     1      13.480  -2.727   1.095  0.00  0.00    +0.005 C 
ATOM     23  C   UNL     1      12.352  -2.696   0.061  0.00  0.00    +0.037 C 
ENDBRANCH   7   9
BRANCH   1  32
ATOM     24  C   UNL     1      -0.105   1.919  -1.034  0.00  0.00    +0.005 A 
ATOM     25  C   UNL     1       1.116   2.603  -1.168  0.00  0.00    +0.018 A 
ATOM     26  C   UNL     1       2.283   1.969  -0.927  0.00  0.00    +0.094 A 
ATOM     27  N   UNL     1       2.294   0.658  -0.551  0.00  0.00    -0.286 N 
ATOM     28  C   UNL     1       1.117  -0.036  -0.412  0.00  0.00    +0.161 A 
ATOM     29  C   UNL     1      -0.109   0.612  -0.659  0.00  0.00    +0.048 A 
ATOM     30  N   UNL     1       1.439  -1.266  -0.044  0.00  0.00    -0.129 NA
ATOM     31  N   UNL     1       2.718  -1.365   0.048  0.00  0.00    -0.133 NA
ATOM     32  C   UNL     1       3.285  -0.225  -0.249  0.00  0.00    +0.142 A 
ENDBRANCH   1  32
TORSDOF 2
