REMARK  Name = ZINC24528367
REMARK  8 active torsions:
REMARK  status: ('A' for Active; 'I' for Inactive)
REMARK    1  A    between atoms: C_1  and  C_2
REMARK    2  A    between atoms: C_2  and  C_4
REMARK    3  A    between atoms: C_2  and  N_11
REMARK    4  A    between atoms: C_4  and  C_5
REMARK    5  A    between atoms: C_5  and  C_6
REMARK    6  A    between atoms: N_17  and  C_20
REMARK    7  A    between atoms: C_20  and  C_21
REMARK    8  A    between atoms: C_26  and  C_31
REMARK                            x       y       z     vdW  Elec       q    Type
REMARK                         _______ _______ _______ _____ _____    ______ ____
ROOT
ATOM      1  N   UNL     1       2.113  -1.127  -0.773  0.00  0.00    -0.297 N 
ATOM      2  C   UNL     1       2.323   0.121  -0.310  0.00  0.00    +0.302 C 
ATOM      3  O   UNL     1       1.401   0.756   0.166  0.00  0.00    -0.253 OA
ATOM      4  N   UNL     1       3.553   0.667  -0.376  0.00  0.00    -0.289 N 
ATOM      5  C   UNL     1       3.827   1.986   0.215  0.00  0.00    +0.091 C 
ATOM      6  C   UNL     1       5.060   1.860   1.124  0.00  0.00    -0.059 C 
ATOM      7  N   UNL     1       6.171   1.282   0.356  0.00  0.00    +0.386 N 
ATOM      8  C   UNL     1       5.856  -0.081  -0.092  0.00  0.00    -0.059 C 
ATOM      9  C   UNL     1       4.657  -0.038  -1.045  0.00  0.00    +0.091 C 
ATOM     10  H   UNL     1       2.927  -1.671  -1.276  0.00  0.00    +0.151 HD
ATOM     11  H   UNL     1       6.317   1.903  -0.540  0.00  0.00    -0.081 HD
ENDROOT
BRANCH   1  13
ATOM     12  C   UNL     1       0.726  -2.416   0.775  0.00  0.00    +0.028 C 
ATOM     13  C   UNL     1       0.803  -1.760  -0.605  0.00  0.00    +0.072 C 
BRANCH  13  14
ATOM     14  C   UNL     1       0.609  -2.824  -1.687  0.00  0.00    +0.030 C 
BRANCH  14  15
ATOM     15  C   UNL     1       0.561  -2.152  -3.061  0.00  0.00    +0.076 C 
BRANCH  15  16
ATOM     16  C   UNL     1       0.370  -3.200  -4.127  0.00  0.00    +0.105 A 
ATOM     17  C   UNL     1      -0.812  -3.641  -4.594  0.00  0.00    +0.044 A 
ATOM     18  C   UNL     1      -0.526  -4.616  -5.577  0.00  0.00    +0.041 A 
ATOM     19  C   UNL     1       0.813  -4.713  -5.652  0.00  0.00    +0.195 A 
ATOM     20  O   UNL     1       1.351  -3.849  -4.776  0.00  0.00    -0.468 OA
ENDBRANCH  15  16
ENDBRANCH  14  15
ENDBRANCH  13  14
ENDBRANCH   1  13
BRANCH   7  21
ATOM     21  C   UNL     1       7.417   1.306   1.133  0.00  0.00    -0.003 C 
BRANCH  21  22
ATOM     22  C   UNL     1       8.575   0.948   0.237  0.00  0.00    +0.095 A 
ATOM     23  N   UNL     1       9.812   0.791   0.775  0.00  0.00    -0.197 NA
ATOM     24  C   UNL     1      10.871   0.467   0.011  0.00  0.00    +0.282 A 
ATOM     25  O   UNL     1      11.974   0.325   0.510  0.00  0.00    -0.265 OA
ATOM     26  C   UNL     1      10.684   0.296  -1.398  0.00  0.00    +0.080 A 
ATOM     27  C   UNL     1      11.662  -0.046  -2.424  0.00  0.00    +0.010 A 
ATOM     28  C   UNL     1      11.246  -0.154  -3.711  0.00  0.00    +0.057 A 
ATOM     29  S   UNL     1       9.502   0.201  -3.611  0.00  0.00    -0.078 S 
ATOM     30  C   UNL     1       9.372   0.484  -1.864  0.00  0.00    +0.092 A 
ATOM     31  N   UNL     1       8.373   0.799  -1.045  0.00  0.00    -0.339 N 
ATOM     32  H   UNL     1       7.364   0.935  -1.462  0.00  0.00    +0.167 HD
BRANCH  27  33
ATOM     33  C   UNL     1      13.079  -0.271  -2.069  0.00  0.00    +0.021 A 
ATOM     34  C   UNL     1      13.895  -1.321  -2.397  0.00  0.00    +0.016 A 
ATOM     35  C   UNL     1      15.199  -1.311  -1.950  0.00  0.00    +0.008 A 
ATOM     36  C   UNL     1      15.630  -0.271  -1.192  0.00  0.00    +0.046 A 
ATOM     37  S   UNL     1      14.171   0.752  -1.095  0.00  0.00    -0.097 S 
ENDBRANCH  27  33
ENDBRANCH  21  22
ENDBRANCH   7  21
TORSDOF 7
