REMARK  Name = ZINC09308846
REMARK  11 active torsions:
REMARK  status: ('A' for Active; 'I' for Inactive)
REMARK    1  A    between atoms: C_1  and  C_2
REMARK    2  A    between atoms: C_2  and  C_3
REMARK    3  A    between atoms: C_3  and  O_4
REMARK    4  A    between atoms: O_4  and  C_5
REMARK    5  A    between atoms: C_8  and  C_11
REMARK    6  A    between atoms: C_18  and  N_39
REMARK    7  A    between atoms: C_19  and  C_37
REMARK    8  A    between atoms: C_20  and  C_22
REMARK    9  A    between atoms: C_25  and  O_28
REMARK   10  A    between atoms: O_28  and  C_29
REMARK   11  A    between atoms: C_29  and  C_30
REMARK                            x       y       z     vdW  Elec       q    Type
REMARK                         _______ _______ _______ _____ _____    ______ ____
ROOT
ATOM      1  C   UNL     1       3.257  -4.657  -5.970  0.00  0.00    +0.100 A 
ATOM      2  C   UNL     1       4.107  -5.735  -5.705  0.00  0.00    +0.054 A 
ATOM      3  C   UNL     1       4.642  -6.152  -6.889  0.00  0.00    +0.223 A 
ATOM      4  N   UNL     1       4.144  -5.365  -7.865  0.00  0.00    -0.246 N 
ATOM      5  H   UNL     1       4.348  -5.431  -8.811  0.00  0.00    +0.192 HD
ATOM      6  N   UNL     1       3.275  -4.436  -7.271  0.00  0.00    -0.171 NA
ATOM      7  O   UNL     1       5.516  -7.186  -6.974  0.00  0.00    -0.423 OA
ATOM      8  C   UNL     1       6.069  -7.633  -5.828  0.00  0.00    +0.200 C 
ATOM      9  C   UNL     1       5.619  -7.301  -4.597  0.00  0.00    +0.098 C 
ATOM     10  C   UNL     1       4.437  -6.388  -4.388  0.00  0.00    +0.102 C 
ENDROOT
BRANCH   1  14
ATOM     11  C   UNL     1       1.000  -2.483  -3.094  0.00  0.00    +0.121 A 
ATOM     12  C   UNL     1       2.310  -2.846  -2.815  0.00  0.00    +0.046 A 
ATOM     13  C   UNL     1       3.045  -3.551  -3.746  0.00  0.00    +0.013 A 
ATOM     14  C   UNL     1       2.470  -3.899  -4.966  0.00  0.00    +0.003 A 
ATOM     15  C   UNL     1       1.153  -3.534  -5.243  0.00  0.00    +0.013 A 
ATOM     16  C   UNL     1       0.422  -2.833  -4.307  0.00  0.00    +0.046 A 
BRANCH  11  17
ATOM     17  O   UNL     1       0.278  -1.789  -2.175  0.00  0.00    -0.492 OA
BRANCH  17  18
ATOM     18  C   UNL     1       0.934  -1.461  -0.948  0.00  0.00    +0.229 C 
BRANCH  18  20
ATOM     19  C   UNL     1       0.674  -0.335   1.267  0.00  0.00    +0.007 C 
ATOM     20  C   UNL     1      -0.029  -0.685  -0.047  0.00  0.00    +0.038 C 
ENDBRANCH  18  20
ENDBRANCH  17  18
ENDBRANCH  11  17
ENDBRANCH   1  14
BRANCH  10  21
ATOM     21  C   UNL     1       3.254  -7.190  -3.908  0.00  0.00    -0.034 A 
ATOM     22  C   UNL     1       2.715  -8.175  -4.716  0.00  0.00    +0.008 A 
ATOM     23  C   UNL     1       1.631  -8.911  -4.279  0.00  0.00    +0.046 A 
ATOM     24  C   UNL     1       1.083  -8.662  -3.028  0.00  0.00    +0.121 A 
ATOM     25  C   UNL     1       1.627  -7.674  -2.220  0.00  0.00    +0.046 A 
ATOM     26  C   UNL     1       2.714  -6.944  -2.659  0.00  0.00    +0.008 A 
BRANCH  24  27
ATOM     27  O   UNL     1       0.016  -9.385  -2.596  0.00  0.00    -0.487 OA
BRANCH  27  28
ATOM     28  C   UNL     1      -0.495  -9.074  -1.299  0.00  0.00    +0.264 C 
BRANCH  28  29
ATOM     29  C   UNL     1      -1.667  -9.970  -0.993  0.00  0.00    -0.010 A 
ATOM     30  C   UNL     1      -2.946  -9.578  -1.343  0.00  0.00    +0.010 A 
ATOM     31  C   UNL     1      -4.022 -10.399  -1.064  0.00  0.00    +0.039 A 
ATOM     32  C   UNL     1      -3.819 -11.615  -0.433  0.00  0.00    +0.123 A 
ATOM     33  C   UNL     1      -2.538 -12.006  -0.083  0.00  0.00    +0.039 A 
ATOM     34  C   UNL     1      -1.463 -11.186  -0.368  0.00  0.00    +0.010 A 
ATOM     35  F   UNL     1      -4.870 -12.418  -0.159  0.00  0.00    -0.205 F 
ENDBRANCH  28  29
ENDBRANCH  27  28
ENDBRANCH  24  27
ENDBRANCH  10  21
BRANCH   8  36
ATOM     36  N   UNL     1       7.150  -8.474  -5.916  0.00  0.00    -0.328 N 
ATOM     37  H   UNL     1       7.495  -8.731  -6.785  0.00  0.00    +0.145 HD
ATOM     38  H   UNL     1       7.569  -8.812  -5.109  0.00  0.00    +0.145 HD
ENDBRANCH   8  36
BRANCH   9  39
ATOM     39  C   UNL     1       6.290  -7.836  -3.450  0.00  0.00    +0.101 C 
ATOM     40  N   UNL     1       6.822  -8.259  -2.541  0.00  0.00    -0.191 NA
ENDBRANCH   9  39
TORSDOF 10
