REMARK  Name = ZINC08924210
REMARK  6 active torsions:
REMARK  status: ('A' for Active; 'I' for Inactive)
REMARK    1  A    between atoms: C_1  and  C_2
REMARK    2  A    between atoms: C_2  and  C_4
REMARK    3  A    between atoms: C_2  and  N_58
REMARK    4  A    between atoms: N_6  and  C_7
REMARK    5  A    between atoms: C_8  and  C_15
REMARK    6  A    between atoms: C_21  and  C_23
REMARK                            x       y       z     vdW  Elec       q    Type
REMARK                         _______ _______ _______ _____ _____    ______ ____
ROOT
ATOM      1  C   UNL     1      -4.864   5.727  -0.868  0.00  0.00    -0.004 C 
ATOM      2  C   UNL     1      -4.649   7.136  -1.426  0.00  0.00    +0.017 C 
ENDROOT
BRANCH   2   7
ATOM      3  C   UNL     1      -3.135   8.534  -2.722  0.00  0.00    -0.077 C 
ATOM      4  C   UNL     1      -1.599   8.589  -2.916  0.00  0.00    -0.020 C 
ATOM      5  C   UNL     1      -1.065   7.865  -1.658  0.00  0.00    -0.013 C 
ATOM      6  C   UNL     1      -2.237   6.995  -1.168  0.00  0.00    -0.037 C 
ATOM      7  N   UNL     1      -3.328   7.205  -2.121  0.00  0.00    +0.392 N 
ATOM      8  H   UNL     1      -3.293   6.485  -2.852  0.00  0.00    -0.080 HD
BRANCH   6   9
ATOM      9  C   UNL     1      -1.829   5.544  -1.155  0.00  0.00    -0.057 A 
ATOM     10  C   UNL     1      -1.803   4.824  -2.335  0.00  0.00    +0.006 A 
ATOM     11  C   UNL     1      -1.429   3.494  -2.328  0.00  0.00    +0.049 A 
ATOM     12  C   UNL     1      -1.079   2.877  -1.135  0.00  0.00    +0.162 A 
ATOM     13  C   UNL     1      -1.104   3.601   0.051  0.00  0.00    +0.162 A 
ATOM     14  C   UNL     1      -1.481   4.936   0.036  0.00  0.00    +0.051 A 
ATOM     15  O   UNL     1      -0.757   3.018   1.230  0.00  0.00    -0.485 OA
ATOM     16  C   UNL     1      -0.743   1.587   1.262  0.00  0.00    +0.270 C 
ATOM     17  C   UNL     1      -0.013   1.086   0.008  0.00  0.00    +0.270 C 
ATOM     18  O   UNL     1      -0.716   1.565  -1.143  0.00  0.00    -0.485 OA
ENDBRANCH   6   9
ENDBRANCH   2   7
BRANCH   2  19
ATOM     19  C   UNL     1      -5.752   7.465  -2.398  0.00  0.00    +0.204 C 
ATOM     20  O   UNL     1      -5.486   7.725  -3.553  0.00  0.00    -0.277 OA
ATOM     21  N   UNL     1      -7.035   7.472  -1.985  0.00  0.00    -0.281 N 
ATOM     22  H   UNL     1      -7.248   7.264  -1.062  0.00  0.00    +0.155 HD
BRANCH  21  23
ATOM     23  C   UNL     1      -8.050   7.775  -2.879  0.00  0.00    +0.084 A 
ATOM     24  C   UNL     1      -9.414   7.832  -2.646  0.00  0.00    +0.068 A 
ATOM     25  C   UNL     1     -10.279   8.179  -3.773  0.00  0.00    -0.023 A 
ATOM     26  C   UNL     1      -9.640   8.411  -4.934  0.00  0.00    -0.004 A 
ATOM     27  S   UNL     1      -7.920   8.181  -4.557  0.00  0.00    -0.077 S 
ATOM     28  C   UNL     1     -10.595   8.765  -6.042  0.00  0.00    +0.043 C 
ATOM     29  C   UNL     1     -11.906   9.147  -5.319  0.00  0.00    +0.010 C 
ATOM     30  C   UNL     1     -11.781   8.355  -4.002  0.00  0.00    +0.037 C 
BRANCH  24  31
ATOM     31  C   UNL     1      -9.969   7.555  -1.318  0.00  0.00    +0.244 C 
ATOM     32  O   UNL     1     -10.114   8.461  -0.518  0.00  0.00    -0.270 OA
ATOM     33  N   UNL     1     -10.320   6.298  -0.983  0.00  0.00    -0.325 N 
ATOM     34  H   UNL     1     -10.204   5.576  -1.620  0.00  0.00    +0.145 HD
ATOM     35  H   UNL     1     -10.688   6.115  -0.104  0.00  0.00    +0.145 HD
ENDBRANCH  24  31
ENDBRANCH  21  23
ENDBRANCH   2  19
TORSDOF 5
