REMARK  Name = ZINC39960930
REMARK  7 active torsions:
REMARK  status: ('A' for Active; 'I' for Inactive)
REMARK    1  A    between atoms: C_1  and  C_2
REMARK    2  A    between atoms: C_2  and  O_3
REMARK    3  A    between atoms: O_3  and  C_4
REMARK    4  A    between atoms: C_4  and  C_6
REMARK    5  A    between atoms: C_7  and  N_30
REMARK    6  A    between atoms: C_12  and  C_29
REMARK    7  A    between atoms: C_21  and  C_23
REMARK                            x       y       z     vdW  Elec       q    Type
REMARK                         _______ _______ _______ _____ _____    ______ ____
ROOT
ATOM      1  C   UNL     1       1.427  -2.323  -2.466  0.00  0.00    +0.102 C 
ATOM      2  C   UNL     1       1.597  -3.663  -2.554  0.00  0.00    +0.194 C 
ATOM      3  O   UNL     1       2.189  -4.239  -3.627  0.00  0.00    -0.445 OA
ATOM      4  C   UNL     1       2.767  -3.415  -4.505  0.00  0.00    +0.129 C 
ATOM      5  C   UNL     1       3.983  -3.681  -5.114  0.00  0.00    +0.035 A 
ATOM      6  C   UNL     1       4.685  -4.877  -4.858  0.00  0.00    +0.016 A 
ATOM      7  C   UNL     1       5.872  -5.108  -5.483  0.00  0.00    -0.050 A 
ATOM      8  C   UNL     1       6.411  -4.185  -6.374  0.00  0.00    +0.005 A 
ATOM      9  C   UNL     1       5.783  -3.009  -6.658  0.00  0.00    +0.024 A 
ATOM     10  C   UNL     1       4.556  -2.703  -6.048  0.00  0.00    +0.044 A 
ATOM     11  N   UNL     1       3.943  -1.545  -6.321  0.00  0.00    -0.284 N 
ATOM     12  C   UNL     1       2.781  -1.189  -5.810  0.00  0.00    +0.229 C 
ATOM     13  O   UNL     1       2.289  -0.115  -6.104  0.00  0.00    -0.275 OA
ATOM     14  C   UNL     1       2.060  -2.117  -4.858  0.00  0.00    +0.154 C 
ATOM     15  C   UNL     1       1.888  -1.370  -3.534  0.00  0.00    +0.080 C 
ATOM     16  C   UNL     1       6.615  -6.389  -5.207  0.00  0.00    +0.044 C 
ATOM     17  H   UNL     1       4.380  -0.930  -6.931  0.00  0.00    +0.155 HD
ENDROOT
BRANCH  15  18
ATOM     18  C   UNL     1       0.868  -0.274  -3.703  0.00  0.00    -0.038 A 
ATOM     19  C   UNL     1      -0.429  -0.587  -4.065  0.00  0.00    +0.004 A 
ATOM     20  C   UNL     1      -1.365   0.418  -4.220  0.00  0.00    +0.000 A 
ATOM     21  C   UNL     1      -1.004   1.737  -4.012  0.00  0.00    +0.000 A 
ATOM     22  C   UNL     1       0.293   2.049  -3.650  0.00  0.00    +0.000 A 
ATOM     23  C   UNL     1       1.228   1.044  -3.490  0.00  0.00    +0.004 A 
ENDBRANCH  15  18
BRANCH   2  24
ATOM     24  N   UNL     1       1.158  -4.459  -1.530  0.00  0.00    -0.329 N 
ATOM     25  H   UNL     1       0.665  -4.070  -0.791  0.00  0.00    +0.145 HD
ATOM     26  H   UNL     1       1.341  -5.411  -1.543  0.00  0.00    +0.145 HD
ENDBRANCH   2  24
BRANCH   1  27
ATOM     27  C   UNL     1       0.786  -1.800  -1.330  0.00  0.00    +0.341 C 
ATOM     28  O   UNL     1       1.442  -1.273  -0.450  0.00  0.00    -0.245 OA
BRANCH  27  29
ATOM     29  O   UNL     1      -0.557  -1.883  -1.214  0.00  0.00    -0.462 OA
BRANCH  29  31
ATOM     30  C   UNL     1      -2.659  -1.516  -0.080  0.00  0.00    +0.048 C 
ATOM     31  C   UNL     1      -1.141  -1.331  -0.033  0.00  0.00    +0.229 C 
ENDBRANCH  29  31
ENDBRANCH  27  29
ENDBRANCH   1  27
TORSDOF 5
