REMARK  Name = ZINC12632453
REMARK  11 active torsions:
REMARK  status: ('A' for Active; 'I' for Inactive)
REMARK    1  A    between atoms: C_1  and  C_2
REMARK    2  A    between atoms: C_3  and  N_14
REMARK    3  A    between atoms: C_4  and  C_13
REMARK    4  A    between atoms: N_5  and  C_7
REMARK    5  A    between atoms: C_15  and  C_17
REMARK    6  A    between atoms: C_17  and  N_18
REMARK    7  A    between atoms: N_18  and  C_19
REMARK    8  A    between atoms: C_22  and  S_25
REMARK    9  A    between atoms: S_25  and  N_28
REMARK   10  A    between atoms: C_29  and  C_37
REMARK   11  A    between atoms: C_34  and  C_36
REMARK                            x       y       z     vdW  Elec       q    Type
REMARK                         _______ _______ _______ _____ _____    ______ ____
ROOT
ATOM      1  N   UNL     1       0.378  -0.381  -1.010  0.00  0.00    -0.335 N 
ATOM      2  H   UNL     1       0.326  -1.217  -0.522  0.00  0.00    +0.147 HD
ENDROOT
BRANCH   1   3
ATOM      3  C   UNL     1       1.397   0.531  -0.727  0.00  0.00    +0.028 A 
ATOM      4  C   UNL     1       1.477   1.727  -1.430  0.00  0.00    +0.025 A 
ATOM      5  C   UNL     1       2.483   2.628  -1.144  0.00  0.00    +0.030 A 
ATOM      6  C   UNL     1       3.417   2.337  -0.166  0.00  0.00    +0.106 A 
ATOM      7  C   UNL     1       3.344   1.145   0.531  0.00  0.00    +0.030 A 
ATOM      8  C   UNL     1       2.337   0.242   0.254  0.00  0.00    +0.025 A 
BRANCH   6   9
ATOM      9  S   UNL     1       4.703   3.487   0.191  0.00  0.00    +0.061 S 
ATOM     10  O   UNL     1       4.172   4.781  -0.059  0.00  0.00    -0.153 OA
ATOM     11  O   UNL     1       5.241   3.116   1.453  0.00  0.00    -0.153 OA
BRANCH   9  12
ATOM     12  N   UNL     1       5.902   3.244  -0.925  0.00  0.00    -0.171 NA
ATOM     13  C   UNL     1       6.024   4.122  -2.096  0.00  0.00    +0.077 C 
ATOM     14  C   UNL     1       7.458   4.671  -2.147  0.00  0.00    +0.020 C 
ATOM     15  C   UNL     1       8.446   3.503  -2.133  0.00  0.00    +0.003 C 
ATOM     16  C   UNL     1       8.281   2.709  -0.835  0.00  0.00    +0.020 C 
ATOM     17  C   UNL     1       6.860   2.141  -0.766  0.00  0.00    +0.077 C 
ATOM     18  C   UNL     1       6.643   1.465   0.589  0.00  0.00    +0.026 C 
ATOM     19  C   UNL     1       5.730   3.325  -3.368  0.00  0.00    +0.026 C 
ENDBRANCH   9  12
ENDBRANCH   6   9
ENDBRANCH   1   3
BRANCH   1  20
ATOM     20  C   UNL     1      -0.609  -0.077  -2.050  0.00  0.00    +0.198 C 
BRANCH  20  22
ATOM     21  N   UNL     1      -2.592  -1.158  -3.059  0.00  0.00    -0.281 N 
ATOM     22  C   UNL     1      -1.588  -1.217  -2.162  0.00  0.00    +0.234 C 
ATOM     23  O   UNL     1      -1.473  -2.188  -1.444  0.00  0.00    -0.274 OA
ATOM     24  H   UNL     1      -2.725  -0.354  -3.585  0.00  0.00    +0.155 HD
BRANCH  21  27
ATOM     25  C   UNL     1      -1.739  -4.128  -2.669  0.00  0.00    +0.069 C 
ATOM     26  C   UNL     1      -3.098  -3.611  -3.067  0.00  0.00    +0.082 A 
ATOM     27  C   UNL     1      -3.446  -2.262  -3.233  0.00  0.00    +0.078 A 
ATOM     28  C   UNL     1      -4.753  -2.212  -3.598  0.00  0.00    +0.063 A 
ATOM     29  N   UNL     1      -5.213  -3.492  -3.652  0.00  0.00    -0.235 N 
ATOM     30  N   UNL     1      -4.154  -4.343  -3.311  0.00  0.00    -0.170 NA
ATOM     31  C   UNL     1      -5.550  -0.966  -3.888  0.00  0.00    +0.068 C 
BRANCH  29  32
ATOM     32  C   UNL     1      -6.514  -3.887  -3.990  0.00  0.00    +0.066 A 
ATOM     33  C   UNL     1      -7.139  -4.904  -3.280  0.00  0.00    +0.028 A 
ATOM     34  C   UNL     1      -8.423  -5.288  -3.611  0.00  0.00    +0.002 A 
ATOM     35  C   UNL     1      -9.083  -4.669  -4.657  0.00  0.00    +0.000 A 
ATOM     36  C   UNL     1      -8.462  -3.659  -5.370  0.00  0.00    +0.002 A 
ATOM     37  C   UNL     1      -7.179  -3.268  -5.039  0.00  0.00    +0.028 A 
ENDBRANCH  29  32
ENDBRANCH  21  27
ENDBRANCH  20  22
ENDBRANCH   1  20
TORSDOF 7
