REMARK  Name = ZINC02727271
REMARK  11 active torsions:
REMARK  status: ('A' for Active; 'I' for Inactive)
REMARK    1  A    between atoms: C_1  and  C_2
REMARK    2  A    between atoms: C_3  and  C_30
REMARK    3  A    between atoms: C_4  and  C_23
REMARK    4  A    between atoms: C_10  and  C_15
REMARK    5  A    between atoms: C_18  and  O_21
REMARK    6  A    between atoms: O_21  and  C_22
REMARK    7  A    between atoms: C_30  and  O_32
REMARK    8  A    between atoms: O_32  and  C_33
REMARK    9  A    between atoms: C_33  and  C_34
REMARK   10  A    between atoms: C_34  and  O_35
REMARK   11  A    between atoms: O_35  and  C_36
REMARK                            x       y       z     vdW  Elec       q    Type
REMARK                         _______ _______ _______ _____ _____    ______ ____
ROOT
ATOM      1  C   UNL     1      -5.065   2.726   2.533  0.00  0.00    +0.061 C 
ATOM      2  C   UNL     1      -4.328   2.419   1.255  0.00  0.00    +0.016 C 
ATOM      3  C   UNL     1      -3.282   1.575   1.273  0.00  0.00    +0.065 C 
ATOM      4  C   UNL     1      -2.519   1.253   0.021  0.00  0.00    +0.095 C 
ATOM      5  C   UNL     1      -3.315   1.618  -1.206  0.00  0.00    +0.024 C 
ATOM      6  C   UNL     1      -4.366   2.461  -1.122  0.00  0.00    +0.016 C 
ATOM      7  N   UNL     1      -4.729   3.000   0.084  0.00  0.00    -0.321 N 
ATOM      8  C   UNL     1      -5.168   2.830  -2.345  0.00  0.00    +0.059 C 
ATOM      9  C   UNL     1      -4.265   2.798  -3.580  0.00  0.00    +0.032 C 
ATOM     10  C   UNL     1      -3.665   1.394  -3.708  0.00  0.00    +0.088 C 
ATOM     11  C   UNL     1      -2.931   1.059  -2.438  0.00  0.00    +0.162 C 
ATOM     12  O   UNL     1      -1.990   0.291  -2.478  0.00  0.00    -0.292 OA
ATOM     13  H   UNL     1      -5.349   3.908   0.104  0.00  0.00    +0.152 HD
ENDROOT
BRANCH   4  14
ATOM     14  C   UNL     1      -1.224   2.023   0.019  0.00  0.00    -0.000 A 
ATOM     15  C   UNL     1      -1.242   3.405   0.032  0.00  0.00    +0.007 A 
ATOM     16  C   UNL     1      -0.054   4.112   0.024  0.00  0.00    +0.000 A 
ATOM     17  C   UNL     1       1.153   3.438   0.009  0.00  0.00    +0.003 A 
ATOM     18  C   UNL     1       1.173   2.056   0.002  0.00  0.00    +0.038 A 
ATOM     19  C   UNL     1      -0.016   1.347   0.009  0.00  0.00    +0.127 A 
ATOM     20  F   UNL     1       0.002  -0.004   0.002  0.00  0.00    -0.205 F 
ENDBRANCH   4  14
BRANCH   9  21
ATOM     21  C   UNL     1      -5.078   3.115  -4.809  0.00  0.00    -0.043 A 
ATOM     22  C   UNL     1      -6.142   2.306  -5.161  0.00  0.00    +0.007 A 
ATOM     23  C   UNL     1      -6.892   2.598  -6.284  0.00  0.00    +0.046 A 
ATOM     24  C   UNL     1      -6.569   3.697  -7.066  0.00  0.00    +0.120 A 
ATOM     25  C   UNL     1      -5.497   4.505  -6.714  0.00  0.00    +0.046 A 
ATOM     26  C   UNL     1      -4.754   4.212  -5.587  0.00  0.00    +0.007 A 
BRANCH  24  27
ATOM     27  O   UNL     1      -7.302   3.983  -8.174  0.00  0.00    -0.495 OA
ATOM     28  C   UNL     1      -8.391   3.109  -8.475  0.00  0.00    +0.277 C 
ENDBRANCH  24  27
ENDBRANCH   9  21
BRANCH   3  29
ATOM     29  C   UNL     1      -2.892   0.980   2.495  0.00  0.00    +0.338 C 
ATOM     30  O   UNL     1      -3.502   1.233   3.517  0.00  0.00    -0.245 OA
BRANCH  29  31
ATOM     31  O   UNL     1      -1.843   0.131   2.528  0.00  0.00    -0.458 OA
BRANCH  31  32
ATOM     32  C   UNL     1      -1.505  -0.433   3.797  0.00  0.00    +0.273 C 
BRANCH  32  33
ATOM     33  C   UNL     1      -0.300  -1.362   3.637  0.00  0.00    +0.270 C 
BRANCH  33  34
ATOM     34  O   UNL     1       0.842  -0.598   3.246  0.00  0.00    -0.489 OA
BRANCH  34  35
ATOM     35  C   UNL     1       2.005  -1.277   3.060  0.00  0.00    +0.121 A 
ATOM     36  C   UNL     1       2.046  -2.650   3.255  0.00  0.00    +0.045 A 
ATOM     37  C   UNL     1       3.228  -3.339   3.059  0.00  0.00    +0.004 A 
ATOM     38  C   UNL     1       4.371  -2.659   2.682  0.00  0.00    +0.000 A 
ATOM     39  C   UNL     1       4.334  -1.290   2.492  0.00  0.00    +0.004 A 
ATOM     40  C   UNL     1       3.153  -0.598   2.681  0.00  0.00    +0.045 A 
ENDBRANCH  34  35
ENDBRANCH  33  34
ENDBRANCH  32  33
ENDBRANCH  31  32
ENDBRANCH  29  31
ENDBRANCH   3  29
TORSDOF 9
