REMARK  Name = ZINC12070935
REMARK  13 active torsions:
REMARK  status: ('A' for Active; 'I' for Inactive)
REMARK    1  A    between atoms: C_1  and  C_2
REMARK    2  A    between atoms: C_2  and  O_3
REMARK    3  A    between atoms: O_3  and  C_4
REMARK    4  A    between atoms: C_12  and  N_18
REMARK    5  A    between atoms: C_13  and  C_14
REMARK    6  A    between atoms: C_14  and  O_16
REMARK    7  A    between atoms: O_16  and  C_17
REMARK    8  A    between atoms: C_19  and  C_21
REMARK    9  A    between atoms: C_21  and  C_22
REMARK   10  A    between atoms: C_25  and  S_28
REMARK   11  A    between atoms: S_28  and  C_29
REMARK   12  A    between atoms: C_29  and  C_30
REMARK   13  A    between atoms: C_29  and  C_31
REMARK                            x       y       z     vdW  Elec       q    Type
REMARK                         _______ _______ _______ _____ _____    ______ ____
ROOT
ATOM      1  C   UNL     1       2.702   7.468   8.917  0.00  0.00    +0.403 C 
ATOM      2  O   UNL     1       2.923   8.582   9.351  0.00  0.00    -0.226 OA
ATOM      3  N   UNL     1       1.875   7.307   7.865  0.00  0.00    -0.262 N 
ATOM      4  C   UNL     1       1.226   8.459   7.221  0.00  0.00    +0.116 C 
ATOM      5  C   UNL     1       1.728   8.592   5.782  0.00  0.00    +0.056 C 
ATOM      6  C   UNL     1       1.668   7.230   5.103  0.00  0.00    -0.018 A 
ATOM      7  C   UNL     1       1.609   6.088   5.822  0.00  0.00    +0.013 A 
ATOM      8  S   UNL     1       1.559   4.792   4.618  0.00  0.00    -0.076 S 
ATOM      9  C   UNL     1       1.615   5.749   3.175  0.00  0.00    +0.086 A 
ATOM     10  C   UNL     1       1.677   7.049   3.660  0.00  0.00    +0.091 A 
ATOM     11  C   UNL     1       1.587   5.967   7.316  0.00  0.00    +0.153 C 
ENDROOT
BRANCH   9  12
ATOM     12  N   UNL     1       1.607   5.321   1.856  0.00  0.00    -0.279 N 
ATOM     13  C   UNL     1       1.549   4.004   1.576  0.00  0.00    +0.222 C 
ATOM     14  O   UNL     1       1.504   3.194   2.477  0.00  0.00    -0.275 OA
ATOM     15  H   UNL     1       1.643   5.969   1.136  0.00  0.00    +0.155 HD
BRANCH  13  16
ATOM     16  C   UNL     1       1.540   3.539   0.143  0.00  0.00    +0.131 C 
BRANCH  16  17
ATOM     17  C   UNL     1       1.471   2.034   0.103  0.00  0.00    -0.039 A 
ATOM     18  C   UNL     1       0.242   1.400   0.075  0.00  0.00    +0.005 A 
ATOM     19  C   UNL     1       0.175   0.021   0.040  0.00  0.00    +0.015 A 
ATOM     20  C   UNL     1       1.344  -0.730   0.032  0.00  0.00    +0.008 A 
ATOM     21  C   UNL     1       2.577  -0.089   0.060  0.00  0.00    +0.015 A 
ATOM     22  C   UNL     1       2.636   1.290   0.096  0.00  0.00    +0.005 A 
BRANCH  20  23
ATOM     23  S   UNL     1       1.264  -2.489  -0.013  0.00  0.00    -0.122 S 
BRANCH  23  24
ATOM     24  C   UNL     1       1.081  -2.875  -1.776  0.00  0.00    +0.045 C 
ATOM     25  C   UNL     1       2.365  -2.495  -2.517  0.00  0.00    +0.019 C 
ATOM     26  C   UNL     1       0.819  -4.373  -1.946  0.00  0.00    +0.019 C 
ENDBRANCH  23  24
ENDBRANCH  20  23
ENDBRANCH  16  17
ENDBRANCH  13  16
ENDBRANCH   9  12
BRANCH  10  27
ATOM     27  C   UNL     1       1.743   8.196   2.751  0.00  0.00    +0.342 C 
ATOM     28  O   UNL     1       0.718   8.725   2.365  0.00  0.00    -0.245 OA
BRANCH  27  29
ATOM     29  O   UNL     1       2.940   8.664   2.343  0.00  0.00    -0.464 OA
ATOM     30  C   UNL     1       2.930   9.804   1.443  0.00  0.00    +0.280 C 
ENDBRANCH  27  29
ENDBRANCH  10  27
BRANCH   1  31
ATOM     31  O   UNL     1       3.282   6.396   9.488  0.00  0.00    -0.451 OA
BRANCH  31  33
ATOM     32  C   UNL     1       4.723   5.317  11.128  0.00  0.00    +0.048 C 
ATOM     33  C   UNL     1       4.161   6.645  10.617  0.00  0.00    +0.230 C 
ENDBRANCH  31  33
ENDBRANCH   1  31
TORSDOF 9
