REMARK  Name = ZINC08689986
REMARK  8 active torsions:
REMARK  status: ('A' for Active; 'I' for Inactive)
REMARK    1  A    between atoms: C_1  and  C_2
REMARK    2  A    between atoms: C_4  and  C_36
REMARK    3  A    between atoms: C_5  and  S_11
REMARK    4  A    between atoms: C_7  and  N_8
REMARK    5  A    between atoms: S_11  and  N_14
REMARK    6  A    between atoms: C_19  and  C_20
REMARK    7  A    between atoms: C_19  and  N_63
REMARK    8  A    between atoms: C_20  and  N_21
REMARK                            x       y       z     vdW  Elec       q    Type
REMARK                         _______ _______ _______ _____ _____    ______ ____
ROOT
ATOM      1  N   UNL     1       7.653   9.540  -1.887  0.00  0.00    -0.180 NA
ATOM      2  C   UNL     1       7.814   8.111  -2.197  0.00  0.00    +0.091 C 
ATOM      3  C   UNL     1       6.460   7.417  -2.012  0.00  0.00    -0.061 C 
ATOM      4  C   UNL     1       5.696   9.143  -0.489  0.00  0.00    -0.061 C 
ATOM      5  C   UNL     1       7.018   9.907  -0.612  0.00  0.00    +0.091 C 
ATOM      6  N   UNL     1       5.967   7.697  -0.646  0.00  0.00    +0.382 N 
ATOM      7  H   UNL     1       6.686   7.418   0.032  0.00  0.00    -0.082 HD
ENDROOT
BRANCH   1   8
ATOM      8  S   UNL     1       8.173  10.704  -2.944  0.00  0.00    +0.061 S 
ATOM      9  O   UNL     1       8.546  11.828  -2.159  0.00  0.00    -0.153 OA
ATOM     10  O   UNL     1       9.074  10.066  -3.838  0.00  0.00    -0.153 OA
BRANCH   8  15
ATOM     11  C   UNL     1       3.398  12.398  -6.220  0.00  0.00    +0.046 C 
ATOM     12  C   UNL     1       4.591  11.975  -5.402  0.00  0.00    -0.020 A 
ATOM     13  C   UNL     1       5.097  10.694  -5.529  0.00  0.00    +0.011 A 
ATOM     14  C   UNL     1       6.194  10.308  -4.781  0.00  0.00    -0.024 A 
ATOM     15  C   UNL     1       6.779  11.198  -3.901  0.00  0.00    +0.111 A 
ATOM     16  C   UNL     1       6.273  12.479  -3.775  0.00  0.00    +0.061 A 
ATOM     17  C   UNL     1       5.179  12.867  -4.526  0.00  0.00    +0.131 A 
ATOM     18  C   UNL     1       6.748   8.914  -4.923  0.00  0.00    +0.046 C 
BRANCH  17  19
ATOM     19  N   UNL     1       4.638  14.238  -4.390  0.00  0.00    +0.057 N 
ATOM     20  O   UNL     1       5.081  14.987  -3.538  0.00  0.00    -0.126 OA
ATOM     21  O   UNL     1       3.748  14.617  -5.131  0.00  0.00    -0.126 OA
ENDBRANCH  17  19
ENDBRANCH   8  15
ENDBRANCH   1   8
BRANCH   6  22
ATOM     22  C   UNL     1       4.736   6.922  -0.386  0.00  0.00    -0.059 C 
BRANCH  22  23
ATOM     23  C   UNL     1       4.373   7.055   1.095  0.00  0.00    +0.098 C 
BRANCH  23  24
ATOM     24  N   UNL     1       3.167   6.274   1.374  0.00  0.00    -0.236 N 
ATOM     25  C   UNL     1       3.300   4.986   1.746  0.00  0.00    +0.254 C 
ATOM     26  O   UNL     1       4.409   4.497   1.844  0.00  0.00    -0.270 OA
ATOM     27  C   UNL     1       2.112   4.170   2.035  0.00  0.00    +0.046 A 
ATOM     28  C   UNL     1       2.203   2.840   2.421  0.00  0.00    +0.014 A 
ATOM     29  C   UNL     1       1.050   2.109   2.684  0.00  0.00    +0.001 A 
ATOM     30  C   UNL     1      -0.192   2.664   2.567  0.00  0.00    +0.008 A 
ATOM     31  C   UNL     1      -0.327   4.010   2.183  0.00  0.00    -0.016 A 
ATOM     32  C   UNL     1       0.835   4.763   1.914  0.00  0.00    +0.006 A 
ATOM     33  C   UNL     1       0.731   6.117   1.521  0.00  0.00    +0.046 A 
ATOM     34  C   UNL     1      -0.526   6.690   1.404  0.00  0.00    +0.014 A 
ATOM     35  C   UNL     1      -1.664   5.937   1.672  0.00  0.00    +0.001 A 
ATOM     36  C   UNL     1      -1.583   4.628   2.053  0.00  0.00    +0.008 A 
ATOM     37  C   UNL     1       1.965   6.869   1.249  0.00  0.00    +0.254 C 
ATOM     38  O   UNL     1       1.900   8.035   0.910  0.00  0.00    -0.270 OA
ENDBRANCH  23  24
ENDBRANCH  22  23
ENDBRANCH   6  22
TORSDOF 6
