REMARK  Name = ZINC63137672
REMARK  10 active torsions:
REMARK  status: ('A' for Active; 'I' for Inactive)
REMARK    1  A    between atoms: C_1  and  O_2
REMARK    2  A    between atoms: O_2  and  C_3
REMARK    3  A    between atoms: C_7  and  C_9
REMARK    4  A    between atoms: N_28  and  C_31
REMARK    5  A    between atoms: C_31  and  C_32
REMARK    6  A    between atoms: C_32  and  C_33
REMARK    7  A    between atoms: C_36  and  O_41
REMARK    8  A    between atoms: C_37  and  O_39
REMARK    9  A    between atoms: O_39  and  C_40
REMARK   10  A    between atoms: O_41  and  C_42
REMARK                            x       y       z     vdW  Elec       q    Type
REMARK                         _______ _______ _______ _____ _____    ______ ____
ROOT
ATOM      1  C   UNL     1       1.389  -4.130   2.211  0.00  0.00    +0.134 C 
ATOM      2  C   UNL     1       0.415  -4.652   3.271  0.00  0.00    +0.131 C 
ATOM      3  C   UNL     1       0.985  -4.250   4.626  0.00  0.00    -0.034 C 
ATOM      4  C   UNL     1       0.033  -3.560   5.243  0.00  0.00    -0.001 A 
ATOM      5  C   UNL     1      -0.035  -2.978   6.593  0.00  0.00    +0.010 A 
ATOM      6  C   UNL     1      -1.179  -2.311   6.901  0.00  0.00    +0.001 A 
ATOM      7  C   UNL     1      -2.248  -2.167   6.012  0.00  0.00    +0.002 A 
ATOM      8  C   UNL     1      -2.274  -2.675   4.754  0.00  0.00    +0.026 A 
ATOM      9  C   UNL     1      -1.128  -3.401   4.316  0.00  0.00    +0.043 A 
ATOM     10  N   UNL     1      -0.899  -4.013   3.170  0.00  0.00    -0.375 N 
ATOM     11  C   UNL     1       2.403  -4.567   5.032  0.00  0.00    +0.065 C 
ATOM     12  C   UNL     1       3.306  -4.103   3.873  0.00  0.00    +0.167 C 
ATOM     13  N   UNL     1       2.751  -4.556   2.601  0.00  0.00    -0.279 N 
ATOM     14  C   UNL     1       3.423  -5.352   1.760  0.00  0.00    +0.234 C 
ATOM     15  O   UNL     1       2.866  -5.689   0.737  0.00  0.00    -0.274 OA
ATOM     16  C   UNL     1       4.810  -5.853   1.992  0.00  0.00    +0.203 C 
ATOM     17  N   UNL     1       5.366  -5.371   3.245  0.00  0.00    -0.291 N 
ATOM     18  C   UNL     1       4.700  -4.588   4.097  0.00  0.00    +0.237 C 
ATOM     19  O   UNL     1       5.263  -4.246   5.116  0.00  0.00    -0.274 OA
ATOM     20  H   UNL     1      -1.483  -4.038   2.396  0.00  0.00    +0.160 HD
ENDROOT
BRANCH   1  25
ATOM     21  C   UNL     1       0.918  -0.610   0.919  0.00  0.00    +0.120 A 
ATOM     22  C   UNL     1       1.201   0.139   2.052  0.00  0.00    +0.045 A 
ATOM     23  C   UNL     1       1.542  -0.496   3.230  0.00  0.00    +0.004 A 
ATOM     24  C   UNL     1       1.602  -1.877   3.281  0.00  0.00    +0.006 A 
ATOM     25  C   UNL     1       1.321  -2.625   2.153  0.00  0.00    -0.021 A 
ATOM     26  C   UNL     1       0.974  -1.995   0.973  0.00  0.00    +0.051 A 
BRANCH  21  28
ATOM     27  C   UNL     1       0.544   1.441  -0.224  0.00  0.00    +0.277 C 
ATOM     28  O   UNL     1       0.582   0.012  -0.242  0.00  0.00    -0.495 OA
ENDBRANCH  21  28
ENDBRANCH   1  25
BRANCH  17  29
ATOM     29  C   UNL     1       6.732  -5.769   3.595  0.00  0.00    +0.113 C 
BRANCH  29  30
ATOM     30  C   UNL     1       7.720  -4.741   3.041  0.00  0.00    +0.054 C 
BRANCH  30  31
ATOM     31  C   UNL     1       9.125  -5.151   3.401  0.00  0.00    -0.042 A 
ATOM     32  C   UNL     1       9.687  -4.717   4.587  0.00  0.00    +0.007 A 
ATOM     33  C   UNL     1      10.976  -5.090   4.922  0.00  0.00    +0.049 A 
ATOM     34  C   UNL     1      11.707  -5.900   4.067  0.00  0.00    +0.161 A 
ATOM     35  C   UNL     1      11.141  -6.336   2.873  0.00  0.00    +0.162 A 
ATOM     36  C   UNL     1       9.847  -5.963   2.546  0.00  0.00    +0.053 A 
BRANCH  35  37
ATOM     37  O   UNL     1      11.854  -7.131   2.031  0.00  0.00    -0.491 OA
ATOM     38  C   UNL     1      11.209  -7.541   0.824  0.00  0.00    +0.277 C 
ENDBRANCH  35  37
BRANCH  34  39
ATOM     39  O   UNL     1      12.975  -6.267   4.395  0.00  0.00    -0.491 OA
ATOM     40  C   UNL     1      13.491  -5.782   5.635  0.00  0.00    +0.277 C 
ENDBRANCH  34  39
ENDBRANCH  30  31
ENDBRANCH  29  30
ENDBRANCH  17  29
TORSDOF 7
