REMARK  Name = ZINC59795117
REMARK  10 active torsions:
REMARK  status: ('A' for Active; 'I' for Inactive)
REMARK    1  A    between atoms: C_1  and  C_2
REMARK    2  A    between atoms: C_2  and  C_3
REMARK    3  A    between atoms: C_3  and  C_5
REMARK    4  A    between atoms: C_3  and  S_6
REMARK    5  A    between atoms: S_6  and  C_7
REMARK    6  A    between atoms: C_13  and  C_15
REMARK    7  A    between atoms: C_15  and  S_16
REMARK    8  A    between atoms: S_16  and  C_17
REMARK    9  A    between atoms: C_20  and  C_23
REMARK   10  A    between atoms: N_21  and  N_22
REMARK                            x       y       z     vdW  Elec       q    Type
REMARK                         _______ _______ _______ _____ _____    ______ ____
ROOT
ATOM      1  S   UNL     1       4.705  -3.065  -9.677  0.00  0.00    -0.075 S 
ENDROOT
BRANCH   1   2
ATOM      2  C   UNL     1       5.885  -3.307 -10.963  0.00  0.00    +0.209 A 
ATOM      3  N   UNL     1       7.153  -2.961 -10.933  0.00  0.00    -0.121 NA
ATOM      4  N   UNL     1       7.725  -3.285 -12.037  0.00  0.00    -0.127 NA
ATOM      5  C   UNL     1       6.858  -3.857 -12.840  0.00  0.00    +0.182 A 
ATOM      6  N   UNL     1       5.654  -3.893 -12.175  0.00  0.00    -0.224 N 
BRANCH   5   7
ATOM      7  C   UNL     1       7.126  -4.370 -14.200  0.00  0.00    +0.021 A 
ATOM      8  C   UNL     1       6.066  -4.661 -15.061  0.00  0.00    +0.013 A 
ATOM      9  C   UNL     1       6.323  -5.140 -16.328  0.00  0.00    +0.021 A 
ATOM     10  C   UNL     1       7.628  -5.333 -16.748  0.00  0.00    +0.041 A 
ATOM     11  C   UNL     1       8.684  -5.046 -15.899  0.00  0.00    +0.021 A 
ATOM     12  C   UNL     1       8.440  -4.561 -14.631  0.00  0.00    +0.013 A 
ATOM     13 CL   UNL     1       7.943  -5.936 -18.345  0.00  0.00    -0.084 Cl
ENDBRANCH   5   7
BRANCH   6  14
ATOM     14  N   UNL     1       4.474  -4.406 -12.632  0.00  0.00    -0.295 N 
ATOM     15  H   UNL     1       3.937  -3.703 -13.117  0.00  0.00    +0.163 HD
ATOM     16  H   UNL     1       4.633  -5.210 -13.221  0.00  0.00    +0.163 HD
ENDBRANCH   6  14
ENDBRANCH   1   2
BRANCH   1  17
ATOM     17  C   UNL     1       5.649  -2.244  -8.364  0.00  0.00    +0.173 C 
BRANCH  17  24
ATOM     18  C   UNL     1       3.102  -0.498  -2.760  0.00  0.00    +0.160 A 
ATOM     19  N   UNL     1       2.499  -1.099  -3.775  0.00  0.00    -0.133 NA
ATOM     20  N   UNL     1       3.114  -1.394  -4.836  0.00  0.00    -0.125 NA
ATOM     21  C   UNL     1       4.398  -1.122  -5.001  0.00  0.00    +0.189 A 
ATOM     22  S   UNL     1       4.754  -0.338  -3.431  0.00  0.00    -0.024 S 
ATOM     23  N   UNL     1       5.233  -1.369  -6.088  0.00  0.00    -0.263 N 
ATOM     24  C   UNL     1       4.746  -1.976  -7.188  0.00  0.00    +0.229 C 
ATOM     25  O   UNL     1       3.579  -2.307  -7.231  0.00  0.00    -0.275 OA
ATOM     26  H   UNL     1       6.166  -1.105  -6.053  0.00  0.00    +0.157 HD
BRANCH  18  27
ATOM     27  S   UNL     1       2.460   0.006  -1.198  0.00  0.00    -0.094 S 
BRANCH  27  28
ATOM     28  C   UNL     1       0.718  -0.497  -1.257  0.00  0.00    +0.050 C 
ATOM     29  C   UNL     1       0.630  -2.023  -1.329  0.00  0.00    +0.019 C 
BRANCH  28  31
ATOM     30  C   UNL     1      -0.019   1.526   0.010  0.00  0.00    +0.005 C 
ATOM     31  C   UNL     1       0.002  -0.004   0.002  0.00  0.00    +0.011 C 
ENDBRANCH  28  31
ENDBRANCH  27  28
ENDBRANCH  18  27
ENDBRANCH  17  24
ENDBRANCH   1  17
TORSDOF 8
