REMARK  Name = ZINC12364648
REMARK  3 active torsions:
REMARK  status: ('A' for Active; 'I' for Inactive)
REMARK    1  A    between atoms: C_5  and  S_7
REMARK    2  A    between atoms: S_7  and  N_10
REMARK    3  A    between atoms: N_10  and  C_11
REMARK                            x       y       z     vdW  Elec       q    Type
REMARK                         _______ _______ _______ _____ _____    ______ ____
ROOT
ATOM      1  S   UNL     1       2.475   1.214  -1.044  0.00  0.00    +0.061 S 
ATOM      2  O   UNL     1       3.606   2.049  -0.833  0.00  0.00    -0.153 OA
ATOM      3  O   UNL     1       2.537  -0.199  -0.912  0.00  0.00    -0.153 OA
ENDROOT
BRANCH   1   8
ATOM      4  C   UNL     1       2.137   2.720  -4.756  0.00  0.00    +0.004 A 
ATOM      5  C   UNL     1       1.052   2.115  -5.296  0.00  0.00    +0.031 A 
ATOM      6  C   UNL     1       0.317   1.167  -4.538  0.00  0.00    +0.102 A 
ATOM      7  C   UNL     1       0.763   0.866  -3.180  0.00  0.00    +0.126 A 
ATOM      8  C   UNL     1       1.905   1.542  -2.679  0.00  0.00    +0.133 A 
ATOM      9  C   UNL     1       2.560   2.436  -3.458  0.00  0.00    +0.031 A 
ATOM     10  N   UNL     1      -0.019  -0.033  -2.585  0.00  0.00    -0.189 NA
ATOM     11  S   UNL     1      -1.124  -0.413  -3.630  0.00  0.00    +0.117 S 
ATOM     12  N   UNL     1      -0.765   0.468  -4.875  0.00  0.00    -0.191 NA
ENDBRANCH   1   8
BRANCH   1  13
ATOM     13  N   UNL     1       1.300   1.736  -0.001  0.00  0.00    -0.186 NA
ATOM     14  H   UNL     1       1.481   2.473   0.604  0.00  0.00    +0.148 HD
BRANCH  13  15
ATOM     15  C   UNL     1      -0.013   1.086   0.008  0.00  0.00    +0.083 C 
ATOM     16  C   UNL     1      -1.131   1.754   0.823  0.00  0.00    +0.013 C 
ATOM     17  C   UNL     1      -1.157   1.800  -0.699  0.00  0.00    +0.013 C 
ATOM     18  C   UNL     1      -0.898   3.111  -1.425  0.00  0.00    +0.005 C 
ATOM     19  C   UNL     1      -0.132   4.080  -0.524  0.00  0.00    +0.000 C 
ATOM     20  C   UNL     1      -0.912   4.250   0.785  0.00  0.00    +0.000 C 
ATOM     21  C   UNL     1      -0.731   2.987   1.627  0.00  0.00    +0.005 C 
ENDBRANCH  13  15
ENDBRANCH   1  13
TORSDOF 3
