REMARK  Name = ZINC44179414
REMARK  13 active torsions:
REMARK  status: ('A' for Active; 'I' for Inactive)
REMARK    1  A    between atoms: C_1  and  C_2
REMARK    2  A    between atoms: C_2  and  C_3
REMARK    3  A    between atoms: C_2  and  C_4
REMARK    4  A    between atoms: C_4  and  C_6
REMARK    5  A    between atoms: C_4  and  N_16
REMARK    6  A    between atoms: C_9  and  C_12
REMARK    7  A    between atoms: C_12  and  C_13
REMARK    8  A    between atoms: C_12  and  C_14
REMARK    9  A    between atoms: C_12  and  C_15
REMARK   10  A    between atoms: N_19  and  C_20
REMARK   11  A    between atoms: C_25  and  C_26
REMARK   12  A    between atoms: C_26  and  C_27
REMARK   13  A    between atoms: N_29  and  C_30
REMARK                            x       y       z     vdW  Elec       q    Type
REMARK                         _______ _______ _______ _____ _____    ______ ____
ROOT
ATOM      1  N   UNL     1      -1.397  -1.999   0.003  0.00  0.00    -0.292 N 
ATOM      2  C   UNL     1      -1.288  -2.677   1.162  0.00  0.00    +0.304 C 
ATOM      3  O   UNL     1      -1.202  -2.073   2.214  0.00  0.00    -0.252 OA
ATOM      4  N   UNL     1      -1.273  -4.025   1.155  0.00  0.00    -0.269 N 
ATOM      5  H   UNL     1      -1.465  -2.480  -0.837  0.00  0.00    +0.151 HD
ATOM      6  H   UNL     1      -1.423  -4.507   0.327  0.00  0.00    +0.156 HD
ENDROOT
BRANCH   4   7
ATOM      7  C   UNL     1      -1.042  -4.728   2.343  0.00  0.00    +0.038 A 
ATOM      8  C   UNL     1      -0.341  -4.129   3.381  0.00  0.00    +0.023 A 
ATOM      9  C   UNL     1      -0.115  -4.825   4.552  0.00  0.00    +0.002 A 
ATOM     10  C   UNL     1      -0.585  -6.118   4.691  0.00  0.00    +0.000 A 
ATOM     11  C   UNL     1      -1.283  -6.718   3.659  0.00  0.00    +0.006 A 
ATOM     12  C   UNL     1      -1.518  -6.024   2.488  0.00  0.00    -0.017 A 
BRANCH  12  13
ATOM     13  C   UNL     1      -2.284  -6.676   1.366  0.00  0.00    +0.132 C 
BRANCH  13  14
ATOM     14  C   UNL     1      -1.317  -7.295   0.390  0.00  0.00    +0.217 C 
ATOM     15  O   UNL     1      -0.123  -7.215   0.587  0.00  0.00    -0.275 OA
ATOM     16  N   UNL     1      -1.779  -7.938  -0.700  0.00  0.00    -0.318 N 
ATOM     17  C   UNL     1      -0.839  -8.540  -1.649  0.00  0.00    +0.128 C 
ATOM     18  H   UNL     1      -2.734  -8.002  -0.857  0.00  0.00    +0.148 HD
ENDBRANCH  13  14
ENDBRANCH  12  13
ENDBRANCH   4   7
BRANCH   1  19
ATOM     19  C   UNL     1      -1.413  -0.534   0.010  0.00  0.00    +0.107 C 
BRANCH  19  20
ATOM     20  C   UNL     1      -2.129  -0.033  -1.218  0.00  0.00    -0.027 A 
ATOM     21  C   UNL     1      -1.939  -0.663  -2.434  0.00  0.00    +0.006 A 
ATOM     22  C   UNL     1      -2.596  -0.203  -3.560  0.00  0.00    +0.004 A 
ATOM     23  C   UNL     1      -3.443   0.886  -3.470  0.00  0.00    -0.042 A 
ATOM     24  C   UNL     1      -3.633   1.515  -2.254  0.00  0.00    +0.004 A 
ATOM     25  C   UNL     1      -2.980   1.053  -1.127  0.00  0.00    +0.006 A 
BRANCH  23  26
ATOM     26  C   UNL     1      -4.158   1.387  -4.698  0.00  0.00    -0.013 C 
ATOM     27  C   UNL     1      -5.045   0.275  -5.262  0.00  0.00    +0.015 C 
ATOM     28  C   UNL     1      -5.026   2.592  -4.327  0.00  0.00    +0.015 C 
ATOM     29  C   UNL     1      -3.131   1.804  -5.752  0.00  0.00    +0.015 C 
ENDBRANCH  23  26
ENDBRANCH  19  20
BRANCH  19  31
ATOM     30  C   UNL     1       0.008   1.522   0.020  0.00  0.00    +0.009 C 
ATOM     31  C   UNL     1       0.025  -0.008   0.012  0.00  0.00    +0.008 C 
ATOM     32  C   UNL     1       0.752  -0.517   1.258  0.00  0.00    +0.009 C 
ENDBRANCH  19  31
ENDBRANCH   1  19
TORSDOF 7
