REMARK  Name = ZINC38701975
REMARK  12 active torsions:
REMARK  status: ('A' for Active; 'I' for Inactive)
REMARK    1  A    between atoms: C_1  and  C_2
REMARK    2  A    between atoms: C_2  and  C_3
REMARK    3  A    between atoms: C_3  and  O_4
REMARK    4  A    between atoms: O_4  and  C_5
REMARK    5  A    between atoms: C_8  and  C_14
REMARK    6  A    between atoms: C_10  and  O_11
REMARK    7  A    between atoms: O_11  and  C_12
REMARK    8  A    between atoms: C_12  and  C_13
REMARK    9  A    between atoms: C_17  and  C_33
REMARK   10  A    between atoms: N_24  and  C_25
REMARK   11  A    between atoms: C_35  and  C_40
REMARK   12  A    between atoms: C_38  and  O_39
REMARK                            x       y       z     vdW  Elec       q    Type
REMARK                         _______ _______ _______ _____ _____    ______ ____
ROOT
ATOM      1  C   UNL     1       3.341  -4.279   5.412  0.00  0.00    +0.142 C 
ATOM      2  C   UNL     1       4.827  -4.439   5.247  0.00  0.00    +0.035 A 
ATOM      3  C   UNL     1       5.880  -4.971   4.494  0.00  0.00    +0.102 A 
ATOM      4  N   UNL     1       7.005  -4.620   5.087  0.00  0.00    -0.173 NA
ATOM      5  N   UNL     1       6.766  -3.921   6.138  0.00  0.00    -0.272 N 
ATOM      6  H   UNL     1       7.443  -3.555   6.729  0.00  0.00    +0.189 HD
ATOM      7  C   UNL     1       5.419  -3.768   6.300  0.00  0.00    +0.126 A 
ATOM      8  C   UNL     1       4.362  -3.184   7.133  0.00  0.00    +0.266 C 
ATOM      9  O   UNL     1       4.553  -2.529   8.140  0.00  0.00    -0.268 OA
ATOM     10  N   UNL     1       3.149  -3.476   6.626  0.00  0.00    -0.280 N 
ENDROOT
BRANCH  10  11
ATOM     11  C   UNL     1       1.860  -3.063   7.187  0.00  0.00    +0.100 C 
ATOM     12  C   UNL     1       1.796  -1.529   7.268  0.00  0.00    +0.047 C 
ATOM     13  C   UNL     1       0.595  -1.096   8.142  0.00  0.00    +0.168 C 
ATOM     14  S   UNL     1       0.398  -2.518   9.291  0.00  0.00    -0.029 S 
ATOM     15  O   UNL     1       0.762  -2.107  10.602  0.00  0.00    -0.174 OA
ATOM     16  O   UNL     1      -0.872  -3.116   9.074  0.00  0.00    -0.174 OA
ATOM     17  C   UNL     1       1.708  -3.630   8.627  0.00  0.00    +0.188 C 
ENDBRANCH  10  11
BRANCH   3  18
ATOM     18  C   UNL     1       5.755  -5.780   3.256  0.00  0.00    +0.044 A 
ATOM     19  C   UNL     1       4.822  -6.811   3.187  0.00  0.00    +0.017 A 
ATOM     20  C   UNL     1       4.708  -7.562   2.034  0.00  0.00    -0.050 A 
ATOM     21  C   UNL     1       5.519  -7.292   0.946  0.00  0.00    +0.007 A 
ATOM     22  C   UNL     1       6.448  -6.271   1.004  0.00  0.00    +0.046 A 
ATOM     23  C   UNL     1       6.568  -5.506   2.153  0.00  0.00    +0.126 A 
ATOM     24  C   UNL     1       3.699  -8.678   1.961  0.00  0.00    +0.044 C 
BRANCH  23  25
ATOM     25  O   UNL     1       7.477  -4.498   2.210  0.00  0.00    -0.506 OA
ATOM     26  H   UNL     1       8.366  -4.784   2.459  0.00  0.00    +0.292 HD
ENDBRANCH  23  25
ENDBRANCH   3  18
BRANCH   1  30
ATOM     27  C   UNL     1       1.698  -2.244   2.029  0.00  0.00    +0.162 A 
ATOM     28  C   UNL     1       2.486  -1.557   2.938  0.00  0.00    +0.050 A 
ATOM     29  C   UNL     1       3.015  -2.218   4.031  0.00  0.00    +0.009 A 
ATOM     30  C   UNL     1       2.761  -3.564   4.219  0.00  0.00    -0.019 A 
ATOM     31  C   UNL     1       1.976  -4.255   3.314  0.00  0.00    +0.055 A 
ATOM     32  C   UNL     1       1.437  -3.597   2.220  0.00  0.00    +0.162 A 
BRANCH  27  33
ATOM     33  O   UNL     1       1.176  -1.595   0.953  0.00  0.00    -0.488 OA
BRANCH  33  34
ATOM     34  C   UNL     1       1.486  -0.206   0.820  0.00  0.00    +0.229 C 
BRANCH  34  36
ATOM     35  C   UNL     1       1.147   1.834  -0.581  0.00  0.00    +0.007 C 
ATOM     36  C   UNL     1       0.815   0.347  -0.439  0.00  0.00    +0.038 C 
ENDBRANCH  34  36
ENDBRANCH  33  34
ENDBRANCH  27  33
BRANCH  32  37
ATOM     37  O   UNL     1       0.660  -4.274   1.333  0.00  0.00    -0.489 OA
BRANCH  37  38
ATOM     38  C   UNL     1       0.435  -5.661   1.594  0.00  0.00    +0.226 C 
ATOM     39  C   UNL     1      -0.455  -6.248   0.496  0.00  0.00    +0.048 C 
ENDBRANCH  37  38
ENDBRANCH  32  37
ENDBRANCH   1  30
TORSDOF 9
