REMARK  Name = ZINC36308967
REMARK  18 active torsions:
REMARK  status: ('A' for Active; 'I' for Inactive)
REMARK    1  A    between atoms: C_1  and  C_2
REMARK    2  A    between atoms: C_2  and  C_3
REMARK    3  A    between atoms: C_2  and  C_4
REMARK    4  A    between atoms: C_2  and  O_5
REMARK    5  A    between atoms: O_5  and  C_6
REMARK    6  A    between atoms: C_6  and  C_7
REMARK    7  A    between atoms: C_7  and  C_9
REMARK    8  A    between atoms: C_7  and  O_37
REMARK    9  A    between atoms: C_9  and  N_10
REMARK   10  A    between atoms: N_10  and  C_11
REMARK   11  A    between atoms: N_10  and  C_14
REMARK   12  A    between atoms: C_11  and  C_12
REMARK   13  A    between atoms: C_14  and  C_15
REMARK   14  A    between atoms: C_25  and  C_27
REMARK   15  A    between atoms: C_27  and  O_28
REMARK   16  A    between atoms: O_28  and  C_29
REMARK   17  A    between atoms: C_33  and  O_35
REMARK   18  A    between atoms: O_35  and  C_36
REMARK                            x       y       z     vdW  Elec       q    Type
REMARK                         _______ _______ _______ _____ _____    ______ ____
ROOT
ATOM      1  C   UNL     1       6.031  -0.435  -6.058  0.00  0.00    +0.200 C 
ATOM      2  O   UNL     1       5.239  -1.160  -6.623  0.00  0.00    -0.278 OA
ATOM      3  N   UNL     1       7.173  -0.073  -6.676  0.00  0.00    -0.292 N 
ATOM      4  C   UNL     1       8.143   0.800  -5.998  0.00  0.00    +0.113 C 
ATOM      5  C   UNL     1       9.437   0.002  -5.776  0.00  0.00    +0.061 C 
ATOM      6  C   UNL     1       9.742  -0.771  -7.017  0.00  0.00    -0.004 A 
ATOM      7  C   UNL     1       8.907  -1.053  -8.054  0.00  0.00    -0.014 A 
ATOM      8  C   UNL     1       9.439  -1.806  -9.099  0.00  0.00    +0.013 A 
ATOM      9  C   UNL     1      10.728  -2.214  -9.052  0.00  0.00    +0.046 A 
ATOM     10  S   UNL     1      11.270  -1.538  -7.489  0.00  0.00    -0.101 S 
ATOM     11  C   UNL     1       7.469  -0.551  -8.034  0.00  0.00    +0.144 C 
ENDROOT
BRANCH   1  12
ATOM     12  C   UNL     1       5.738   0.060  -4.666  0.00  0.00    +0.019 C 
BRANCH  12  13
ATOM     13  N   UNL     1       4.443  -0.471  -4.219  0.00  0.00    +0.389 N 
ATOM     14  H   UNL     1       3.730  -0.228  -4.891  0.00  0.00    -0.081 HD
BRANCH  13  15
ATOM     15  C   UNL     1       4.101   0.106  -2.913  0.00  0.00    -0.044 C 
BRANCH  15  16
ATOM     16  C   UNL     1       3.867   1.611  -3.065  0.00  0.00    +0.124 C 
BRANCH  16  17
ATOM     17  O   UNL     1       2.790   1.835  -3.977  0.00  0.00    -0.391 OA
ATOM     18  H   UNL     1       1.935   1.509  -3.663  0.00  0.00    +0.210 HD
ENDBRANCH  16  17
BRANCH  16  19
ATOM     19  C   UNL     1       3.517   2.213  -1.703  0.00  0.00    +0.189 C 
BRANCH  19  20
ATOM     20  O   UNL     1       3.413   3.633  -1.823  0.00  0.00    -0.372 OA
BRANCH  20  22
ATOM     21  C   UNL     1       4.171   4.010   0.441  0.00  0.00    +0.041 C 
ATOM     22  C   UNL     1       3.087   4.297  -0.600  0.00  0.00    +0.061 C 
ATOM     23  C   UNL     1       1.739   3.788  -0.086  0.00  0.00    +0.041 C 
ATOM     24  C   UNL     1       3.002   5.805  -0.845  0.00  0.00    +0.041 C 
ENDBRANCH  20  22
ENDBRANCH  19  20
ENDBRANCH  16  19
ENDBRANCH  15  16
ENDBRANCH  13  15
BRANCH  13  25
ATOM     25  C   UNL     1       4.528  -1.933  -4.102  0.00  0.00    -0.051 C 
BRANCH  25  26
ATOM     26  C   UNL     1       3.164  -2.491  -3.787  0.00  0.00    -0.053 C 
ATOM     27  C   UNL     1       2.637  -3.407  -4.561  0.00  0.00    +0.002 C 
ENDBRANCH  25  26
ENDBRANCH  13  25
ENDBRANCH  12  13
ENDBRANCH   1  12
BRANCH  11  28
ATOM     28  C   UNL     1       7.312   0.598  -9.032  0.00  0.00    +0.256 C 
BRANCH  28  29
ATOM     29  O   UNL     1       8.296   1.599  -8.765  0.00  0.00    -0.490 OA
BRANCH  29  30
ATOM     30  C   UNL     1       8.294   2.696  -9.568  0.00  0.00    +0.124 A 
ATOM     31  C   UNL     1       7.361   2.808 -10.589  0.00  0.00    +0.046 A 
ATOM     32  C   UNL     1       7.358   3.922 -11.405  0.00  0.00    +0.007 A 
ATOM     33  C   UNL     1       8.285   4.928 -11.208  0.00  0.00    +0.046 A 
ATOM     34  C   UNL     1       9.220   4.821 -10.189  0.00  0.00    +0.124 A 
ATOM     35  C   UNL     1       9.221   3.706  -9.364  0.00  0.00    +0.091 A 
BRANCH  34  36
ATOM     36  O   UNL     1      10.132   5.810  -9.995  0.00  0.00    -0.495 OA
ATOM     37  C   UNL     1      10.069   6.932 -10.879  0.00  0.00    +0.277 C 
ENDBRANCH  34  36
ENDBRANCH  29  30
ENDBRANCH  28  29
ENDBRANCH  11  28
TORSDOF 14
