REMARK  Name = ZINC39446425
REMARK  4 active torsions:
REMARK  status: ('A' for Active; 'I' for Inactive)
REMARK    1  A    between atoms: C_4  and  C_7
REMARK    2  A    between atoms: C_10  and  C_12
REMARK    3  A    between atoms: C_12  and  S_13
REMARK    4  A    between atoms: S_13  and  C_14
REMARK                            x       y       z     vdW  Elec       q    Type
REMARK                         _______ _______ _______ _____ _____    ______ ____
ROOT
ATOM      1  S   UNL     1       7.907  -0.864  -1.785  0.00  0.00    -0.101 S 
ENDROOT
BRANCH   1   2
ATOM      2  C   UNL     1       9.703  -0.659  -1.625  0.00  0.00    +0.290 C 
ATOM      3  N   UNL     1      10.102   0.707  -1.999  0.00  0.00    -0.147 NA
ATOM      4  N   UNL     1      10.864   0.641  -2.966  0.00  0.00    -0.112 NA
ATOM      5  C   UNL     1      11.105  -0.633  -3.391  0.00  0.00    +0.253 A 
ATOM      6  N   UNL     1      10.407  -1.511  -2.591  0.00  0.00    -0.274 N 
ATOM      7  C   UNL     1      10.664  -2.783  -3.032  0.00  0.00    +0.073 A 
ATOM      8  C   UNL     1      10.254  -4.050  -2.635  0.00  0.00    +0.028 A 
ATOM      9  C   UNL     1      10.710  -5.161  -3.311  0.00  0.00    +0.002 A 
ATOM     10  C   UNL     1      11.575  -5.024  -4.389  0.00  0.00    +0.002 A 
ATOM     11  C   UNL     1      11.990  -3.790  -4.796  0.00  0.00    +0.030 A 
ATOM     12  C   UNL     1      11.542  -2.645  -4.126  0.00  0.00    +0.091 A 
ATOM     13  N   UNL     1      11.770  -1.321  -4.294  0.00  0.00    -0.209 NA
ENDBRANCH   1   2
BRANCH   1  14
ATOM     14  C   UNL     1       7.321  -0.950  -0.071  0.00  0.00    +0.169 C 
BRANCH  14  18
ATOM     15  C   UNL     1       3.695  -0.685  -0.038  0.00  0.00    +0.155 A 
ATOM     16  C   UNL     1       3.873  -2.031  -0.053  0.00  0.00    +0.161 A 
ATOM     17  N   UNL     1       5.194  -2.264  -0.066  0.00  0.00    -0.220 NA
ATOM     18  C   UNL     1       5.824  -1.123  -0.060  0.00  0.00    +0.206 A 
ATOM     19  O   UNL     1       4.926  -0.128  -0.048  0.00  0.00    -0.439 OA
BRANCH  15  23
ATOM     20  C   UNL     1      -0.017   1.379   0.010  0.00  0.00    +0.000 A 
ATOM     21  C   UNL     1       1.168   2.093   0.002  0.00  0.00    +0.001 A 
ATOM     22  C   UNL     1       2.377   1.429  -0.013  0.00  0.00    +0.011 A 
ATOM     23  C   UNL     1       2.403   0.034  -0.021  0.00  0.00    +0.019 A 
ATOM     24  C   UNL     1       1.204  -0.681  -0.013  0.00  0.00    +0.011 A 
ATOM     25  C   UNL     1       0.002  -0.004   0.002  0.00  0.00    +0.001 A 
ENDBRANCH  15  23
ENDBRANCH  14  18
ENDBRANCH   1  14
TORSDOF 4
