REMARK  Name = ZINC06409791
REMARK  15 active torsions:
REMARK  status: ('A' for Active; 'I' for Inactive)
REMARK    1  A    between atoms: C_1  and  C_2
REMARK    2  A    between atoms: C_7  and  C_14
REMARK    3  A    between atoms: C_14  and  C_16
REMARK    4  A    between atoms: C_14  and  N_78
REMARK    5  A    between atoms: N_20  and  C_21
REMARK    6  A    between atoms: C_21  and  C_22
REMARK    7  A    between atoms: C_21  and  C_23
REMARK    8  A    between atoms: C_21  and  C_24
REMARK    9  A    between atoms: C_25  and  C_26
REMARK   10  A    between atoms: C_25  and  N_78
REMARK   11  A    between atoms: C_32  and  C_33
REMARK   12  A    between atoms: C_32  and  N_78
REMARK   13  A    between atoms: C_36  and  C_39
REMARK   14  A    between atoms: C_39  and  C_40
REMARK   15  A    between atoms: C_39  and  C_41
REMARK                            x       y       z     vdW  Elec       q    Type
REMARK                         _______ _______ _______ _____ _____    ______ ____
ROOT
ATOM      1  C   UNL     1       2.797  -0.008   0.759  0.00  0.00    +0.040 C 
ENDROOT
BRANCH   1   8
ATOM      2  C   UNL     1      -4.461   2.415  -1.494  0.00  0.00    +0.044 C 
ATOM      3  C   UNL     1      -3.035   1.970  -1.295  0.00  0.00    -0.048 A 
ATOM      4  C   UNL     1      -2.188   1.867  -2.391  0.00  0.00    +0.004 A 
ATOM      5  C   UNL     1      -0.892   1.466  -2.232  0.00  0.00    +0.010 A 
ATOM      6  C   UNL     1      -0.411   1.163  -0.954  0.00  0.00    -0.001 A 
ATOM      7  C   UNL     1       0.971   0.726  -0.749  0.00  0.00    +0.017 A 
ATOM      8  C   UNL     1       1.379   0.440   0.512  0.00  0.00    +0.011 A 
ATOM      9  C   UNL     1       0.482   0.561   1.595  0.00  0.00    +0.251 A 
ATOM     10  O   UNL     1       0.870   0.300   2.720  0.00  0.00    -0.268 OA
ATOM     11  N   UNL     1      -0.791   0.957   1.415  0.00  0.00    -0.322 N 
ATOM     12  H   UNL     1      -1.381   1.029   2.181  0.00  0.00    +0.169 HD
ATOM     13  C   UNL     1      -1.268   1.262   0.158  0.00  0.00    +0.049 A 
ATOM     14  C   UNL     1      -2.584   1.672  -0.028  0.00  0.00    +0.029 A 
ENDBRANCH   1   8
BRANCH   1  15
ATOM     15  C   UNL     1       3.532  -0.093  -0.554  0.00  0.00    +0.143 A 
ATOM     16  N   UNL     1       3.958   0.912  -1.279  0.00  0.00    -0.115 NA
ATOM     17  N   UNL     1       4.537   0.431  -2.325  0.00  0.00    -0.023 NA
ATOM     18  N   UNL     1       4.492  -0.855  -2.285  0.00  0.00    -0.043 NA
ATOM     19  N   UNL     1       3.885  -1.217  -1.206  0.00  0.00    -0.225 N 
BRANCH  19  20
ATOM     20  C   UNL     1       3.625  -2.592  -0.773  0.00  0.00    +0.059 C 
ATOM     21  C   UNL     1       2.125  -2.775  -0.529  0.00  0.00    +0.036 C 
ATOM     22  C   UNL     1       4.087  -3.565  -1.860  0.00  0.00    +0.036 C 
ATOM     23  C   UNL     1       4.390  -2.873   0.521  0.00  0.00    +0.036 C 
ENDBRANCH  19  20
ENDBRANCH   1  15
BRANCH   1  24
ATOM     24  N   UNL     1       3.457   0.959   1.661  0.00  0.00    +0.395 N 
ATOM     25  H   UNL     1       2.947   0.985   2.552  0.00  0.00    -0.079 HD
BRANCH  24  26
ATOM     26  C   UNL     1       3.436   2.308   1.057  0.00  0.00    -0.041 C 
BRANCH  26  27
ATOM     27  C   UNL     1       2.177   3.011   1.496  0.00  0.00    -0.064 A 
ATOM     28  C   UNL     1       1.152   3.222   0.593  0.00  0.00    +0.002 A 
ATOM     29  C   UNL     1      -0.004   3.862   0.998  0.00  0.00    +0.000 A 
ATOM     30  C   UNL     1      -0.131   4.301   2.303  0.00  0.00    +0.000 A 
ATOM     31  C   UNL     1       0.896   4.095   3.204  0.00  0.00    +0.000 A 
ATOM     32  C   UNL     1       2.050   3.450   2.801  0.00  0.00    +0.002 A 
ENDBRANCH  26  27
ENDBRANCH  24  26
BRANCH  24  33
ATOM     33  C   UNL     1       4.851   0.542   1.917  0.00  0.00    -0.041 C 
BRANCH  33  34
ATOM     34  C   UNL     1       5.381   1.320   3.093  0.00  0.00    -0.064 A 
ATOM     35  C   UNL     1       6.044   2.516   2.889  0.00  0.00    +0.002 A 
ATOM     36  C   UNL     1       6.526   3.232   3.969  0.00  0.00    +0.004 A 
ATOM     37  C   UNL     1       6.355   2.747   5.252  0.00  0.00    -0.045 A 
ATOM     38  C   UNL     1       5.697   1.548   5.455  0.00  0.00    +0.004 A 
ATOM     39  C   UNL     1       5.210   0.835   4.376  0.00  0.00    +0.002 A 
BRANCH  37  40
ATOM     40  C   UNL     1       6.884   3.526   6.428  0.00  0.00    +0.013 C 
ATOM     41  C   UNL     1       8.380   3.784   6.238  0.00  0.00    +0.012 C 
ATOM     42  C   UNL     1       6.145   4.862   6.530  0.00  0.00    +0.012 C 
ENDBRANCH  37  40
ENDBRANCH  33  34
ENDBRANCH  24  33
ENDBRANCH   1  24
TORSDOF 9
