REMARK  Name = ZINC58989994
REMARK  8 active torsions:
REMARK  status: ('A' for Active; 'I' for Inactive)
REMARK    1  A    between atoms: C_1  and  C_2
REMARK    2  A    between atoms: C_2  and  C_22
REMARK    3  A    between atoms: N_3  and  N_4
REMARK    4  A    between atoms: C_5  and  C_7
REMARK    5  A    between atoms: C_7  and  S_8
REMARK    6  A    between atoms: S_8  and  C_9
REMARK    7  A    between atoms: C_12  and  C_15
REMARK    8  A    between atoms: N_13  and  N_14
REMARK                            x       y       z     vdW  Elec       q    Type
REMARK                         _______ _______ _______ _____ _____    ______ ____
ROOT
ATOM      1  C   UNL     1      -2.204  -3.330   2.716  0.00  0.00    +0.174 C 
ENDROOT
BRANCH   1   3
ATOM      2  N   UNL     1      -1.026  -1.642   1.345  0.00  0.00    -0.206 N 
ATOM      3  C   UNL     1      -1.517  -1.999   2.548  0.00  0.00    +0.242 C 
ATOM      4  O   UNL     1      -1.406  -1.250   3.495  0.00  0.00    -0.273 OA
ATOM      5  H   UNL     1      -1.115  -2.242   0.587  0.00  0.00    +0.177 HD
BRANCH   2   8
ATOM      6  C   UNL     1       0.814   1.238  -0.142  0.00  0.00    +0.068 C 
ATOM      7  C   UNL     1      -0.009  -0.015   0.009  0.00  0.00    +0.063 C 
ATOM      8  N   UNL     1      -0.387  -0.405   1.188  0.00  0.00    -0.185 NA
BRANCH   7   9
ATOM      9  C   UNL     1      -0.387  -0.797  -1.183  0.00  0.00    +0.001 A 
ATOM     10  C   UNL     1      -1.655  -1.376  -1.268  0.00  0.00    +0.013 A 
ATOM     11  C   UNL     1      -2.005  -2.107  -2.383  0.00  0.00    +0.050 A 
ATOM     12  C   UNL     1      -1.102  -2.270  -3.424  0.00  0.00    +0.166 A 
ATOM     13  C   UNL     1       0.166  -1.695  -3.345  0.00  0.00    +0.167 A 
ATOM     14  C   UNL     1       0.522  -0.956  -2.232  0.00  0.00    +0.059 A 
ATOM     15  O   UNL     1       0.855  -2.000  -4.484  0.00  0.00    -0.453 OA
ATOM     16  C   UNL     1       0.147  -3.106  -5.076  0.00  0.00    +0.466 C 
ATOM     17  O   UNL     1      -1.205  -2.935  -4.611  0.00  0.00    -0.453 OA
ENDBRANCH   7   9
ENDBRANCH   2   8
ENDBRANCH   1   3
BRANCH   1  18
ATOM     18  S   UNL     1      -2.749  -3.515   4.436  0.00  0.00    -0.075 S 
BRANCH  18  19
ATOM     19  C   UNL     1      -3.523  -5.098   4.470  0.00  0.00    +0.209 A 
ATOM     20  N   UNL     1      -3.648  -5.927   3.458  0.00  0.00    -0.121 NA
ATOM     21  N   UNL     1      -4.263  -6.991   3.832  0.00  0.00    -0.127 NA
ATOM     22  C   UNL     1      -4.569  -6.908   5.106  0.00  0.00    +0.182 A 
ATOM     23  N   UNL     1      -4.098  -5.695   5.555  0.00  0.00    -0.224 N 
BRANCH  22  24
ATOM     24  C   UNL     1      -5.278  -7.927   5.907  0.00  0.00    +0.021 A 
ATOM     25  C   UNL     1      -5.817  -7.591   7.150  0.00  0.00    +0.013 A 
ATOM     26  C   UNL     1      -6.478  -8.546   7.894  0.00  0.00    +0.016 A 
ATOM     27  C   UNL     1      -6.607  -9.837   7.410  0.00  0.00    +0.018 A 
ATOM     28  C   UNL     1      -6.074 -10.177   6.178  0.00  0.00    +0.016 A 
ATOM     29  C   UNL     1      -5.417  -9.229   5.422  0.00  0.00    +0.013 A 
ATOM     30 BR   UNL     1      -7.514 -11.141   8.436  0.00  0.00    -0.050 Br
ENDBRANCH  22  24
BRANCH  23  31
ATOM     31  N   UNL     1      -4.191  -5.193   6.822  0.00  0.00    -0.295 N 
ATOM     32  H   UNL     1      -5.041  -4.661   6.939  0.00  0.00    +0.163 HD
ATOM     33  H   UNL     1      -4.128  -5.929   7.509  0.00  0.00    +0.163 HD
ENDBRANCH  23  31
ENDBRANCH  18  19
ENDBRANCH   1  18
TORSDOF 7
