REMARK  Name = ZINC63649436
REMARK  10 active torsions:
REMARK  status: ('A' for Active; 'I' for Inactive)
REMARK    1  A    between atoms: C_1  and  C_2
REMARK    2  A    between atoms: C_2  and  C_3
REMARK    3  A    between atoms: C_2  and  C_4
REMARK    4  A    between atoms: C_4  and  N_5
REMARK    5  A    between atoms: C_6  and  C_8
REMARK    6  A    between atoms: C_8  and  S_9
REMARK    7  A    between atoms: S_9  and  C_10
REMARK    8  A    between atoms: C_10  and  C_11
REMARK    9  A    between atoms: C_14  and  C_16
REMARK   10  A    between atoms: C_19  and  C_22
REMARK                            x       y       z     vdW  Elec       q    Type
REMARK                         _______ _______ _______ _____ _____    ______ ____
ROOT
ATOM      1  C   UNL     1      -5.424  -7.260  -0.417  0.00  0.00    +0.059 A 
ATOM      2  C   UNL     1      -5.994  -7.654   0.755  0.00  0.00    +0.071 A 
ATOM      3  S   UNL     1      -7.536  -8.335   0.159  0.00  0.00    -0.075 S 
ATOM      4  C   UNL     1      -7.254  -8.022  -1.579  0.00  0.00    +0.109 A 
ATOM      5  N   UNL     1      -6.061  -7.446  -1.547  0.00  0.00    -0.243 NA
ENDROOT
BRANCH   4   6
ATOM      6  C   UNL     1      -8.121  -8.321  -2.738  0.00  0.00    +0.007 A 
ATOM      7  C   UNL     1      -7.698  -7.993  -4.029  0.00  0.00    +0.011 A 
ATOM      8  C   UNL     1      -8.505  -8.271  -5.108  0.00  0.00    +0.014 A 
ATOM      9  C   UNL     1      -9.747  -8.882  -4.913  0.00  0.00    +0.037 A 
ATOM     10  C   UNL     1     -10.169  -9.210  -3.622  0.00  0.00    +0.014 A 
ATOM     11  C   UNL     1      -9.360  -8.936  -2.543  0.00  0.00    +0.011 A 
BRANCH   9  12
ATOM     12  C   UNL     1     -10.613  -9.180  -6.072  0.00  0.00    +0.242 C 
ATOM     13  O   UNL     1     -10.245  -8.895  -7.195  0.00  0.00    -0.270 OA
ATOM     14  N   UNL     1     -11.810  -9.769  -5.884  0.00  0.00    -0.325 N 
ATOM     15  H   UNL     1     -12.104  -9.997  -4.988  0.00  0.00    +0.145 HD
ATOM     16  H   UNL     1     -12.379  -9.965  -6.645  0.00  0.00    +0.145 HD
ENDBRANCH   9  12
ENDBRANCH   4   6
BRANCH   1  17
ATOM     17  C   UNL     1      -4.066  -6.607  -0.414  0.00  0.00    +0.125 C 
BRANCH  17  18
ATOM     18  S   UNL     1      -4.259  -4.811  -0.249  0.00  0.00    -0.145 S 
BRANCH  18  19
ATOM     19  C   UNL     1      -2.558  -4.183  -0.262  0.00  0.00    +0.165 C 
BRANCH  19  21
ATOM     20  N   UNL     1      -1.416  -1.993  -0.116  0.00  0.00    -0.314 N 
ATOM     21  C   UNL     1      -2.575  -2.682  -0.130  0.00  0.00    +0.223 C 
ATOM     22  O   UNL     1      -3.631  -2.093  -0.036  0.00  0.00    -0.275 OA
ATOM     23  H   UNL     1      -0.572  -2.463  -0.190  0.00  0.00    +0.149 HD
BRANCH  20  24
ATOM     24  C   UNL     1      -1.433  -0.534   0.013  0.00  0.00    +0.107 C 
BRANCH  24  26
ATOM     25  C   UNL     1      -0.019   1.526   0.010  0.00  0.00    +0.009 C 
ATOM     26  C   UNL     1       0.002  -0.004   0.002  0.00  0.00    -0.000 C 
ATOM     27  C   UNL     1       0.742  -0.511   1.242  0.00  0.00    +0.009 C 
ENDBRANCH  24  26
ENDBRANCH  20  24
ENDBRANCH  19  21
ENDBRANCH  18  19
ENDBRANCH  17  18
ENDBRANCH   1  17
TORSDOF 8
