REMARK  Name = ZINC05474050
REMARK  8 active torsions:
REMARK  status: ('A' for Active; 'I' for Inactive)
REMARK    1  A    between atoms: C_1  and  C_2
REMARK    2  A    between atoms: C_2  and  O_3
REMARK    3  A    between atoms: O_3  and  C_4
REMARK    4  A    between atoms: C_4  and  C_6
REMARK    5  A    between atoms: C_10  and  N_11
REMARK    6  A    between atoms: C_12  and  C_14
REMARK    7  A    between atoms: C_15  and  C_16
REMARK    8  A    between atoms: C_26  and  C_30
REMARK                            x       y       z     vdW  Elec       q    Type
REMARK                         _______ _______ _______ _____ _____    ______ ____
ROOT
ATOM      1  C   UNL     1       2.229   1.030  -0.013  0.00  0.00    +0.091 A 
ATOM      2  C   UNL     1       1.279   2.130   0.001  0.00  0.00    -0.021 A 
ATOM      3  C   UNL     1      -0.022   1.766   0.012  0.00  0.00    -0.004 A 
ATOM      4  S   UNL     1       0.002  -0.004   0.002  0.00  0.00    -0.077 S 
ATOM      5  C   UNL     1       1.716  -0.261  -0.015  0.00  0.00    +0.087 A 
ATOM      6  C   UNL     1      -1.213   2.674   0.033  0.00  0.00    +0.046 C 
ATOM      7  C   UNL     1      -0.742   4.084   0.409  0.00  0.00    -0.009 C 
ATOM      8  C   UNL     1       0.484   4.440  -0.437  0.00  0.00    +0.008 C 
ATOM      9  C   UNL     1       1.683   3.599   0.004  0.00  0.00    +0.037 C 
ATOM     10  C   UNL     1      -1.862   5.090   0.138  0.00  0.00    +0.008 C 
ENDROOT
BRANCH   5  11
ATOM     11  N   UNL     1       2.405  -1.461  -0.028  0.00  0.00    -0.276 N 
ATOM     12  C   UNL     1       1.729  -2.627  -0.028  0.00  0.00    +0.241 C 
ATOM     13  O   UNL     1       0.512  -2.625  -0.017  0.00  0.00    -0.270 OA
ATOM     14  H   UNL     1       3.375  -1.463  -0.037  0.00  0.00    +0.156 HD
BRANCH  12  15
ATOM     15  C   UNL     1       2.458  -3.894  -0.041  0.00  0.00    +0.068 C 
ATOM     16  C   UNL     1       1.780  -5.062  -0.041  0.00  0.00    +0.013 C 
BRANCH  16  17
ATOM     17  C   UNL     1       2.513  -6.337  -0.054  0.00  0.00    -0.021 A 
ATOM     18  C   UNL     1       3.912  -6.342  -0.072  0.00  0.00    +0.012 A 
ATOM     19  C   UNL     1       4.596  -7.537  -0.079  0.00  0.00    +0.050 A 
ATOM     20  C   UNL     1       3.901  -8.741  -0.079  0.00  0.00    +0.166 A 
ATOM     21  C   UNL     1       2.506  -8.743  -0.066  0.00  0.00    +0.167 A 
ATOM     22  C   UNL     1       1.813  -7.549  -0.054  0.00  0.00    +0.057 A 
ATOM     23  O   UNL     1       2.073 -10.038  -0.069  0.00  0.00    -0.453 OA
ATOM     24  C   UNL     1       3.211 -10.824   0.330  0.00  0.00    +0.466 C 
ATOM     25  O   UNL     1       4.338 -10.033  -0.090  0.00  0.00    -0.453 OA
ENDBRANCH  16  17
ENDBRANCH  12  15
ENDBRANCH   5  11
BRANCH   1  26
ATOM     26  C   UNL     1       3.672   1.274  -0.025  0.00  0.00    +0.342 C 
ATOM     27  O   UNL     1       4.263   1.381  -1.083  0.00  0.00    -0.245 OA
BRANCH  26  28
ATOM     28  O   UNL     1       4.348   1.379   1.138  0.00  0.00    -0.461 OA
BRANCH  28  30
ATOM     29  C   UNL     1       6.367   1.710   2.459  0.00  0.00    +0.048 C 
ATOM     30  C   UNL     1       5.777   1.621   1.050  0.00  0.00    +0.229 C 
ENDBRANCH  28  30
ENDBRANCH  26  28
ENDBRANCH   1  26
TORSDOF 6
