REMARK  Name = ZINC15827266
REMARK  9 active torsions:
REMARK  status: ('A' for Active; 'I' for Inactive)
REMARK    1  A    between atoms: C_1  and  C_2
REMARK    2  A    between atoms: C_5  and  C_8
REMARK    3  A    between atoms: C_8  and  N_9
REMARK    4  A    between atoms: C_10  and  C_12
REMARK    5  A    between atoms: C_12  and  N_13
REMARK    6  A    between atoms: N_23  and  C_26
REMARK    7  A    between atoms: C_29  and  C_32
REMARK    8  A    between atoms: C_32  and  C_33
REMARK    9  A    between atoms: C_32  and  C_34
REMARK                            x       y       z     vdW  Elec       q    Type
REMARK                         _______ _______ _______ _____ _____    ______ ____
ROOT
ATOM      1  N   UNL     1       1.250  -5.952  -3.087  0.00  0.00    -0.243 N 
ATOM      2  C   UNL     1       2.510  -6.514  -3.217  0.00  0.00    +0.065 A 
ATOM      3  C   UNL     1       3.649  -5.723  -3.321  0.00  0.00    +0.025 A 
ATOM      4  C   UNL     1       4.890  -6.315  -3.445  0.00  0.00    +0.002 A 
ATOM      5  C   UNL     1       5.021  -7.692  -3.463  0.00  0.00    +0.002 A 
ATOM      6  C   UNL     1       3.893  -8.493  -3.355  0.00  0.00    +0.031 A 
ATOM      7  C   UNL     1       2.668  -7.902  -3.233  0.00  0.00    +0.131 A 
ATOM      8  S   UNL     1       1.163  -8.833  -3.090  0.00  0.00    +0.084 S 
ATOM      9  O   UNL     1       1.259  -9.532  -1.856  0.00  0.00    -0.149 OA
ATOM     10  O   UNL     1       1.019  -9.520  -4.325  0.00  0.00    -0.149 OA
ATOM     11  N   UNL     1      -0.194  -7.852  -2.953  0.00  0.00    -0.123 N 
ATOM     12  C   UNL     1       0.061  -6.522  -2.973  0.00  0.00    +0.333 C 
ATOM     13  O   UNL     1      -0.896  -5.779  -2.876  0.00  0.00    -0.250 OA
ENDROOT
BRANCH  11  14
ATOM     14  C   UNL     1      -1.488  -8.369  -2.828  0.00  0.00    +0.061 A 
ATOM     15  C   UNL     1      -1.682  -9.643  -2.309  0.00  0.00    +0.025 A 
ATOM     16  C   UNL     1      -2.961 -10.148  -2.182  0.00  0.00    +0.006 A 
ATOM     17  C   UNL     1      -4.047  -9.392  -2.581  0.00  0.00    -0.045 A 
ATOM     18  C   UNL     1      -3.858  -8.126  -3.104  0.00  0.00    +0.006 A 
ATOM     19  C   UNL     1      -2.582  -7.612  -3.228  0.00  0.00    +0.025 A 
BRANCH  17  20
ATOM     20  C   UNL     1      -5.441  -9.949  -2.447  0.00  0.00    +0.013 C 
ATOM     21  C   UNL     1      -5.559 -11.232  -3.272  0.00  0.00    +0.012 C 
ATOM     22  C   UNL     1      -5.727 -10.260  -0.977  0.00  0.00    +0.012 C 
ENDBRANCH  17  20
ENDBRANCH  11  14
BRANCH   1  23
ATOM     23  C   UNL     1       1.230  -4.487  -3.080  0.00  0.00    +0.211 C 
BRANCH  23  25
ATOM     24  N   UNL     1       1.200  -2.652  -4.738  0.00  0.00    -0.310 N 
ATOM     25  C   UNL     1       1.219  -3.978  -4.498  0.00  0.00    +0.231 C 
ATOM     26  O   UNL     1       1.226  -4.761  -5.424  0.00  0.00    -0.274 OA
ATOM     27  H   UNL     1       1.194  -2.025  -3.998  0.00  0.00    +0.149 HD
BRANCH  24  28
ATOM     28  C   UNL     1       1.189  -2.157  -6.117  0.00  0.00    +0.139 C 
BRANCH  28  33
ATOM     29  C   UNL     1       1.110   3.621  -6.091  0.00  0.00    +0.044 C 
ATOM     30  C   UNL     1       1.131   2.115  -6.098  0.00  0.00    -0.050 A 
ATOM     31  C   UNL     1       2.337   1.440  -6.104  0.00  0.00    +0.003 A 
ATOM     32  C   UNL     1       2.356   0.057  -6.110  0.00  0.00    +0.005 A 
ATOM     33  C   UNL     1       1.168  -0.650  -6.109  0.00  0.00    -0.030 A 
ATOM     34  C   UNL     1      -0.038   0.025  -6.103  0.00  0.00    +0.005 A 
ATOM     35  C   UNL     1      -0.057   1.407  -6.096  0.00  0.00    +0.003 A 
ENDBRANCH  28  33
ENDBRANCH  24  28
ENDBRANCH  23  25
ENDBRANCH   1  23
TORSDOF 6
