REMARK  Name = ZINC64165519
REMARK  10 active torsions:
REMARK  status: ('A' for Active; 'I' for Inactive)
REMARK    1  A    between atoms: C_1  and  C_2
REMARK    2  A    between atoms: C_6  and  N_8
REMARK    3  A    between atoms: C_9  and  S_14
REMARK    4  A    between atoms: S_14  and  C_15
REMARK    5  A    between atoms: C_15  and  C_16
REMARK    6  A    between atoms: N_18  and  C_19
REMARK    7  A    between atoms: C_19  and  C_20
REMARK    8  A    between atoms: C_20  and  C_21
REMARK    9  A    between atoms: C_25  and  O_30
REMARK   10  A    between atoms: O_30  and  C_31
REMARK                            x       y       z     vdW  Elec       q    Type
REMARK                         _______ _______ _______ _____ _____    ______ ____
ROOT
ATOM      1  C   UNL     1      -2.771  -4.240   2.778  0.00  0.00    +0.167 C 
ENDROOT
BRANCH   1   2
ATOM      2  C   UNL     1      -4.093  -4.765   2.281  0.00  0.00    +0.223 C 
ATOM      3  O   UNL     1      -4.123  -5.566   1.370  0.00  0.00    -0.275 OA
ATOM      4  N   UNL     1      -5.242  -4.346   2.847  0.00  0.00    -0.314 N 
ATOM      5  H   UNL     1      -5.217  -3.705   3.575  0.00  0.00    +0.149 HD
BRANCH   4   6
ATOM      6  C   UNL     1      -6.527  -4.856   2.363  0.00  0.00    +0.108 C 
BRANCH   6   7
ATOM      7  C   UNL     1      -7.663  -4.225   3.170  0.00  0.00    +0.052 C 
BRANCH   7   8
ATOM      8  C   UNL     1      -8.985  -4.750   2.672  0.00  0.00    -0.040 C 
ATOM      9  C   UNL     1      -9.690  -5.785   3.180  0.00  0.00    -0.001 A 
ATOM     10  C   UNL     1      -9.445  -6.696   4.306  0.00  0.00    +0.013 A 
ATOM     11  C   UNL     1     -10.352  -7.658   4.581  0.00  0.00    +0.046 A 
ATOM     12  C   UNL     1     -11.524  -7.809   3.815  0.00  0.00    +0.122 A 
ATOM     13  C   UNL     1     -11.815  -7.004   2.762  0.00  0.00    +0.071 A 
ATOM     14  C   UNL     1     -10.930  -5.963   2.390  0.00  0.00    +0.046 A 
ATOM     15  N   UNL     1     -10.987  -5.069   1.429  0.00  0.00    -0.380 N 
ATOM     16  C   UNL     1      -9.792  -4.222   1.508  0.00  0.00    +0.144 C 
ATOM     17  H   UNL     1     -11.701  -4.982   0.778  0.00  0.00    +0.160 HD
BRANCH  12  18
ATOM     18  O   UNL     1     -12.394  -8.796   4.143  0.00  0.00    -0.495 OA
ATOM     19  C   UNL     1     -12.050  -9.621   5.258  0.00  0.00    +0.277 C 
ENDBRANCH  12  18
ENDBRANCH   7   8
ENDBRANCH   6   7
ENDBRANCH   4   6
ENDBRANCH   1   2
BRANCH   1  20
ATOM     20  S   UNL     1      -1.424  -4.988   1.822  0.00  0.00    -0.114 S 
BRANCH  20  22
ATOM     21  N   UNL     1       0.051  -2.796   2.390  0.00  0.00    -0.254 N 
ATOM     22  C   UNL     1       0.077  -4.262   2.535  0.00  0.00    +0.203 C 
ATOM     23  N   UNL     1       0.130  -4.521   3.995  0.00  0.00    -0.320 NA
ATOM     24  N   UNL     1       0.658  -3.254   4.530  0.00  0.00    +0.411 N 
ATOM     25  N   UNL     1       0.051  -2.248   3.651  0.00  0.00    -0.265 NA
ATOM     26  H   UNL     1      -0.791  -4.712   4.362  0.00  0.00    +0.106 HD
ATOM     27  H   UNL     1       0.365  -3.119   5.486  0.00  0.00    -0.031 HD
ATOM     28  H   UNL     1       0.575  -1.386   3.671  0.00  0.00    +0.125 HD
ATOM     29  H   UNL     1       1.664  -3.227   4.456  0.00  0.00    -0.031 HD
BRANCH  21  35
ATOM     30  C   UNL     1      -0.018   1.503   0.010  0.00  0.00    +0.044 C 
ATOM     31  C   UNL     1       0.002  -0.004   0.002  0.00  0.00    -0.049 A 
ATOM     32  C   UNL     1       0.006  -0.688  -1.200  0.00  0.00    +0.003 A 
ATOM     33  C   UNL     1       0.024  -2.071  -1.212  0.00  0.00    +0.002 A 
ATOM     34  C   UNL     1       0.039  -2.773  -0.023  0.00  0.00    +0.024 A 
ATOM     35  C   UNL     1       0.036  -2.089   1.186  0.00  0.00    +0.046 A 
ATOM     36  C   UNL     1       0.023  -0.700   1.194  0.00  0.00    +0.027 A 
ENDBRANCH  21  35
ENDBRANCH  20  22
ENDBRANCH   1  20
TORSDOF 8
