REMARK  Name = ZINC17195426
REMARK  5 active torsions:
REMARK  status: ('A' for Active; 'I' for Inactive)
REMARK    1  A    between atoms: C_1  and  O_2
REMARK    2  A    between atoms: O_2  and  C_3
REMARK    3  A    between atoms: C_6  and  C_10
REMARK    4  A    between atoms: C_16  and  C_18
REMARK    5  A    between atoms: C_19  and  C_20
REMARK                            x       y       z     vdW  Elec       q    Type
REMARK                         _______ _______ _______ _____ _____    ______ ____
ROOT
ATOM      1  C   UNL     1       2.580  -2.541   4.295  0.00  0.00    +0.080 A 
ATOM      2  C   UNL     1       2.648  -3.905   4.351  0.00  0.00    +0.076 A 
ATOM      3  S   UNL     1       3.549  -4.130   5.879  0.00  0.00    -0.060 S 
ATOM      4  C   UNL     1       3.740  -2.399   6.282  0.00  0.00    +0.165 A 
ATOM      5  N   UNL     1       3.133  -1.822   5.261  0.00  0.00    -0.225 NA
ATOM      6  N   UNL     1       4.364  -1.816   7.376  0.00  0.00    -0.261 N 
ATOM      7  C   UNL     1       4.936  -2.591   8.318  0.00  0.00    +0.243 C 
ATOM      8  O   UNL     1       4.905  -3.803   8.210  0.00  0.00    -0.270 OA
ATOM      9  H   UNL     1       4.389  -0.850   7.462  0.00  0.00    +0.157 HD
ENDROOT
BRANCH   1  13
ATOM     10  C   UNL     1       0.626  -0.619   1.042  0.00  0.00    +0.134 A 
ATOM     11  C   UNL     1       1.202   0.141   2.050  0.00  0.00    +0.047 A 
ATOM     12  C   UNL     1       1.836  -0.479   3.107  0.00  0.00    +0.013 A 
ATOM     13  C   UNL     1       1.898  -1.871   3.161  0.00  0.00    +0.002 A 
ATOM     14  C   UNL     1       1.319  -2.631   2.147  0.00  0.00    +0.029 A 
ATOM     15  C   UNL     1       0.681  -2.005   1.095  0.00  0.00    +0.060 A 
ATOM     16 BR   UNL     1      -0.113  -3.036  -0.277  0.00  0.00    -0.046 Br
BRANCH  10  18
ATOM     17  C   UNL     1      -0.017   1.425   0.010  0.00  0.00    +0.277 C 
ATOM     18  O   UNL     1       0.002  -0.004   0.002  0.00  0.00    -0.494 OA
ENDBRANCH  10  18
ENDBRANCH   1  13
BRANCH   7  19
ATOM     19  C   UNL     1       5.594  -1.977   9.471  0.00  0.00    +0.068 C 
ATOM     20  C   UNL     1       6.166  -2.753  10.414  0.00  0.00    +0.014 C 
BRANCH  20  21
ATOM     21  C   UNL     1       6.828  -2.135  11.573  0.00  0.00    -0.006 A 
ATOM     22  C   UNL     1       6.861  -0.743  11.704  0.00  0.00    +0.011 A 
ATOM     23  C   UNL     1       7.483  -0.171  12.793  0.00  0.00    +0.020 A 
ATOM     24  C   UNL     1       8.075  -0.971  13.757  0.00  0.00    +0.042 A 
ATOM     25  C   UNL     1       8.048  -2.350  13.636  0.00  0.00    +0.040 A 
ATOM     26  C   UNL     1       7.423  -2.938  12.554  0.00  0.00    +0.049 A 
ATOM     27 CL   UNL     1       7.383  -4.667  12.407  0.00  0.00    -0.083 Cl
ATOM     28 CL   UNL     1       8.857  -0.240  15.124  0.00  0.00    -0.083 Cl
ENDBRANCH  20  21
ENDBRANCH   7  19
TORSDOF 4
