REMARK  Name = ZINC34686095
REMARK  11 active torsions:
REMARK  status: ('A' for Active; 'I' for Inactive)
REMARK    1  A    between atoms: C_1  and  O_2
REMARK    2  A    between atoms: O_2  and  C_3
REMARK    3  A    between atoms: C_5  and  C_13
REMARK    4  A    between atoms: C_7  and  O_11
REMARK    5  A    between atoms: C_8  and  O_9
REMARK    6  A    between atoms: O_9  and  C_10
REMARK    7  A    between atoms: O_11  and  C_12
REMARK    8  A    between atoms: N_18  and  C_21
REMARK    9  A    between atoms: C_21  and  C_22
REMARK   10  A    between atoms: C_29  and  C_31
REMARK   11  A    between atoms: C_31  and  C_32
REMARK                            x       y       z     vdW  Elec       q    Type
REMARK                         _______ _______ _______ _____ _____    ______ ____
ROOT
ATOM      1  C   UNL     1       2.395   0.355  -4.217  0.00  0.00    +0.247 C 
ATOM      2  O   UNL     1       2.261   1.563  -4.210  0.00  0.00    -0.270 OA
ATOM      3  N   UNL     1       3.081  -0.241  -5.213  0.00  0.00    -0.301 N 
ATOM      4  C   UNL     1       3.144  -1.707  -5.316  0.00  0.00    +0.089 C 
ATOM      5  C   UNL     1       2.769  -2.110  -6.746  0.00  0.00    -0.059 C 
ATOM      6  N   UNL     1       3.633  -1.397  -7.697  0.00  0.00    +0.383 N 
ATOM      7  C   UNL     1       3.382   0.047  -7.614  0.00  0.00    -0.059 C 
ATOM      8  C   UNL     1       3.782   0.557  -6.231  0.00  0.00    +0.089 C 
ATOM      9  H   UNL     1       4.599  -1.583  -7.475  0.00  0.00    -0.082 HD
ENDROOT
BRANCH   1  12
ATOM     10  C   UNL     1       1.948  -2.325  -1.622  0.00  0.00    +0.166 A 
ATOM     11  C   UNL     1       2.501  -1.564  -2.635  0.00  0.00    +0.062 A 
ATOM     12  C   UNL     1       1.807  -0.460  -3.136  0.00  0.00    +0.044 A 
ATOM     13  C   UNL     1       0.555  -0.128  -2.611  0.00  0.00    +0.062 A 
ATOM     14  C   UNL     1       0.007  -0.892  -1.598  0.00  0.00    +0.166 A 
ATOM     15  C   UNL     1       0.699  -1.995  -1.105  0.00  0.00    +0.204 A 
BRANCH  10  17
ATOM     16  C   UNL     1       3.900  -3.681  -1.712  0.00  0.00    +0.277 C 
ATOM     17  O   UNL     1       2.623  -3.401  -1.135  0.00  0.00    -0.491 OA
ENDBRANCH  10  17
BRANCH  15  18
ATOM     18  O   UNL     1       0.155  -2.748  -0.112  0.00  0.00    -0.488 OA
ATOM     19  C   UNL     1       0.453  -2.363   1.231  0.00  0.00    +0.277 C 
ENDBRANCH  15  18
BRANCH  14  20
ATOM     20  O   UNL     1      -1.211  -0.569  -1.087  0.00  0.00    -0.491 OA
ATOM     21  C   UNL     1      -1.866   0.572  -1.643  0.00  0.00    +0.277 C 
ENDBRANCH  14  20
ENDBRANCH   1  12
BRANCH   6  22
ATOM     22  C   UNL     1       3.348  -1.865  -9.060  0.00  0.00    -0.045 C 
BRANCH  22  23
ATOM     23  C   UNL     1       4.330  -1.217 -10.037  0.00  0.00    +0.119 C 
ATOM     24  C   UNL     1       3.958  -1.608 -11.472  0.00  0.00    +0.137 C 
ATOM     25  N   UNL     1       5.019  -1.130 -12.373  0.00  0.00    -0.297 N 
ATOM     26  C   UNL     1       6.413  -1.465 -12.039  0.00  0.00    +0.136 C 
ATOM     27  C   UNL     1       6.665  -1.081 -10.577  0.00  0.00    +0.179 C 
ATOM     28  O   UNL     1       5.656  -1.671  -9.753  0.00  0.00    -0.375 OA
ATOM     29  C   UNL     1       4.723  -0.408 -13.472  0.00  0.00    +0.221 C 
ATOM     30  O   UNL     1       3.569  -0.143 -13.730  0.00  0.00    -0.275 OA
BRANCH  29  31
ATOM     31  C   UNL     1       5.828   0.069 -14.379  0.00  0.00    +0.138 C 
BRANCH  31  32
ATOM     32  C   UNL     1       5.235   0.848 -15.525  0.00  0.00    -0.001 A 
ATOM     33  C   UNL     1       4.982   2.177 -15.614  0.00  0.00    +0.011 A 
ATOM     34  C   UNL     1       4.428   2.677 -16.778  0.00  0.00    +0.008 A 
ATOM     35  C   UNL     1       4.154   1.824 -17.795  0.00  0.00    +0.045 A 
ATOM     36  S   UNL     1       4.690   0.260 -17.121  0.00  0.00    -0.101 S 
ENDBRANCH  31  32
ENDBRANCH  29  31
ENDBRANCH  22  23
ENDBRANCH   6  22
TORSDOF 8
