REMARK  Name = ZINC15574207
REMARK  7 active torsions:
REMARK  status: ('A' for Active; 'I' for Inactive)
REMARK    1  A    between atoms: C_1  and  C_2
REMARK    2  A    between atoms: C_15  and  C_17
REMARK    3  A    between atoms: C_17  and  N_63
REMARK    4  A    between atoms: C_18  and  N_63
REMARK    5  A    between atoms: C_19  and  C_20
REMARK    6  A    between atoms: C_19  and  N_63
REMARK    7  A    between atoms: C_25  and  N_26
REMARK                            x       y       z     vdW  Elec       q    Type
REMARK                         _______ _______ _______ _____ _____    ______ ____
ROOT
ATOM      1  C   UNL     1       0.519   3.442   2.458  0.00  0.00    +0.019 C 
ENDROOT
BRANCH   1  15
ATOM      2  C   UNL     1       0.265   3.651  -2.161  0.00  0.00    +0.029 C 
ATOM      3  C   UNL     1       1.389   4.086  -1.218  0.00  0.00    +0.087 C 
ATOM      4  C   UNL     1       2.738   3.686  -1.816  0.00  0.00    +0.118 C 
ATOM      5  C   UNL     1       3.808   3.736  -0.758  0.00  0.00    +0.219 C 
ATOM      6  O   UNL     1       4.600   4.655  -0.744  0.00  0.00    -0.275 OA
ATOM      7  N   UNL     1       3.892   2.764   0.176  0.00  0.00    -0.284 N 
ATOM      8  C   UNL     1       2.929   1.749   0.233  0.00  0.00    +0.055 A 
ATOM      9  C   UNL     1       3.304   0.418   0.316  0.00  0.00    +0.025 A 
ATOM     10  C   UNL     1       2.335  -0.565   0.402  0.00  0.00    +0.002 A 
ATOM     11  C   UNL     1       0.995  -0.224   0.411  0.00  0.00    +0.002 A 
ATOM     12  C   UNL     1       0.613   1.103   0.323  0.00  0.00    +0.025 A 
ATOM     13  C   UNL     1       1.577   2.092   0.224  0.00  0.00    +0.058 A 
ATOM     14  N   UNL     1       1.209   3.438   0.083  0.00  0.00    -0.268 N 
ATOM     15  C   UNL     1       0.698   4.122   1.125  0.00  0.00    +0.204 C 
ATOM     16  O   UNL     1       0.383   5.286   0.991  0.00  0.00    -0.277 OA
ATOM     17  H   UNL     1       4.625   2.768   0.811  0.00  0.00    +0.155 HD
ENDBRANCH   1  15
BRANCH   1  19
ATOM     18  C   UNL     1      -1.416   4.778   3.038  0.00  0.00    -0.095 C 
ATOM     19  N   UNL     1      -0.034   4.418   3.421  0.00  0.00    +0.386 N 
ATOM     20  H   UNL     1       0.547   5.265   3.408  0.00  0.00    -0.081 HD
BRANCH  19  21
ATOM     21  C   UNL     1      -0.020   3.846   4.784  0.00  0.00    -0.041 C 
BRANCH  21  22
ATOM     22  C   UNL     1      -0.236   4.958   5.777  0.00  0.00    -0.043 A 
ATOM     23  C   UNL     1      -1.461   5.102   6.399  0.00  0.00    +0.003 A 
ATOM     24  C   UNL     1      -1.659   6.119   7.315  0.00  0.00    +0.000 A 
ATOM     25  C   UNL     1      -0.634   7.003   7.603  0.00  0.00    +0.002 A 
ATOM     26  C   UNL     1       0.591   6.868   6.981  0.00  0.00    +0.023 A 
ATOM     27  C   UNL     1       0.795   5.844   6.065  0.00  0.00    +0.031 A 
BRANCH  27  28
ATOM     28  N   UNL     1       2.033   5.705   5.433  0.00  0.00    -0.330 N 
ATOM     29  C   UNL     1       3.097   5.448   6.412  0.00  0.00    +0.105 C 
ATOM     30  C   UNL     1       4.408   5.158   5.678  0.00  0.00    +0.019 C 
ATOM     31  C   UNL     1       4.774   6.360   4.803  0.00  0.00    +0.003 C 
ATOM     32  C   UNL     1       3.629   6.636   3.825  0.00  0.00    +0.019 C 
ATOM     33  C   UNL     1       2.340   6.884   4.613  0.00  0.00    +0.105 C 
ENDBRANCH  27  28
ENDBRANCH  21  22
ENDBRANCH  19  21
ENDBRANCH   1  19
TORSDOF 5
