REMARK  Name = ZINC36586940
REMARK  15 active torsions:
REMARK  status: ('A' for Active; 'I' for Inactive)
REMARK    1  A    between atoms: C_1  and  C_2
REMARK    2  A    between atoms: C_2  and  C_3
REMARK    3  A    between atoms: C_2  and  C_4
REMARK    4  A    between atoms: C_2  and  N_5
REMARK    5  A    between atoms: C_6  and  C_8
REMARK    6  A    between atoms: C_8  and  C_10
REMARK    7  A    between atoms: C_8  and  N_17
REMARK    8  A    between atoms: C_15  and  O_16
REMARK    9  A    between atoms: N_17  and  C_28
REMARK   10  A    between atoms: C_18  and  C_20
REMARK   11  A    between atoms: C_24  and  O_27
REMARK   12  A    between atoms: C_25  and  O_26
REMARK   13  A    between atoms: C_28  and  C_29
REMARK   14  A    between atoms: C_28  and  C_30
REMARK   15  A    between atoms: C_28  and  C_31
REMARK                            x       y       z     vdW  Elec       q    Type
REMARK                         _______ _______ _______ _____ _____    ______ ____
ROOT
ATOM      1  C   UNL     1       2.312  -0.002  -2.292  0.00  0.00    +0.196 C 
ENDROOT
BRANCH   1   2
ATOM      2  C   UNL     1       2.370  -1.385  -2.886  0.00  0.00    +0.023 A 
ATOM      3  C   UNL     1       3.520  -2.143  -2.764  0.00  0.00    +0.009 A 
ATOM      4  C   UNL     1       3.574  -3.412  -3.310  0.00  0.00    +0.001 A 
ATOM      5  C   UNL     1       2.478  -3.927  -3.978  0.00  0.00    +0.004 A 
ATOM      6  C   UNL     1       1.327  -3.174  -4.103  0.00  0.00    +0.046 A 
ATOM      7  C   UNL     1       1.268  -1.902  -3.551  0.00  0.00    +0.122 A 
BRANCH   7   8
ATOM      8  O   UNL     1       0.135  -1.161  -3.667  0.00  0.00    -0.506 OA
ATOM      9  H   UNL     1       0.106  -0.608  -4.460  0.00  0.00    +0.292 HD
ENDBRANCH   7   8
ENDBRANCH   1   2
BRANCH   1  11
ATOM     10  N   UNL     1       0.791  -0.658  -0.455  0.00  0.00    -0.309 N 
ATOM     11  C   UNL     1       1.958  -0.097  -0.830  0.00  0.00    +0.239 C 
ATOM     12  O   UNL     1       2.723   0.330   0.008  0.00  0.00    -0.273 OA
ATOM     13  H   UNL     1       0.179  -0.999  -1.126  0.00  0.00    +0.149 HD
BRANCH  10  15
ATOM     14  C   UNL     1       0.394   0.654   1.571  0.00  0.00    +0.031 C 
ATOM     15  C   UNL     1       0.447  -0.751   0.966  0.00  0.00    +0.026 C 
ATOM     16  C   UNL     1       1.506  -1.580   1.694  0.00  0.00    +0.031 C 
ATOM     17  C   UNL     1      -0.920  -1.423   1.116  0.00  0.00    +0.031 C 
ENDBRANCH  10  15
ENDBRANCH   1  11
BRANCH   1  18
ATOM     18  N   UNL     1       3.618   0.647  -2.437  0.00  0.00    -0.277 N 
ATOM     19  C   UNL     1       4.743  -0.025  -2.123  0.00  0.00    +0.252 C 
ATOM     20  O   UNL     1       5.731   0.083  -2.823  0.00  0.00    -0.270 OA
BRANCH  19  21
ATOM     21  C   UNL     1       4.776  -0.893  -0.930  0.00  0.00    +0.082 A 
ATOM     22  C   UNL     1       3.667  -1.681  -0.604  0.00  0.00    +0.017 A 
ATOM     23  C   UNL     1       3.701  -2.490   0.511  0.00  0.00    +0.005 A 
ATOM     24  C   UNL     1       4.830  -2.529   1.313  0.00  0.00    +0.049 A 
ATOM     25  C   UNL     1       5.936  -1.755   1.003  0.00  0.00    +0.159 A 
ATOM     26  C   UNL     1       5.918  -0.937  -0.123  0.00  0.00    +0.171 A 
BRANCH  26  27
ATOM     27  O   UNL     1       7.002  -0.181  -0.433  0.00  0.00    -0.503 OA
ATOM     28  H   UNL     1       6.995   0.700  -0.033  0.00  0.00    +0.292 HD
ENDBRANCH  26  27
BRANCH  25  29
ATOM     29  O   UNL     1       7.040  -1.799   1.795  0.00  0.00    -0.503 OA
ATOM     30  H   UNL     1       7.684  -2.471   1.535  0.00  0.00    +0.292 HD
ENDBRANCH  25  29
ENDBRANCH  19  21
BRANCH  18  31
ATOM     31  C   UNL     1       3.701   2.027  -2.922  0.00  0.00    +0.030 C 
ATOM     32  C   UNL     1       2.289   2.591  -3.098  0.00  0.00    +0.031 C 
ATOM     33  C   UNL     1       4.468   2.879  -1.909  0.00  0.00    +0.031 C 
ATOM     34  C   UNL     1       4.431   2.052  -4.266  0.00  0.00    +0.031 C 
ENDBRANCH  18  31
ENDBRANCH   1  18
TORSDOF 9
