REMARK  Name = ZINC16763430
REMARK  8 active torsions:
REMARK  status: ('A' for Active; 'I' for Inactive)
REMARK    1  A    between atoms: C_1  and  C_2
REMARK    2  A    between atoms: C_2  and  O_3
REMARK    3  A    between atoms: O_3  and  C_4
REMARK    4  A    between atoms: C_9  and  N_10
REMARK    5  A    between atoms: C_11  and  C_13
REMARK    6  A    between atoms: C_13  and  C_15
REMARK    7  A    between atoms: C_13  and  S_16
REMARK    8  A    between atoms: S_16  and  C_17
REMARK                            x       y       z     vdW  Elec       q    Type
REMARK                         _______ _______ _______ _____ _____    ______ ____
ROOT
ATOM      1  C   UNL     1      -6.341  -1.195  -0.160  0.00  0.00    +0.137 C 
ATOM      2  C   UNL     1      -6.708  -0.682   1.234  0.00  0.00    +0.029 C 
ENDROOT
BRANCH   1   4
ATOM      3  N   UNL     1      -3.903  -1.566   0.030  0.00  0.00    -0.282 N 
ATOM      4  C   UNL     1      -5.138  -2.097  -0.062  0.00  0.00    +0.230 C 
ATOM      5  O   UNL     1      -5.280  -3.302  -0.067  0.00  0.00    -0.274 OA
ATOM      6  H   UNL     1      -3.793  -0.606   0.115  0.00  0.00    +0.155 HD
BRANCH   3  12
ATOM      7  C   UNL     1      -1.584  -1.981   0.589  0.00  0.00    +0.142 A 
ATOM      8  C   UNL     1      -0.476  -2.812   0.565  0.00  0.00    +0.047 A 
ATOM      9  C   UNL     1      -0.554  -4.051  -0.043  0.00  0.00    +0.004 A 
ATOM     10  C   UNL     1      -1.736  -4.465  -0.628  0.00  0.00    +0.002 A 
ATOM     11  C   UNL     1      -2.846  -3.643  -0.608  0.00  0.00    +0.027 A 
ATOM     12  C   UNL     1      -2.777  -2.400   0.004  0.00  0.00    +0.076 A 
BRANCH   7  13
ATOM     13  O   UNL     1      -1.509  -0.762   1.187  0.00  0.00    -0.490 OA
BRANCH  13  15
ATOM     14  C   UNL     1      -0.362   0.995   2.386  0.00  0.00    +0.048 C 
ATOM     15  C   UNL     1      -0.254  -0.400   1.765  0.00  0.00    +0.226 C 
ENDBRANCH  13  15
ENDBRANCH   7  13
ENDBRANCH   3  12
ENDBRANCH   1   4
BRANCH   1  16
ATOM     16  S   UNL     1      -7.738  -2.124  -0.850  0.00  0.00    -0.073 S 
BRANCH  16  17
ATOM     17  C   UNL     1      -9.004  -0.912  -1.038  0.00  0.00    +0.198 A 
ATOM     18  N   UNL     1      -8.896   0.355  -0.736  0.00  0.00    -0.121 NA
ATOM     19  N   UNL     1     -10.117   0.977  -1.032  0.00  0.00    -0.121 NA
ATOM     20  C   UNL     1     -10.917   0.066  -1.500  0.00  0.00    +0.202 A 
ATOM     21  N   UNL     1     -10.277  -1.145  -1.536  0.00  0.00    -0.264 N 
ATOM     22  C   UNL     1     -10.988  -2.253  -2.022  0.00  0.00    +0.065 A 
ATOM     23  C   UNL     1     -10.510  -3.569  -2.133  0.00  0.00    +0.027 A 
ATOM     24  C   UNL     1     -11.313  -4.569  -2.628  0.00  0.00    +0.002 A 
ATOM     25  C   UNL     1     -12.612  -4.314  -3.032  0.00  0.00    +0.001 A 
ATOM     26  C   UNL     1     -13.108  -3.025  -2.933  0.00  0.00    +0.017 A 
ATOM     27  C   UNL     1     -12.303  -2.026  -2.437  0.00  0.00    +0.040 A 
ATOM     28  S   UNL     1     -12.536  -0.290  -2.139  0.00  0.00    -0.048 S 
ENDBRANCH  16  17
ENDBRANCH   1  16
TORSDOF 6
