REMARK  Name = ZINC66361549
REMARK  8 active torsions:
REMARK  status: ('A' for Active; 'I' for Inactive)
REMARK    1  A    between atoms: C_1  and  C_2
REMARK    2  A    between atoms: C_2  and  C_4
REMARK    3  A    between atoms: C_2  and  N_20
REMARK    4  A    between atoms: C_4  and  C_5
REMARK    5  A    between atoms: N_7  and  C_8
REMARK    6  A    between atoms: C_13  and  N_14
REMARK    7  A    between atoms: C_15  and  C_17
REMARK    8  A    between atoms: C_21  and  C_23
REMARK                            x       y       z     vdW  Elec       q    Type
REMARK                         _______ _______ _______ _____ _____    ______ ____
ROOT
ATOM      1  C   UNL     1      -1.408  -2.044  -0.119  0.00  0.00    +0.219 C 
ATOM      2  O   UNL     1      -0.351  -2.635  -0.197  0.00  0.00    -0.275 OA
ATOM      3  N   UNL     1      -2.567  -2.732  -0.131  0.00  0.00    -0.284 N 
ATOM      4  H   UNL     1      -3.407  -2.269   0.011  0.00  0.00    +0.155 HD
ENDROOT
BRANCH   3   5
ATOM      5  C   UNL     1      -2.558  -4.116  -0.351  0.00  0.00    +0.058 A 
ATOM      6  C   UNL     1      -1.509  -4.704  -1.042  0.00  0.00    +0.066 A 
ATOM      7  C   UNL     1      -1.501  -6.070  -1.258  0.00  0.00    +0.160 A 
ATOM      8  C   UNL     1      -2.542  -6.855  -0.785  0.00  0.00    +0.160 A 
ATOM      9  C   UNL     1      -3.591  -6.275  -0.095  0.00  0.00    +0.066 A 
ATOM     10  C   UNL     1      -3.601  -4.906   0.130  0.00  0.00    +0.058 A 
ATOM     11  F   UNL     1      -2.531  -8.189  -0.999  0.00  0.00    -0.202 F 
ATOM     12  F   UNL     1      -0.479  -6.641  -1.932  0.00  0.00    -0.202 F 
BRANCH  10  13
ATOM     13  N   UNL     1      -4.660  -4.318   0.835  0.00  0.00    -0.284 N 
ATOM     14  C   UNL     1      -5.867  -4.918   0.862  0.00  0.00    +0.214 C 
ATOM     15  O   UNL     1      -6.065  -5.913   0.197  0.00  0.00    -0.276 OA
ATOM     16  C   UNL     1      -6.970  -4.353   1.719  0.00  0.00    +0.109 C 
ATOM     17  H   UNL     1      -4.525  -3.479   1.302  0.00  0.00    +0.155 HD
ENDBRANCH  10  13
ENDBRANCH   3   5
BRANCH   1  18
ATOM     18  C   UNL     1      -1.425  -0.541  -0.007  0.00  0.00    +0.118 C 
BRANCH  18  20
ATOM     19  C   UNL     1      -0.008   1.516  -0.028  0.00  0.00    +0.028 C 
ATOM     20  C   UNL     1       0.011  -0.013  -0.015  0.00  0.00    +0.079 C 
BRANCH  20  21
ATOM     21  N   UNL     1       0.711  -0.483   1.183  0.00  0.00    -0.312 N 
ATOM     22  C   UNL     1       2.054  -0.595   1.179  0.00  0.00    +0.216 C 
ATOM     23  O   UNL     1       2.683  -0.307   0.183  0.00  0.00    -0.276 OA
ATOM     24  H   UNL     1       0.208  -0.713   1.979  0.00  0.00    +0.149 HD
BRANCH  22  25
ATOM     25  C   UNL     1       2.774  -1.078   2.411  0.00  0.00    +0.075 C 
ATOM     26  C   UNL     1       2.486  -0.128   3.575  0.00  0.00    +0.013 C 
ATOM     27  C   UNL     1       3.217  -0.618   4.827  0.00  0.00    +0.001 C 
ATOM     28  C   UNL     1       4.722  -0.653   4.558  0.00  0.00    +0.000 C 
ATOM     29  C   UNL     1       5.011  -1.603   3.394  0.00  0.00    +0.001 C 
ATOM     30  C   UNL     1       4.280  -1.113   2.142  0.00  0.00    +0.013 C 
ENDBRANCH  22  25
ENDBRANCH  20  21
ENDBRANCH  18  20
ENDBRANCH   1  18
TORSDOF 6
