REMARK  Name = ZINC42173972
REMARK  3 active torsions:
REMARK  status: ('A' for Active; 'I' for Inactive)
REMARK    1  A    between atoms: C_3  and  N_9
REMARK    2  A    between atoms: C_6  and  N_7
REMARK    3  A    between atoms: C_10  and  C_12
REMARK                            x       y       z     vdW  Elec       q    Type
REMARK                         _______ _______ _______ _____ _____    ______ ____
ROOT
ATOM      1  N   UNL     1       3.585   2.133  -0.021  0.00  0.00    -0.284 N 
ATOM      2  C   UNL     1       3.567   3.477  -0.116  0.00  0.00    +0.221 C 
ATOM      3  O   UNL     1       2.511   4.072  -0.103  0.00  0.00    -0.275 OA
ATOM      4  H   UNL     1       4.431   1.663   0.049  0.00  0.00    +0.155 HD
ENDROOT
BRANCH   1   7
ATOM      5  C   UNL     1       0.065   1.248  -0.622  0.00  0.00    +0.024 A 
ATOM      6  C   UNL     1       1.251   1.956  -0.619  0.00  0.00    +0.026 A 
ATOM      7  C   UNL     1       2.382   1.414  -0.024  0.00  0.00    +0.052 A 
ATOM      8  C   UNL     1       2.321   0.158   0.568  0.00  0.00    +0.064 A 
ATOM      9  C   UNL     1       1.135  -0.550   0.564  0.00  0.00    +0.044 A 
ATOM     10  C   UNL     1       0.004  -0.007  -0.031  0.00  0.00    +0.026 A 
ATOM     11 CL   UNL     1       3.735  -0.521   1.311  0.00  0.00    -0.082 Cl
BRANCH  10  12
ATOM     12  N   UNL     1      -1.198  -0.724  -0.034  0.00  0.00    -0.358 N 
ATOM     13  H   UNL     1      -1.988  -0.344  -0.450  0.00  0.00    +0.142 HD
ATOM     14  H   UNL     1      -1.241  -1.600   0.379  0.00  0.00    +0.142 HD
ENDBRANCH  10  12
ENDBRANCH   1   7
BRANCH   2  15
ATOM     15  C   UNL     1       4.861   4.241  -0.238  0.00  0.00    +0.079 C 
ATOM     16  C   UNL     1       5.726   4.041   1.027  0.00  0.00    +0.016 C 
ATOM     17  C   UNL     1       5.891   5.473   1.622  0.00  0.00    -0.010 C 
ATOM     18  C   UNL     1       6.844   6.203   0.627  0.00  0.00    +0.004 C 
ATOM     19  C   UNL     1       5.996   6.405  -0.649  0.00  0.00    +0.004 C 
ATOM     20  C   UNL     1       4.583   5.774  -0.291  0.00  0.00    +0.001 C 
ATOM     21  C   UNL     1       4.505   6.105   1.244  0.00  0.00    +0.008 C 
ENDBRANCH   2  15
TORSDOF 3
