REMARK  Name = ZINC39443080
REMARK  6 active torsions:
REMARK  status: ('A' for Active; 'I' for Inactive)
REMARK    1  A    between atoms: C_1  and  C_2
REMARK    2  A    between atoms: C_4  and  N_9
REMARK    3  A    between atoms: C_5  and  C_8
REMARK    4  A    between atoms: N_9  and  C_10
REMARK    5  A    between atoms: C_10  and  N_12
REMARK    6  A    between atoms: N_12  and  C_13
REMARK                            x       y       z     vdW  Elec       q    Type
REMARK                         _______ _______ _______ _____ _____    ______ ____
ROOT
ATOM      1  C   UNL     1      -3.512  -1.223  -0.797  0.00  0.00    +0.139 C 
ATOM      2  S   UNL     1      -3.622  -2.400   0.442  0.00  0.00    -0.018 S 
ENDROOT
BRANCH   1   3
ATOM      3  N   UNL     1      -2.357  -0.557  -0.992  0.00  0.00    -0.297 N 
ATOM      4  H   UNL     1      -2.316   0.163  -1.641  0.00  0.00    +0.154 HD
BRANCH   3   7
ATOM      5  C   UNL     1      -0.075  -2.732  -1.527  0.00  0.00    +0.041 C 
ATOM      6  C   UNL     1      -0.567  -2.257  -0.159  0.00  0.00    +0.171 C 
ATOM      7  C   UNL     1      -1.236  -0.897  -0.270  0.00  0.00    +0.059 C 
ATOM      8  C   UNL     1      -0.469  -0.101   0.507  0.00  0.00    +0.079 C 
ATOM      9  N   UNL     1       0.538  -0.796   1.047  0.00  0.00    -0.157 NA
ATOM     10  N   UNL     1       0.569  -1.994   0.742  0.00  0.00    -0.178 NA
ATOM     11  C   UNL     1      -0.714   1.369   0.733  0.00  0.00    +0.069 C 
ENDBRANCH   3   7
ENDBRANCH   1   3
BRANCH   1  12
ATOM     12  N   UNL     1      -4.580  -0.964  -1.577  0.00  0.00    -0.295 N 
ATOM     13  H   UNL     1      -4.540  -0.249  -2.231  0.00  0.00    +0.154 HD
BRANCH  12  14
ATOM     14  C   UNL     1      -5.746  -1.726  -1.442  0.00  0.00    +0.053 A 
ATOM     15  C   UNL     1      -6.274  -1.973  -0.182  0.00  0.00    +0.044 A 
ATOM     16  C   UNL     1      -7.426  -2.726  -0.053  0.00  0.00    +0.043 A 
ATOM     17  C   UNL     1      -8.053  -3.233  -1.178  0.00  0.00    +0.021 A 
ATOM     18  C   UNL     1      -7.529  -2.989  -2.434  0.00  0.00    +0.023 A 
ATOM     19  C   UNL     1      -6.381  -2.231  -2.571  0.00  0.00    +0.062 A 
ATOM     20 CL   UNL     1      -5.728  -1.919  -4.149  0.00  0.00    -0.082 Cl
ATOM     21 CL   UNL     1      -8.088  -3.035   1.522  0.00  0.00    -0.083 Cl
ENDBRANCH  12  14
ENDBRANCH   1  12
TORSDOF 4
