REMARK  Name = ZINC59547251
REMARK  8 active torsions:
REMARK  status: ('A' for Active; 'I' for Inactive)
REMARK    1  A    between atoms: C_1  and  C_2
REMARK    2  A    between atoms: C_2  and  C_3
REMARK    3  A    between atoms: C_6  and  N_9
REMARK    4  A    between atoms: C_11  and  C_16
REMARK    5  A    between atoms: N_18  and  C_19
REMARK    6  A    between atoms: C_22  and  S_25
REMARK    7  A    between atoms: S_25  and  N_28
REMARK    8  A    between atoms: C_32  and  C_35
REMARK                            x       y       z     vdW  Elec       q    Type
REMARK                         _______ _______ _______ _____ _____    ______ ____
ROOT
ATOM      1  C   UNL     1       4.983  -4.928   7.131  0.00  0.00    +0.222 C 
ATOM      2  O   UNL     1       5.937  -5.677   7.115  0.00  0.00    -0.275 OA
ATOM      3  N   UNL     1       3.755  -5.394   6.829  0.00  0.00    -0.285 N 
ATOM      4  H   UNL     1       3.006  -4.781   6.764  0.00  0.00    +0.155 HD
ENDROOT
BRANCH   1   7
ATOM      5  N   UNL     1       6.795  -3.334   9.246  0.00  0.00    -0.271 N 
ATOM      6  C   UNL     1       6.654  -3.170   7.795  0.00  0.00    +0.127 C 
ATOM      7  C   UNL     1       5.171  -3.476   7.488  0.00  0.00    +0.102 C 
ATOM      8  C   UNL     1       4.495  -3.145   8.838  0.00  0.00    +0.110 C 
ATOM      9  C   UNL     1       5.598  -3.324   9.858  0.00  0.00    +0.221 C 
ATOM     10  O   UNL     1       5.427  -3.439  11.053  0.00  0.00    -0.275 OA
BRANCH   5  14
ATOM     11  C   UNL     1      10.437  -3.792  11.217  0.00  0.00    -0.048 A 
ATOM     12  C   UNL     1       9.267  -3.683  11.946  0.00  0.00    +0.005 A 
ATOM     13  C   UNL     1       8.058  -3.531  11.296  0.00  0.00    +0.024 A 
ATOM     14  C   UNL     1       8.018  -3.487   9.908  0.00  0.00    +0.036 A 
ATOM     15  C   UNL     1       9.195  -3.596   9.179  0.00  0.00    +0.024 A 
ATOM     16  C   UNL     1      10.401  -3.743   9.835  0.00  0.00    +0.005 A 
BRANCH  11  18
ATOM     17  C   UNL     1      12.355  -2.580  12.218  0.00  0.00    +0.009 C 
ATOM     18  C   UNL     1      11.754  -3.957  11.930  0.00  0.00    +0.032 C 
ENDBRANCH  11  18
ENDBRANCH   5  14
ENDBRANCH   1   7
BRANCH   3  19
ATOM     19  C   UNL     1       3.561  -6.762   6.608  0.00  0.00    +0.034 A 
ATOM     20  C   UNL     1       2.638  -7.190   5.662  0.00  0.00    +0.025 A 
ATOM     21  C   UNL     1       2.448  -8.541   5.447  0.00  0.00    +0.030 A 
ATOM     22  C   UNL     1       3.176  -9.467   6.172  0.00  0.00    +0.106 A 
ATOM     23  C   UNL     1       4.095  -9.044   7.115  0.00  0.00    +0.030 A 
ATOM     24  C   UNL     1       4.293  -7.694   7.331  0.00  0.00    +0.025 A 
BRANCH  22  25
ATOM     25  S   UNL     1       2.931 -11.190   5.895  0.00  0.00    +0.061 S 
ATOM     26  O   UNL     1       3.337 -11.854   7.083  0.00  0.00    -0.153 OA
ATOM     27  O   UNL     1       1.626 -11.332   5.351  0.00  0.00    -0.153 OA
BRANCH  25  28
ATOM     28  N   UNL     1       3.991 -11.650   4.709  0.00  0.00    -0.176 NA
ATOM     29  C   UNL     1       3.604 -11.588   3.293  0.00  0.00    +0.109 C 
ATOM     30  C   UNL     1       4.654 -10.773   2.531  0.00  0.00    +0.017 C 
ATOM     31  C   UNL     1       6.039 -11.376   2.777  0.00  0.00    +0.006 C 
ATOM     32  C   UNL     1       6.367 -11.309   4.271  0.00  0.00    +0.002 C 
ATOM     33  C   UNL     1       5.339 -12.124   5.053  0.00  0.00    +0.112 C 
ATOM     34  C   UNL     1       7.766 -11.881   4.512  0.00  0.00    +0.009 C 
ENDBRANCH  25  28
ENDBRANCH  22  25
ENDBRANCH   3  19
TORSDOF 6
