REMARK  Name = ZINC05325306
REMARK  2 active torsions:
REMARK  status: ('A' for Active; 'I' for Inactive)
REMARK    1  A    between atoms: C_4  and  C_7
REMARK    2  A    between atoms: N_16  and  C_17
REMARK                            x       y       z     vdW  Elec       q    Type
REMARK                         _______ _______ _______ _____ _____    ______ ____
ROOT
ATOM      1  C   UNL     1      -2.550   2.841   1.727  0.00  0.00    +0.201 C 
ATOM      2  N   UNL     1      -1.454   2.515   0.803  0.00  0.00    -0.198 NA
ATOM      3  C   UNL     1      -1.953   1.896  -0.447  0.00  0.00    +0.110 C 
ATOM      4  C   UNL     1      -0.728   1.075  -0.926  0.00  0.00    +0.038 C 
ATOM      5  C   UNL     1       0.091   0.890   0.373  0.00  0.00    +0.130 C 
ATOM      6  N   UNL     1      -0.720   1.527   1.429  0.00  0.00    -0.216 N 
ATOM      7  C   UNL     1      -1.029   1.497   2.731  0.00  0.00    +0.325 C 
ATOM      8  O   UNL     1      -0.366   0.931   3.579  0.00  0.00    -0.251 OA
ATOM      9  N   UNL     1      -2.167   2.172   2.983  0.00  0.00    -0.233 N 
ENDROOT
BRANCH   9  10
ATOM     10  C   UNL     1      -2.854   2.227   4.202  0.00  0.00    +0.041 A 
ATOM     11  C   UNL     1      -3.949   3.069   4.346  0.00  0.00    +0.025 A 
ATOM     12  C   UNL     1      -4.628   3.118   5.547  0.00  0.00    +0.023 A 
ATOM     13  C   UNL     1      -4.211   2.338   6.612  0.00  0.00    +0.059 A 
ATOM     14  C   UNL     1      -3.116   1.502   6.473  0.00  0.00    +0.061 A 
ATOM     15  C   UNL     1      -2.437   1.445   5.270  0.00  0.00    +0.045 A 
ATOM     16 CL   UNL     1      -2.596   0.524   7.810  0.00  0.00    -0.082 Cl
ATOM     17 CL   UNL     1      -5.062   2.408   8.123  0.00  0.00    -0.082 Cl
ENDBRANCH   9  10
BRANCH   1  21
ATOM     18  C   UNL     1      -6.253   1.295   0.263  0.00  0.00    +0.000 A 
ATOM     19  C   UNL     1      -5.960   2.638   0.121  0.00  0.00    +0.000 A 
ATOM     20  C   UNL     1      -4.762   3.139   0.594  0.00  0.00    +0.007 A 
ATOM     21  C   UNL     1      -3.857   2.296   1.211  0.00  0.00    -0.011 A 
ATOM     22  C   UNL     1      -4.147   0.951   1.349  0.00  0.00    +0.007 A 
ATOM     23  C   UNL     1      -5.347   0.452   0.879  0.00  0.00    +0.000 A 
ENDBRANCH   1  21
TORSDOF 2
