REMARK  Name = ZINC54946731
REMARK  12 active torsions:
REMARK  status: ('A' for Active; 'I' for Inactive)
REMARK    1  A    between atoms: C_1  and  C_2
REMARK    2  A    between atoms: C_5  and  C_29
REMARK    3  A    between atoms: N_8  and  C_10
REMARK    4  A    between atoms: C_10  and  C_11
REMARK    5  A    between atoms: C_10  and  C_12
REMARK    6  A    between atoms: C_10  and  C_13
REMARK    7  A    between atoms: C_13  and  N_14
REMARK    8  A    between atoms: C_15  and  C_17
REMARK    9  A    between atoms: C_23  and  C_25
REMARK   10  A    between atoms: C_25  and  C_26
REMARK   11  A    between atoms: C_25  and  C_27
REMARK   12  A    between atoms: C_25  and  C_28
REMARK                            x       y       z     vdW  Elec       q    Type
REMARK                         _______ _______ _______ _____ _____    ______ ____
ROOT
ATOM      1  N   UNL     1       2.001   1.661   3.436  0.00  0.00    -0.309 N 
ATOM      2  C   UNL     1       1.527   2.460   4.412  0.00  0.00    +0.299 C 
ATOM      3  O   UNL     1       1.212   1.986   5.484  0.00  0.00    -0.265 OA
ATOM      4  H   UNL     1       2.253   2.039   2.579  0.00  0.00    +0.149 HD
ENDROOT
BRANCH   2   5
ATOM      5  C   UNL     1       1.390   3.928   4.175  0.00  0.00    +0.305 C 
ATOM      6  O   UNL     1       1.705   4.401   3.103  0.00  0.00    -0.265 OA
ATOM      7  N   UNL     1       0.915   4.726   5.152  0.00  0.00    -0.255 N 
ATOM      8  C   UNL     1       0.788   6.091   4.931  0.00  0.00    +0.188 A 
ATOM      9  N   UNL     1       1.062   6.810   3.851  0.00  0.00    -0.126 NA
ATOM     10  N   UNL     1       0.885   8.059   3.821  0.00  0.00    -0.144 NA
ATOM     11  C   UNL     1       0.416   8.727   4.857  0.00  0.00    +0.109 A 
ATOM     12  S   UNL     1       0.198   7.384   6.021  0.00  0.00    -0.035 S 
ATOM     13  H   UNL     1       0.663   4.348   6.008  0.00  0.00    +0.157 HD
BRANCH  11  14
ATOM     14  C   UNL     1       0.139  10.200   5.014  0.00  0.00    +0.013 C 
ATOM     15  C   UNL     1      -0.898  10.637   3.978  0.00  0.00    +0.018 C 
ATOM     16  C   UNL     1      -0.400  10.469   6.420  0.00  0.00    +0.018 C 
ATOM     17  C   UNL     1       1.433  10.988   4.804  0.00  0.00    +0.018 C 
ENDBRANCH  11  14
ENDBRANCH   2   5
BRANCH   1  18
ATOM     18  C   UNL     1       2.136   0.221   3.668  0.00  0.00    +0.092 C 
BRANCH  18  19
ATOM     19  C   UNL     1       2.570  -0.467   2.372  0.00  0.00    -0.055 C 
ATOM     20  C   UNL     1       2.628  -1.980   2.592  0.00  0.00    -0.008 C 
ATOM     21  C   UNL     1       3.953   0.043   1.963  0.00  0.00    -0.008 C 
BRANCH  19  27
ATOM     22  C   UNL     1      -0.773   1.282   0.483  0.00  0.00    +0.005 C 
ATOM     23  C   UNL     1      -0.757  -0.239   0.650  0.00  0.00    -0.031 C 
ATOM     24  C   UNL     1      -0.373  -0.895  -0.679  0.00  0.00    +0.003 C 
ATOM     25  C   UNL     1       1.047  -0.466  -1.058  0.00  0.00    -0.031 C 
ATOM     26  C   UNL     1       2.007  -0.843   0.073  0.00  0.00    -0.075 C 
ATOM     27  N   UNL     1       1.602  -0.164   1.310  0.00  0.00    +0.384 N 
ATOM     28  C   UNL     1       0.269  -0.624   1.718  0.00  0.00    -0.075 C 
ATOM     29  C   UNL     1       1.470  -1.176  -2.345  0.00  0.00    +0.005 C 
ATOM     30  H   UNL     1       1.579   0.833   1.153  0.00  0.00    -0.081 HD
ENDBRANCH  19  27
ENDBRANCH  18  19
ENDBRANCH   1  18
TORSDOF 5
