REMARK  Name = ZINC36313899
REMARK  15 active torsions:
REMARK  status: ('A' for Active; 'I' for Inactive)
REMARK    1  A    between atoms: C_1  and  C_2
REMARK    2  A    between atoms: C_2  and  C_3
REMARK    3  A    between atoms: C_3  and  C_4
REMARK    4  A    between atoms: C_4  and  C_5
REMARK    5  A    between atoms: C_5  and  C_7
REMARK    6  A    between atoms: C_5  and  O_38
REMARK    7  A    between atoms: C_7  and  N_8
REMARK    8  A    between atoms: N_8  and  C_9
REMARK    9  A    between atoms: N_8  and  C_31
REMARK   10  A    between atoms: C_9  and  C_10
REMARK   11  A    between atoms: C_11  and  C_30
REMARK   12  A    between atoms: N_13  and  C_24
REMARK   13  A    between atoms: C_14  and  O_15
REMARK   14  A    between atoms: O_15  and  C_16
REMARK   15  A    between atoms: C_31  and  C_32
REMARK                            x       y       z     vdW  Elec       q    Type
REMARK                         _______ _______ _______ _____ _____    ______ ____
ROOT
ATOM      1  C   UNL     1      -3.563  -6.104   1.317  0.00  0.00    +0.021 A 
ATOM      2  C   UNL     1      -2.209  -6.095   1.665  0.00  0.00    +0.065 A 
ATOM      3  N   UNL     1      -2.117  -6.139   2.969  0.00  0.00    -0.168 NA
ATOM      4  N   UNL     1      -3.411  -6.177   3.503  0.00  0.00    -0.200 N 
ATOM      5  C   UNL     1      -4.290  -6.149   2.465  0.00  0.00    +0.225 A 
ATOM      6  C   UNL     1      -1.052  -6.044   0.701  0.00  0.00    +0.068 C 
ENDROOT
BRANCH   4   7
ATOM      7  C   UNL     1      -3.742  -6.230   4.864  0.00  0.00    +0.069 A 
ATOM      8  C   UNL     1      -4.799  -5.474   5.353  0.00  0.00    +0.028 A 
ATOM      9  C   UNL     1      -5.123  -5.528   6.694  0.00  0.00    +0.002 A 
ATOM     10  C   UNL     1      -4.396  -6.335   7.551  0.00  0.00    +0.000 A 
ATOM     11  C   UNL     1      -3.343  -7.089   7.067  0.00  0.00    +0.002 A 
ATOM     12  C   UNL     1      -3.017  -7.043   5.725  0.00  0.00    +0.028 A 
ENDBRANCH   4   7
BRANCH   1  13
ATOM     13  C   UNL     1      -4.120  -6.064  -0.084  0.00  0.00    -0.036 C 
BRANCH  13  14
ATOM     14  N   UNL     1      -4.467  -4.680  -0.433  0.00  0.00    +0.386 N 
ATOM     15  H   UNL     1      -5.092  -4.303   0.264  0.00  0.00    -0.081 HD
BRANCH  14  16
ATOM     16  C   UNL     1      -3.244  -3.866  -0.484  0.00  0.00    -0.047 C 
BRANCH  16  17
ATOM     17  C   UNL     1      -3.616  -2.402  -0.725  0.00  0.00    +0.098 C 
BRANCH  17  18
ATOM     18  O   UNL     1      -4.353  -1.907   0.395  0.00  0.00    -0.394 OA
ATOM     19  H   UNL     1      -3.869  -1.945   1.231  0.00  0.00    +0.210 HD
ENDBRANCH  17  18
BRANCH  17  20
ATOM     20  C   UNL     1      -2.341  -1.575  -0.903  0.00  0.00    +0.029 C 
BRANCH  20  21
ATOM     21  C   UNL     1      -2.713  -0.136  -1.267  0.00  0.00    +0.002 C 
BRANCH  21  23
ATOM     22  C   UNL     1      -1.810   2.130  -1.808  0.00  0.00    +0.004 C 
ATOM     23  C   UNL     1      -1.438   0.691  -1.445  0.00  0.00    -0.003 C 
ENDBRANCH  21  23
ENDBRANCH  20  21
ENDBRANCH  17  20
ENDBRANCH  16  17
ENDBRANCH  14  16
BRANCH  14  24
ATOM     24  C   UNL     1      -5.126  -4.657  -1.746  0.00  0.00    -0.046 C 
BRANCH  24  25
ATOM     25  C   UNL     1      -6.473  -5.376  -1.653  0.00  0.00    +0.102 C 
ATOM     26  C   UNL     1      -7.178  -5.347  -3.026  0.00  0.00    +0.032 C 
ATOM     27  C   UNL     1      -8.661  -5.112  -2.630  0.00  0.00    +0.030 C 
ATOM     28  C   UNL     1      -8.493  -4.206  -1.385  0.00  0.00    +0.160 C 
ATOM     29  O   UNL     1      -7.320  -4.702  -0.715  0.00  0.00    -0.378 OA
ENDBRANCH  24  25
ENDBRANCH  14  24
ENDBRANCH  13  14
ENDBRANCH   1  13
BRANCH   5  30
ATOM     30  O   UNL     1      -5.644  -6.165   2.559  0.00  0.00    -0.435 OA
BRANCH  30  31
ATOM     31  C   UNL     1      -6.263  -7.372   2.643  0.00  0.00    +0.166 A 
ATOM     32  C   UNL     1      -5.511  -8.533   2.739  0.00  0.00    +0.052 A 
ATOM     33  C   UNL     1      -6.142  -9.760   2.825  0.00  0.00    +0.042 A 
ATOM     34  C   UNL     1      -7.525  -9.831   2.816  0.00  0.00    +0.126 A 
ATOM     35  C   UNL     1      -8.279  -8.674   2.719  0.00  0.00    +0.080 A 
ATOM     36  C   UNL     1      -7.651  -7.444   2.639  0.00  0.00    +0.168 A 
ATOM     37  F   UNL     1      -8.386  -6.314   2.550  0.00  0.00    -0.202 F 
ATOM     38  F   UNL     1      -8.139 -11.031   2.900  0.00  0.00    -0.205 F 
ENDBRANCH  30  31
ENDBRANCH   5  30
TORSDOF 13
