REMARK  Name = ZINC04997517
REMARK  5 active torsions:
REMARK  status: ('A' for Active; 'I' for Inactive)
REMARK    1  A    between atoms: C_1  and  C_2
REMARK    2  A    between atoms: C_3  and  C_23
REMARK    3  A    between atoms: C_4  and  C_14
REMARK    4  A    between atoms: C_17  and  N_20
REMARK    5  A    between atoms: N_25  and  C_26
REMARK                            x       y       z     vdW  Elec       q    Type
REMARK                         _______ _______ _______ _____ _____    ______ ____
ROOT
ATOM      1  C   UNL     1       0.363   0.006   0.553  0.00  0.00    +0.061 C 
ATOM      2  C   UNL     1       0.177   1.489   0.360  0.00  0.00    +0.029 C 
ATOM      3  C   UNL     1       1.244   2.270   0.124  0.00  0.00    +0.131 C 
ATOM      4  C   UNL     1       1.097   3.750  -0.077  0.00  0.00    +0.071 C 
ATOM      5  C   UNL     1      -0.232   4.236   0.443  0.00  0.00    +0.025 C 
ATOM      6  C   UNL     1      -1.245   3.372   0.656  0.00  0.00    +0.048 C 
ATOM      7  N   UNL     1      -1.077   2.031   0.426  0.00  0.00    -0.260 NA
ATOM      8  C   UNL     1      -2.582   3.851   1.170  0.00  0.00    +0.056 C 
ATOM      9  C   UNL     1      -2.384   5.087   2.050  0.00  0.00    +0.014 C 
ATOM     10  C   UNL     1      -1.680   6.167   1.221  0.00  0.00    +0.080 C 
ATOM     11  C   UNL     1      -0.387   5.611   0.691  0.00  0.00    +0.162 C 
ATOM     12  O   UNL     1       0.541   6.365   0.473  0.00  0.00    -0.292 OA
ENDROOT
BRANCH   4  13
ATOM     13  C   UNL     1       1.199   4.066  -1.547  0.00  0.00    -0.039 A 
ATOM     14  C   UNL     1       0.299   3.511  -2.438  0.00  0.00    +0.006 A 
ATOM     15  C   UNL     1       0.390   3.805  -3.785  0.00  0.00    +0.033 A 
ATOM     16  C   UNL     1       1.387   4.645  -4.244  0.00  0.00    +0.126 A 
ATOM     17  C   UNL     1       2.290   5.196  -3.354  0.00  0.00    +0.033 A 
ATOM     18  C   UNL     1       2.196   4.907  -2.006  0.00  0.00    +0.006 A 
BRANCH  16  19
ATOM     19  N   UNL     1       1.488   4.955  -5.688  0.00  0.00    +0.056 N 
ATOM     20  O   UNL     1       2.367   5.695  -6.092  0.00  0.00    -0.126 OA
ATOM     21  O   UNL     1       0.693   4.469  -6.472  0.00  0.00    -0.126 OA
ENDBRANCH  16  19
ENDBRANCH   4  13
BRANCH   3  22
ATOM     22  C   UNL     1       2.533   1.685   0.063  0.00  0.00    +0.227 C 
ATOM     23  O   UNL     1       2.655   0.475   0.118  0.00  0.00    -0.275 OA
ATOM     24  N   UNL     1       3.623   2.468  -0.057  0.00  0.00    -0.285 N 
ATOM     25  H   UNL     1       3.533   3.433  -0.025  0.00  0.00    +0.155 HD
BRANCH  24  26
ATOM     26  C   UNL     1       4.885   1.888  -0.225  0.00  0.00    +0.033 A 
ATOM     27  C   UNL     1       6.011   2.504   0.306  0.00  0.00    +0.023 A 
ATOM     28  C   UNL     1       7.254   1.927   0.142  0.00  0.00    +0.002 A 
ATOM     29  C   UNL     1       7.381   0.742  -0.560  0.00  0.00    +0.000 A 
ATOM     30  C   UNL     1       6.263   0.129  -1.095  0.00  0.00    +0.002 A 
ATOM     31  C   UNL     1       5.016   0.699  -0.930  0.00  0.00    +0.023 A 
ENDBRANCH  24  26
ENDBRANCH   3  22
TORSDOF 4
