REMARK  Name = ZINC64600387
REMARK  8 active torsions:
REMARK  status: ('A' for Active; 'I' for Inactive)
REMARK    1  A    between atoms: C_1  and  C_2
REMARK    2  A    between atoms: C_4  and  O_32
REMARK    3  A    between atoms: C_11  and  C_16
REMARK    4  A    between atoms: C_13  and  C_15
REMARK    5  A    between atoms: C_16  and  C_17
REMARK    6  A    between atoms: N_19  and  C_20
REMARK    7  A    between atoms: C_20  and  C_21
REMARK    8  A    between atoms: C_21  and  C_22
REMARK                            x       y       z     vdW  Elec       q    Type
REMARK                         _______ _______ _______ _____ _____    ______ ____
ROOT
ATOM      1  C   UNL     1       2.724  -4.783   2.612  0.00  0.00    +0.214 C 
ATOM      2  O   UNL     1       2.033  -5.314   3.455  0.00  0.00    -0.276 OA
ATOM      3  N   UNL     1       4.038  -4.588   2.843  0.00  0.00    -0.315 N 
ATOM      4  H   UNL     1       4.591  -4.164   2.168  0.00  0.00    +0.149 HD
ENDROOT
BRANCH   1   5
ATOM      5  C   UNL     1       2.115  -4.341   1.307  0.00  0.00    +0.111 C 
BRANCH   5  16
ATOM      6  C   UNL     1      -0.700   1.426  -0.525  0.00  0.00    +0.044 C 
ATOM      7  C   UNL     1      -0.510  -0.063  -0.392  0.00  0.00    -0.044 A 
ATOM      8  C   UNL     1      -0.470  -0.859  -1.522  0.00  0.00    +0.049 A 
ATOM      9  C   UNL     1      -0.298  -2.228  -1.398  0.00  0.00    +0.124 A 
ATOM     10  C   UNL     1      -0.165  -2.807  -0.140  0.00  0.00    +0.040 A 
ATOM     11  C   UNL     1      -0.199  -2.008   0.988  0.00  0.00    +0.139 A 
ATOM     12  C   UNL     1      -0.371  -0.633   0.857  0.00  0.00    +0.050 A 
ATOM     13  O   UNL     1      -0.053  -2.525   2.238  0.00  0.00    -0.425 OA
ATOM     14  C   UNL     1      -0.091  -3.866   2.366  0.00  0.00    +0.317 C 
ATOM     15  O   UNL     1      -0.666  -4.397   3.287  0.00  0.00    -0.250 OA
ATOM     16  C   UNL     1       0.622  -4.676   1.302  0.00  0.00    +0.114 C 
ATOM     17  C   UNL     1       0.009  -4.302  -0.051  0.00  0.00    +0.037 C 
ATOM     18  C   UNL     1       0.933  -4.774  -1.176  0.00  0.00    +0.013 C 
BRANCH   9  19
ATOM     19  O   UNL     1      -0.261  -3.009  -2.509  0.00  0.00    -0.506 OA
ATOM     20  H   UNL     1       0.610  -3.059  -2.926  0.00  0.00    +0.292 HD
ENDBRANCH   9  19
ENDBRANCH   5  16
ENDBRANCH   1   5
BRANCH   3  21
ATOM     21  C   UNL     1       4.630  -5.018   4.112  0.00  0.00    +0.108 C 
BRANCH  21  22
ATOM     22  C   UNL     1       6.123  -4.683   4.117  0.00  0.00    +0.052 C 
BRANCH  22  23
ATOM     23  C   UNL     1       6.733  -5.125   5.422  0.00  0.00    -0.040 C 
ATOM     24  C   UNL     1       7.368  -6.293   5.668  0.00  0.00    +0.000 A 
ATOM     25  C   UNL     1       7.670  -7.458   4.827  0.00  0.00    +0.030 A 
ATOM     26  C   UNL     1       8.336  -8.504   5.369  0.00  0.00    +0.042 A 
ATOM     27  C   UNL     1       8.743  -8.503   6.711  0.00  0.00    +0.022 A 
ATOM     28  C   UNL     1       8.502  -7.470   7.545  0.00  0.00    +0.027 A 
ATOM     29  C   UNL     1       7.810  -6.318   7.081  0.00  0.00    +0.043 A 
ATOM     30  N   UNL     1       7.461  -5.207   7.685  0.00  0.00    -0.380 N 
ATOM     31  C   UNL     1       6.764  -4.350   6.720  0.00  0.00    +0.144 C 
ATOM     32 CL   UNL     1       8.694  -9.883   4.377  0.00  0.00    -0.084 Cl
ATOM     33  H   UNL     1       7.638  -4.988   8.613  0.00  0.00    +0.160 HD
ENDBRANCH  22  23
ENDBRANCH  21  22
ENDBRANCH   3  21
TORSDOF 6
