REMARK  Name = ZINC21219470
REMARK  10 active torsions:
REMARK  status: ('A' for Active; 'I' for Inactive)
REMARK    1  A    between atoms: C_1  and  C_2
REMARK    2  A    between atoms: C_2  and  C_3
REMARK    3  A    between atoms: C_3  and  C_5
REMARK    4  A    between atoms: C_3  and  O_6
REMARK    5  A    between atoms: O_6  and  C_7
REMARK    6  A    between atoms: C_10  and  C_13
REMARK    7  A    between atoms: C_18  and  C_23
REMARK    8  A    between atoms: C_26  and  N_29
REMARK    9  A    between atoms: N_29  and  C_30
REMARK   10  A    between atoms: N_29  and  C_31
REMARK                            x       y       z     vdW  Elec       q    Type
REMARK                         _______ _______ _______ _____ _____    ______ ____
ROOT
ATOM      1  C   UNL     1       1.578   5.781  -0.481  0.00  0.00    +0.136 C 
ATOM      2  C   UNL     1       1.618   6.348  -1.881  0.00  0.00    +0.036 C 
ATOM      3  C   UNL     1       0.790   7.282  -2.377  0.00  0.00    +0.017 C 
ATOM      4  C   UNL     1       0.918   7.734  -3.822  0.00  0.00    +0.059 C 
ATOM      5  C   UNL     1       2.384   7.690  -4.252  0.00  0.00    +0.032 C 
ATOM      6  C   UNL     1       2.871   6.243  -4.104  0.00  0.00    +0.088 C 
ATOM      7  C   UNL     1       2.645   5.805  -2.688  0.00  0.00    +0.163 C 
ATOM      8  O   UNL     1       3.371   4.952  -2.216  0.00  0.00    -0.292 OA
ATOM      9  N   UNL     1      -0.210   7.883  -1.682  0.00  0.00    -0.316 N 
ATOM     10  C   UNL     1      -1.136   7.215  -0.890  0.00  0.00    +0.052 A 
ATOM     11  C   UNL     1      -2.494   7.241  -1.159  0.00  0.00    +0.025 A 
ATOM     12  C   UNL     1      -3.373   6.645  -0.272  0.00  0.00    +0.002 A 
ATOM     13  C   UNL     1      -2.900   6.029   0.872  0.00  0.00    +0.002 A 
ATOM     14  C   UNL     1      -1.541   5.984   1.132  0.00  0.00    +0.025 A 
ATOM     15  C   UNL     1      -0.656   6.565   0.238  0.00  0.00    +0.049 A 
ATOM     16  N   UNL     1       0.722   6.506   0.434  0.00  0.00    -0.331 N 
ATOM     17  H   UNL     1      -0.329   8.976  -1.724  0.00  0.00    +0.152 HD
ATOM     18  H   UNL     1       1.157   7.022   1.302  0.00  0.00    +0.147 HD
ENDROOT
BRANCH   1  22
ATOM     19  C   UNL     1       0.217   1.736  -0.696  0.00  0.00    +0.121 A 
ATOM     20  C   UNL     1       1.509   2.013  -0.273  0.00  0.00    +0.046 A 
ATOM     21  C   UNL     1       1.948   3.321  -0.209  0.00  0.00    +0.009 A 
ATOM     22  C   UNL     1       1.098   4.354  -0.556  0.00  0.00    -0.023 A 
ATOM     23  C   UNL     1      -0.191   4.081  -0.974  0.00  0.00    +0.009 A 
ATOM     24  C   UNL     1      -0.634   2.775  -1.044  0.00  0.00    +0.046 A 
BRANCH  19  25
ATOM     25  O   UNL     1      -0.216   0.449  -0.764  0.00  0.00    -0.489 OA
BRANCH  25  26
ATOM     26  C   UNL     1      -1.591   0.244  -1.091  0.00  0.00    +0.170 C 
ATOM     27  C   UNL     1      -1.762   0.257  -2.611  0.00  0.00    +0.052 C 
BRANCH  26  29
ATOM     28  C   UNL     1      -1.998  -1.075   0.992  0.00  0.00    +0.007 C 
ATOM     29  C   UNL     1      -2.051  -1.106  -0.537  0.00  0.00    +0.041 C 
ENDBRANCH  26  29
ENDBRANCH  25  26
ENDBRANCH  19  25
ENDBRANCH   1  22
BRANCH   5  30
ATOM     30  C   UNL     1       2.508   8.125  -5.689  0.00  0.00    -0.043 A 
ATOM     31  C   UNL     1       1.827   7.440  -6.679  0.00  0.00    +0.006 A 
ATOM     32  C   UNL     1       1.934   7.840  -7.996  0.00  0.00    +0.023 A 
ATOM     33  C   UNL     1       2.736   8.925  -8.328  0.00  0.00    +0.029 A 
ATOM     34  C   UNL     1       3.422   9.608  -7.332  0.00  0.00    +0.023 A 
ATOM     35  C   UNL     1       3.307   9.206  -6.016  0.00  0.00    +0.006 A 
BRANCH  33  36
ATOM     36  N   UNL     1       2.850   9.330  -9.660  0.00  0.00    -0.336 N 
ATOM     37  C   UNL     1       3.591  10.549  -9.995  0.00  0.00    +0.129 C 
ATOM     38  C   UNL     1       2.230   8.535 -10.723  0.00  0.00    +0.129 C 
ENDBRANCH  33  36
ENDBRANCH   5  30
TORSDOF 6
