REMARK  Name = ZINC07830594
REMARK  7 active torsions:
REMARK  status: ('A' for Active; 'I' for Inactive)
REMARK    1  A    between atoms: C_1  and  C_2
REMARK    2  A    between atoms: C_2  and  C_4
REMARK    3  A    between atoms: C_2  and  N_14
REMARK    4  A    between atoms: C_15  and  C_17
REMARK    5  A    between atoms: C_17  and  S_18
REMARK    6  A    between atoms: S_18  and  C_19
REMARK    7  A    between atoms: C_22  and  C_24
REMARK                            x       y       z     vdW  Elec       q    Type
REMARK                         _______ _______ _______ _____ _____    ______ ____
ROOT
ATOM      1  N   UNL     1      -1.191   1.867   0.018  0.00  0.00    -0.308 N 
ATOM      2  C   UNL     1      -0.014   1.209   0.009  0.00  0.00    +0.224 C 
ATOM      3  O   UNL     1       0.002  -0.004   0.002  0.00  0.00    -0.275 OA
ATOM      4  H   UNL     1      -1.204   2.837   0.023  0.00  0.00    +0.149 HD
ENDROOT
BRANCH   1   6
ATOM      5  C   UNL     1      -2.816   0.740   1.456  0.00  0.00    +0.033 C 
ATOM      6  C   UNL     1      -2.449   1.117   0.020  0.00  0.00    +0.100 C 
BRANCH   6   7
ATOM      7  C   UNL     1      -3.543   1.969  -0.571  0.00  0.00    -0.027 A 
ATOM      8  C   UNL     1      -3.612   3.317  -0.268  0.00  0.00    +0.006 A 
ATOM      9  C   UNL     1      -4.614   4.091  -0.815  0.00  0.00    +0.004 A 
ATOM     10  C   UNL     1      -5.561   3.526  -1.659  0.00  0.00    -0.044 A 
ATOM     11  C   UNL     1      -5.494   2.184  -1.959  0.00  0.00    -0.044 A 
ATOM     12  C   UNL     1      -4.481   1.407  -1.412  0.00  0.00    +0.009 A 
ATOM     13  C   UNL     1      -6.480   1.507  -2.874  0.00  0.00    +0.035 C 
ATOM     14  C   UNL     1      -7.737   2.361  -3.035  0.00  0.00    +0.005 C 
ATOM     15  C   UNL     1      -7.310   3.782  -3.419  0.00  0.00    +0.005 C 
ATOM     16  C   UNL     1      -6.636   4.427  -2.209  0.00  0.00    +0.035 C 
ENDBRANCH   6   7
ENDBRANCH   1   6
BRANCH   2  17
ATOM     17  C   UNL     1       1.280   1.980   0.001  0.00  0.00    +0.174 C 
BRANCH  17  18
ATOM     18  S   UNL     1       2.672   0.823  -0.019  0.00  0.00    -0.056 S 
BRANCH  18  19
ATOM     19  C   UNL     1       4.017   1.961  -0.026  0.00  0.00    +0.278 A 
ATOM     20  N   UNL     1       3.926   3.271  -0.024  0.00  0.00    -0.101 NA
ATOM     21  N   UNL     1       5.106   3.782  -0.027  0.00  0.00    -0.106 NA
ATOM     22  C   UNL     1       5.997   2.820  -0.041  0.00  0.00    +0.252 A 
ATOM     23  O   UNL     1       5.326   1.647  -0.040  0.00  0.00    -0.411 OA
BRANCH  22  24
ATOM     24  C   UNL     1       7.465   2.988  -0.053  0.00  0.00    +0.074 A 
ATOM     25  C   UNL     1       8.299   1.869  -0.060  0.00  0.00    +0.016 A 
ATOM     26  C   UNL     1       9.669   2.033  -0.077  0.00  0.00    +0.001 A 
ATOM     27  C   UNL     1      10.218   3.303  -0.076  0.00  0.00    +0.003 A 
ATOM     28  C   UNL     1       9.400   4.418  -0.064  0.00  0.00    +0.039 A 
ATOM     29  C   UNL     1       8.025   4.269  -0.052  0.00  0.00    +0.136 A 
ATOM     30  F   UNL     1       7.226   5.358  -0.040  0.00  0.00    -0.205 F 
ENDBRANCH  22  24
ENDBRANCH  18  19
ENDBRANCH  17  18
ENDBRANCH   2  17
TORSDOF 6
