REMARK  Name = ZINC36788201
REMARK  7 active torsions:
REMARK  status: ('A' for Active; 'I' for Inactive)
REMARK    1  A    between atoms: C_4  and  N_9
REMARK    2  A    between atoms: C_5  and  C_6
REMARK    3  A    between atoms: C_10  and  C_12
REMARK    4  A    between atoms: C_12  and  S_13
REMARK    5  A    between atoms: S_13  and  C_14
REMARK    6  A    between atoms: C_17  and  C_20
REMARK    7  A    between atoms: N_18  and  N_19
REMARK                            x       y       z     vdW  Elec       q    Type
REMARK                         _______ _______ _______ _____ _____    ______ ____
ROOT
ATOM      1  N   UNL     1       1.543  -1.963  -0.023  0.00  0.00    -0.279 N 
ATOM      2  C   UNL     1       2.826  -2.376  -0.037  0.00  0.00    +0.228 C 
ATOM      3  O   UNL     1       3.725  -1.562  -0.041  0.00  0.00    -0.275 OA
ATOM      4  H   UNL     1       0.824  -2.614  -0.020  0.00  0.00    +0.155 HD
ENDROOT
BRANCH   1   8
ATOM      5  C   UNL     1      -0.018   1.441   0.010  0.00  0.00    +0.022 A 
ATOM      6  C   UNL     1       1.186   2.044   0.002  0.00  0.00    +0.048 A 
ATOM      7  S   UNL     1       2.328   0.679  -0.017  0.00  0.00    -0.081 S 
ATOM      8  C   UNL     1       1.251  -0.607  -0.013  0.00  0.00    +0.084 A 
ATOM      9  C   UNL     1       0.002  -0.004   0.002  0.00  0.00    +0.065 A 
BRANCH   9  10
ATOM     10  C   UNL     1      -1.234  -0.792   0.010  0.00  0.00    +0.244 C 
ATOM     11  O   UNL     1      -1.181  -2.008   0.003  0.00  0.00    -0.270 OA
ATOM     12  N   UNL     1      -2.430  -0.170   0.024  0.00  0.00    -0.325 N 
ATOM     13  H   UNL     1      -2.472   0.800   0.029  0.00  0.00    +0.145 HD
ATOM     14  H   UNL     1      -3.248  -0.691   0.029  0.00  0.00    +0.145 HD
ENDBRANCH   9  10
ENDBRANCH   1   8
BRANCH   2  15
ATOM     15  C   UNL     1       3.143  -3.849  -0.048  0.00  0.00    +0.173 C 
BRANCH  15  16
ATOM     16  S   UNL     1       4.942  -4.080  -0.066  0.00  0.00    -0.075 S 
BRANCH  16  17
ATOM     17  C   UNL     1       5.147  -5.830  -0.077  0.00  0.00    +0.209 A 
ATOM     18  N   UNL     1       4.189  -6.728  -0.079  0.00  0.00    -0.121 NA
ATOM     19  N   UNL     1       4.698  -7.909  -0.088  0.00  0.00    -0.123 NA
ATOM     20  C   UNL     1       5.999  -7.835  -0.093  0.00  0.00    +0.255 A 
ATOM     21  N   UNL     1       6.332  -6.509  -0.092  0.00  0.00    -0.220 N 
BRANCH  20  22
ATOM     22  C   UNL     1       6.959  -8.997  -0.103  0.00  0.00    +0.454 C 
ATOM     23  F   UNL     1       6.272 -10.166  -0.450  0.00  0.00    -0.163 F 
ATOM     24  F   UNL     1       7.971  -8.757  -1.038  0.00  0.00    -0.163 F 
ATOM     25  F   UNL     1       7.523  -9.147   1.168  0.00  0.00    -0.163 F 
ENDBRANCH  20  22
BRANCH  21  26
ATOM     26  N   UNL     1       7.588  -5.974  -0.100  0.00  0.00    -0.295 N 
ATOM     27  H   UNL     1       7.930  -5.838   0.839  0.00  0.00    +0.163 HD
ATOM     28  H   UNL     1       8.222  -6.548  -0.636  0.00  0.00    +0.163 HD
ENDBRANCH  21  26
ENDBRANCH  16  17
ENDBRANCH  15  16
ENDBRANCH   2  15
TORSDOF 7
