REMARK  Name = ZINC38771680
REMARK  7 active torsions:
REMARK  status: ('A' for Active; 'I' for Inactive)
REMARK    1  A    between atoms: C_1  and  N_2
REMARK    2  A    between atoms: N_5  and  C_8
REMARK    3  A    between atoms: C_8  and  C_10
REMARK    4  A    between atoms: C_8  and  C_25
REMARK    5  A    between atoms: C_10  and  N_11
REMARK    6  A    between atoms: N_11  and  S_12
REMARK    7  A    between atoms: S_12  and  C_15
REMARK                            x       y       z     vdW  Elec       q    Type
REMARK                         _______ _______ _______ _____ _____    ______ ____
ROOT
ATOM      1  C   UNL     1       1.453  -3.974  -0.034  0.00  0.00    +0.102 C 
ENDROOT
BRANCH   1   2
ATOM      2  C   UNL     1       0.076  -4.549   0.178  0.00  0.00    -0.025 A 
ATOM      3  C   UNL     1      -0.693  -4.916  -0.910  0.00  0.00    +0.009 A 
ATOM      4  C   UNL     1      -1.956  -5.444  -0.720  0.00  0.00    +0.050 A 
ATOM      5  C   UNL     1      -2.455  -5.606   0.562  0.00  0.00    +0.166 A 
ATOM      6  C   UNL     1      -1.679  -5.236   1.659  0.00  0.00    +0.167 A 
ATOM      7  C   UNL     1      -0.412  -4.713   1.461  0.00  0.00    +0.054 A 
ATOM      8  O   UNL     1      -2.386  -5.492   2.798  0.00  0.00    -0.453 OA
ATOM      9  C   UNL     1      -3.755  -5.639   2.377  0.00  0.00    +0.466 C 
ATOM     10  O   UNL     1      -3.647  -6.093   1.015  0.00  0.00    -0.453 OA
ENDBRANCH   1   2
BRANCH   1  15
ATOM     11  C   UNL     1       0.231   1.343   1.373  0.00  0.00    -0.096 C 
ATOM     12  N   UNL     1       0.192  -0.094   1.072  0.00  0.00    +0.379 N 
ATOM     13  C   UNL     1       0.609  -0.314  -0.319  0.00  0.00    -0.064 C 
ATOM     14  C   UNL     1       0.551  -1.810  -0.639  0.00  0.00    +0.066 C 
ATOM     15  N   UNL     1       1.438  -2.539   0.278  0.00  0.00    -0.298 NA
ATOM     16  C   UNL     1       1.048  -2.308   1.676  0.00  0.00    +0.066 C 
ATOM     17  C   UNL     1       1.102  -0.808   1.977  0.00  0.00    -0.064 C 
ATOM     18  H   UNL     1      -0.748  -0.439   1.199  0.00  0.00    -0.082 HD
ENDBRANCH   1  15
BRANCH   1  19
ATOM     19  C   UNL     1       2.450  -4.685   0.884  0.00  0.00    +0.129 C 
BRANCH  19  20
ATOM     20  N   UNL     1       3.764  -4.048   0.765  0.00  0.00    -0.188 NA
ATOM     21  H   UNL     1       3.947  -3.448   0.025  0.00  0.00    +0.148 HD
BRANCH  20  22
ATOM     22  S   UNL     1       4.936  -4.351   1.895  0.00  0.00    +0.058 S 
ATOM     23  O   UNL     1       6.086  -3.618   1.493  0.00  0.00    -0.153 OA
ATOM     24  O   UNL     1       4.328  -4.178   3.167  0.00  0.00    -0.153 OA
BRANCH  22  25
ATOM     25  C   UNL     1       5.356  -6.057   1.765  0.00  0.00    +0.106 A 
ATOM     26  C   UNL     1       4.673  -6.998   2.513  0.00  0.00    +0.029 A 
ATOM     27  C   UNL     1       5.010  -8.332   2.408  0.00  0.00    +0.006 A 
ATOM     28  C   UNL     1       6.028  -8.738   1.555  0.00  0.00    -0.044 A 
ATOM     29  C   UNL     1       6.704  -7.802   0.806  0.00  0.00    -0.042 A 
ATOM     30  C   UNL     1       6.362  -6.459   0.912  0.00  0.00    +0.032 A 
ATOM     31  C   UNL     1       7.807  -8.172  -0.150  0.00  0.00    +0.035 C 
ATOM     32  C   UNL     1       8.338  -9.570   0.157  0.00  0.00    +0.005 C 
ATOM     33  C   UNL     1       7.148 -10.534   0.236  0.00  0.00    +0.005 C 
ATOM     34  C   UNL     1       6.348 -10.209   1.496  0.00  0.00    +0.035 C 
ENDBRANCH  22  25
ENDBRANCH  20  22
ENDBRANCH  19  20
ENDBRANCH   1  19
TORSDOF 6
