REMARK  Name = ZINC44175653
REMARK  2 active torsions:
REMARK  status: ('A' for Active; 'I' for Inactive)
REMARK    1  A    between atoms: C_4  and  C_7
REMARK    2  A    between atoms: N_13  and  C_14
REMARK                            x       y       z     vdW  Elec       q    Type
REMARK                         _______ _______ _______ _____ _____    ______ ____
ROOT
ATOM      1  C   UNL     1       2.758  -0.904   0.018  0.00  0.00    +0.170 C 
ATOM      2  C   UNL     1       3.136  -1.765  -1.176  0.00  0.00    +0.236 C 
ATOM      3  O   UNL     1       3.051  -1.360  -2.316  0.00  0.00    -0.274 OA
ATOM      4  N   UNL     1       3.564  -2.984  -0.894  0.00  0.00    -0.264 N 
ATOM      5  C   UNL     1       3.664  -3.453   0.398  0.00  0.00    +0.162 C 
ATOM      6  N   UNL     1       4.072  -4.634   0.803  0.00  0.00    -0.225 NA
ATOM      7  S   UNL     1       3.110  -2.075   1.394  0.00  0.00    -0.073 S 
ATOM      8  H   UNL     1       3.817  -3.571  -1.625  0.00  0.00    +0.157 HD
ENDROOT
BRANCH   6   9
ATOM      9  C   UNL     1       4.202  -4.891   2.137  0.00  0.00    +0.074 A 
ATOM     10  C   UNL     1       4.907  -4.022   2.961  0.00  0.00    +0.028 A 
ATOM     11  C   UNL     1       5.038  -4.285   4.317  0.00  0.00    +0.003 A 
ATOM     12  C   UNL     1       4.489  -5.391   4.891  0.00  0.00    +0.008 A 
ATOM     13  C   UNL     1       3.763  -6.312   4.119  0.00  0.00    -0.016 A 
ATOM     14  C   UNL     1       3.598  -6.081   2.731  0.00  0.00    +0.008 A 
ATOM     15  C   UNL     1       2.870  -6.995   1.959  0.00  0.00    +0.010 A 
ATOM     16  C   UNL     1       2.323  -8.093   2.553  0.00  0.00    +0.001 A 
ATOM     17  C   UNL     1       2.478  -8.320   3.918  0.00  0.00    +0.001 A 
ATOM     18  C   UNL     1       3.191  -7.459   4.696  0.00  0.00    +0.008 A 
ENDBRANCH   6   9
BRANCH   1  22
ATOM     19  C   UNL     1      -1.377   0.163  -0.091  0.00  0.00    +0.000 A 
ATOM     20  C   UNL     1      -0.410   1.149  -0.023  0.00  0.00    +0.000 A 
ATOM     21  C   UNL     1       0.928   0.804   0.012  0.00  0.00    +0.005 A 
ATOM     22  C   UNL     1       1.300  -0.527  -0.020  0.00  0.00    -0.025 A 
ATOM     23  C   UNL     1       0.333  -1.514  -0.086  0.00  0.00    +0.005 A 
ATOM     24  C   UNL     1      -1.005  -1.169  -0.123  0.00  0.00    +0.000 A 
ENDBRANCH   1  22
TORSDOF 2
