REMARK  Name = ZINC09135429
REMARK  12 active torsions:
REMARK  status: ('A' for Active; 'I' for Inactive)
REMARK    1  A    between atoms: C_1  and  C_2
REMARK    2  A    between atoms: C_4  and  C_31
REMARK    3  A    between atoms: C_5  and  N_9
REMARK    4  A    between atoms: C_6  and  C_8
REMARK    5  A    between atoms: C_10  and  C_12
REMARK    6  A    between atoms: N_14  and  C_15
REMARK    7  A    between atoms: C_15  and  C_16
REMARK    8  A    between atoms: C_16  and  C_18
REMARK    9  A    between atoms: C_16  and  N_65
REMARK   10  A    between atoms: N_27  and  C_28
REMARK   11  A    between atoms: C_29  and  N_65
REMARK   12  A    between atoms: C_30  and  N_65
REMARK                            x       y       z     vdW  Elec       q    Type
REMARK                         _______ _______ _______ _____ _____    ______ ____
ROOT
ATOM      1  C   UNL     1      -0.936   5.056  -1.691  0.00  0.00    +0.299 C 
ATOM      2  O   UNL     1       0.153   4.626  -2.010  0.00  0.00    -0.265 OA
ATOM      3  N   UNL     1      -1.588   4.526  -0.637  0.00  0.00    -0.309 N 
ATOM      4  H   UNL     1      -2.458   4.869  -0.382  0.00  0.00    +0.149 HD
ENDROOT
BRANCH   1   6
ATOM      5  N   UNL     1      -0.904   6.702  -3.521  0.00  0.00    -0.277 N 
ATOM      6  C   UNL     1      -1.555   6.172  -2.467  0.00  0.00    +0.303 C 
ATOM      7  O   UNL     1      -2.645   6.602  -2.148  0.00  0.00    -0.265 OA
ATOM      8  H   UNL     1      -0.057   6.326  -3.807  0.00  0.00    +0.155 HD
BRANCH   5  13
ATOM      9  C   UNL     1      -3.118  11.130  -6.288  0.00  0.00    +0.044 C 
ATOM     10  C   UNL     1      -2.530   9.953  -5.553  0.00  0.00    -0.050 A 
ATOM     11  C   UNL     1      -1.344  10.098  -4.856  0.00  0.00    +0.008 A 
ATOM     12  C   UNL     1      -0.802   9.022  -4.181  0.00  0.00    -0.029 A 
ATOM     13  C   UNL     1      -1.450   7.793  -4.203  0.00  0.00    +0.040 A 
ATOM     14  C   UNL     1      -2.638   7.650  -4.908  0.00  0.00    -0.029 A 
ATOM     15  C   UNL     1      -3.177   8.731  -5.576  0.00  0.00    +0.008 A 
ATOM     16  C   UNL     1      -3.341   6.317  -4.939  0.00  0.00    +0.045 C 
ATOM     17  C   UNL     1       0.490   9.181  -3.422  0.00  0.00    +0.045 C 
ENDBRANCH   5  13
ENDBRANCH   1   6
BRANCH   3  18
ATOM     18  C   UNL     1      -0.978   3.435   0.128  0.00  0.00    +0.094 C 
BRANCH  18  19
ATOM     19  C   UNL     1      -1.854   3.108   1.338  0.00  0.00    -0.021 C 
BRANCH  19  20
ATOM     20  C   UNL     1      -1.896   4.297   2.264  0.00  0.00    -0.059 A 
ATOM     21  C   UNL     1      -0.849   4.533   3.136  0.00  0.00    +0.004 A 
ATOM     22  C   UNL     1      -0.888   5.622   3.979  0.00  0.00    +0.023 A 
ATOM     23  C   UNL     1      -1.985   6.486   3.968  0.00  0.00    +0.033 A 
ATOM     24  C   UNL     1      -3.030   6.244   3.094  0.00  0.00    -0.026 A 
ATOM     25  C   UNL     1      -2.982   5.149   2.246  0.00  0.00    +0.007 A 
ATOM     26  C   UNL     1      -4.239   7.144   3.025  0.00  0.00    +0.038 C 
ATOM     27  C   UNL     1      -4.286   8.040   4.265  0.00  0.00    +0.024 C 
ATOM     28  C   UNL     1      -2.888   8.636   4.470  0.00  0.00    +0.105 C 
ATOM     29  N   UNL     1      -1.971   7.561   4.855  0.00  0.00    -0.333 N 
ATOM     30  C   UNL     1      -0.607   8.074   5.040  0.00  0.00    +0.129 C 
ENDBRANCH  19  20
BRANCH  19  33
ATOM     31  C   UNL     1      -2.144   1.571   3.187  0.00  0.00    -0.096 C 
ATOM     32  C   UNL     1      -1.094   0.818   1.139  0.00  0.00    -0.096 C 
ATOM     33  N   UNL     1      -1.268   1.960   2.062  0.00  0.00    +0.382 N 
ATOM     34  H   UNL     1      -0.350   2.233   2.432  0.00  0.00    -0.082 HD
ENDBRANCH  19  33
ENDBRANCH  18  19
ENDBRANCH   3  18
TORSDOF 6
