REMARK  Name = ZINC49601362
REMARK  16 active torsions:
REMARK  status: ('A' for Active; 'I' for Inactive)
REMARK    1  A    between atoms: C_1  and  C_2
REMARK    2  A    between atoms: C_2  and  C_3
REMARK    3  A    between atoms: C_2  and  C_4
REMARK    4  A    between atoms: C_2  and  O_41
REMARK    5  A    between atoms: C_8  and  C_11
REMARK    6  A    between atoms: C_11  and  O_13
REMARK    7  A    between atoms: O_13  and  C_14
REMARK    8  A    between atoms: C_14  and  C_15
REMARK    9  A    between atoms: C_17  and  O_40
REMARK   10  A    between atoms: C_19  and  O_39
REMARK   11  A    between atoms: C_21  and  O_38
REMARK   12  A    between atoms: C_23  and  O_26
REMARK   13  A    between atoms: O_26  and  C_27
REMARK   14  A    between atoms: C_29  and  C_35
REMARK   15  A    between atoms: C_31  and  O_34
REMARK   16  A    between atoms: C_32  and  O_33
REMARK                            x       y       z     vdW  Elec       q    Type
REMARK                         _______ _______ _______ _____ _____    ______ ____
ROOT
ATOM      1  C   UNL     1      -6.956  -5.426   0.173  0.00  0.00    +0.191 C 
ATOM      2  C   UNL     1      -8.299  -6.053  -0.213  0.00  0.00    +0.178 C 
ATOM      3  C   UNL     1      -8.525  -7.313   0.629  0.00  0.00    +0.180 C 
ATOM      4  C   UNL     1      -8.463  -6.940   2.113  0.00  0.00    +0.214 C 
ATOM      5  C   UNL     1      -7.114  -6.279   2.409  0.00  0.00    +0.339 C 
ATOM      6  O   UNL     1      -6.953  -5.133   1.571  0.00  0.00    -0.330 OA
ENDROOT
BRANCH   4   7
ATOM      7  O   UNL     1      -8.602  -8.120   2.908  0.00  0.00    -0.383 OA
ATOM      8  H   UNL     1      -8.572  -7.958   3.861  0.00  0.00    +0.210 HD
ENDBRANCH   4   7
BRANCH   3   9
ATOM      9  O   UNL     1      -9.809  -7.865   0.326  0.00  0.00    -0.386 OA
ATOM     10  H   UNL     1     -10.019  -8.667   0.824  0.00  0.00    +0.210 HD
ENDBRANCH   3   9
BRANCH   2  11
ATOM     11  O   UNL     1      -8.283  -6.399  -1.599  0.00  0.00    -0.386 OA
ATOM     12  H   UNL     1      -9.104  -6.803  -1.913  0.00  0.00    +0.210 HD
ENDBRANCH   2  11
BRANCH   1  13
ATOM     13  C   UNL     1      -6.749  -4.135  -0.620  0.00  0.00    +0.266 C 
BRANCH  13  14
ATOM     14  O   UNL     1      -5.448  -3.611  -0.347  0.00  0.00    -0.459 OA
BRANCH  14  15
ATOM     15  C   UNL     1      -5.105  -2.467  -0.972  0.00  0.00    +0.335 C 
ATOM     16  O   UNL     1      -5.890  -1.928  -1.728  0.00  0.00    -0.245 OA
BRANCH  15  20
ATOM     17  C   UNL     1      -1.433  -0.534   0.013  0.00  0.00    +0.024 C 
ATOM     18  C   UNL     1      -1.417  -2.067  -0.005  0.00  0.00    +0.011 C 
ATOM     19  C   UNL     1      -2.847  -2.571   0.202  0.00  0.00    +0.042 C 
ATOM     20  C   UNL     1      -3.783  -1.870  -0.740  0.00  0.00    +0.033 C 
ATOM     21  C   UNL     1      -3.487  -0.753  -1.369  0.00  0.00    -0.016 C 
ATOM     22  C   UNL     1      -2.174  -0.037  -1.230  0.00  0.00    +0.034 C 
BRANCH  17  24
ATOM     23  C   UNL     1      -0.019   1.526   0.010  0.00  0.00    +0.041 C 
ATOM     24  C   UNL     1       0.002  -0.004   0.002  0.00  0.00    +0.064 C 
ATOM     25  C   UNL     1       0.742  -0.511   1.242  0.00  0.00    +0.041 C 
BRANCH  24  26
ATOM     26  O   UNL     1       0.671  -0.465  -1.174  0.00  0.00    -0.389 OA
ATOM     27  H   UNL     1       1.588  -0.167  -1.247  0.00  0.00    +0.210 HD
ENDBRANCH  24  26
ENDBRANCH  17  24
ENDBRANCH  15  20
ENDBRANCH  14  15
ENDBRANCH  13  14
ENDBRANCH   1  13
BRANCH   5  28
ATOM     28  O   UNL     1      -7.070  -5.879   3.780  0.00  0.00    -0.457 OA
BRANCH  28  29
ATOM     29  C   UNL     1      -5.896  -5.367   4.236  0.00  0.00    +0.170 A 
ATOM     30  C   UNL     1      -4.816  -5.248   3.382  0.00  0.00    +0.065 A 
ATOM     31  C   UNL     1      -3.609  -4.721   3.852  0.00  0.00    +0.070 A 
ATOM     32  C   UNL     1      -3.498  -4.315   5.186  0.00  0.00    +0.064 A 
ATOM     33  C   UNL     1      -4.581  -4.436   6.035  0.00  0.00    +0.163 A 
ATOM     34  C   UNL     1      -5.784  -4.956   5.562  0.00  0.00    +0.201 A 
BRANCH  31  35
ATOM     35  C   UNL     1      -2.456  -4.595   2.944  0.00  0.00    +0.387 C 
ATOM     36  O   UNL     1      -2.554  -4.951   1.778  0.00  0.00    -0.241 OA
ATOM     37  O   UNL     1      -1.401  -4.133   3.356  0.00  0.00    -0.241 OA
ENDBRANCH  31  35
BRANCH  34  38
ATOM     38  O   UNL     1      -6.849  -5.069   6.398  0.00  0.00    -0.501 OA
ATOM     39  H   UNL     1      -6.892  -5.912   6.869  0.00  0.00    +0.292 HD
ENDBRANCH  34  38
BRANCH  33  40
ATOM     40  O   UNL     1      -4.475  -4.041   7.332  0.00  0.00    -0.503 OA
ATOM     41  H   UNL     1      -4.711  -3.115   7.482  0.00  0.00    +0.292 HD
ENDBRANCH  33  40
ENDBRANCH  28  29
ENDBRANCH   5  28
TORSDOF 14
