REMARK  Name = ZINC16676617
REMARK  6 active torsions:
REMARK  status: ('A' for Active; 'I' for Inactive)
REMARK    1  A    between atoms: C_1  and  C_2
REMARK    2  A    between atoms: C_2  and  C_28
REMARK    3  A    between atoms: N_7  and  C_10
REMARK    4  A    between atoms: C_13  and  S_16
REMARK    5  A    between atoms: S_16  and  N_19
REMARK    6  A    between atoms: N_19  and  C_20
REMARK                            x       y       z     vdW  Elec       q    Type
REMARK                         _______ _______ _______ _____ _____    ______ ____
ROOT
ATOM      1  C   UNL     1       1.629   4.581   3.461  0.00  0.00    +0.059 A 
ATOM      2  C   UNL     1       2.156   3.299   3.542  0.00  0.00    +0.027 A 
ATOM      3  C   UNL     1       2.087   2.455   2.451  0.00  0.00    +0.030 A 
ATOM      4  C   UNL     1       1.495   2.887   1.278  0.00  0.00    +0.109 A 
ATOM      5  C   UNL     1       0.974   4.165   1.193  0.00  0.00    +0.030 A 
ATOM      6  C   UNL     1       1.035   5.011   2.282  0.00  0.00    +0.027 A 
ENDROOT
BRANCH   1  13
ATOM      7  C   UNL     1       2.839   5.767   7.980  0.00  0.00    +0.022 C 
ATOM      8  C   UNL     1       1.812   6.129   6.905  0.00  0.00    +0.064 C 
ATOM      9  C   UNL     1       2.202   7.476   6.242  0.00  0.00    +0.205 C 
ATOM     10  S   UNL     1       1.678   7.112   4.516  0.00  0.00    +0.053 S 
ATOM     11  O   UNL     1       2.690   7.481   3.590  0.00  0.00    -0.155 OA
ATOM     12  O   UNL     1       0.320   7.475   4.311  0.00  0.00    -0.155 OA
ATOM     13  N   UNL     1       1.697   5.438   4.566  0.00  0.00    -0.143 N 
ATOM     14  C   UNL     1       1.783   5.064   5.851  0.00  0.00    +0.246 C 
ATOM     15  O   UNL     1       1.840   3.891   6.153  0.00  0.00    -0.273 OA
ATOM     16  C   UNL     1       0.425   6.250   7.540  0.00  0.00    +0.022 C 
ENDBRANCH   1  13
BRANCH   4  17
ATOM     17  S   UNL     1       1.410   1.808  -0.112  0.00  0.00    +0.072 S 
ATOM     18  O   UNL     1       2.458   0.861   0.044  0.00  0.00    -0.150 OA
ATOM     19  O   UNL     1       1.296   2.635  -1.262  0.00  0.00    -0.150 OA
BRANCH  17  20
ATOM     20  N   UNL     1      -0.011   0.966   0.007  0.00  0.00    -0.215 N 
ATOM     21  H   UNL     1       0.003  -0.002   0.071  0.00  0.00    +0.174 HD
BRANCH  20  22
ATOM     22  C   UNL     1      -1.231   1.649   0.011  0.00  0.00    +0.066 A 
ATOM     23  C   UNL     1      -1.391   2.791  -0.763  0.00  0.00    +0.027 A 
ATOM     24  C   UNL     1      -2.597   3.464  -0.757  0.00  0.00    +0.022 A 
ATOM     25  C   UNL     1      -3.645   3.003   0.019  0.00  0.00    +0.042 A 
ATOM     26  C   UNL     1      -3.489   1.866   0.792  0.00  0.00    +0.042 A 
ATOM     27  C   UNL     1      -2.287   1.185   0.786  0.00  0.00    +0.065 A 
ATOM     28 CL   UNL     1      -2.094  -0.246   1.750  0.00  0.00    -0.082 Cl
ATOM     29 CL   UNL     1      -5.159   3.852   0.024  0.00  0.00    -0.083 Cl
ENDBRANCH  20  22
ENDBRANCH  17  20
ENDBRANCH   4  17
TORSDOF 4
