REMARK  Name = ZINC23967974
REMARK  7 active torsions:
REMARK  status: ('A' for Active; 'I' for Inactive)
REMARK    1  A    between atoms: C_1  and  O_2
REMARK    2  A    between atoms: O_2  and  C_3
REMARK    3  A    between atoms: C_9  and  O_34
REMARK    4  A    between atoms: C_10  and  C_13
REMARK    5  A    between atoms: C_13  and  N_14
REMARK    6  A    between atoms: N_17  and  S_20
REMARK    7  A    between atoms: S_20  and  C_23
REMARK                            x       y       z     vdW  Elec       q    Type
REMARK                         _______ _______ _______ _____ _____    ______ ____
ROOT
ATOM      1  N   UNL     1      -0.046   4.250   1.018  0.00  0.00    -0.295 NA
ATOM      2  C   UNL     1       1.179   3.448   1.142  0.00  0.00    +0.102 C 
ATOM      3  C   UNL     1       1.232   2.424   0.003  0.00  0.00    +0.125 C 
ATOM      4  N   UNL     1      -0.020   1.652   0.011  0.00  0.00    -0.174 NA
ATOM      5  C   UNL     1      -1.293   2.389   0.021  0.00  0.00    +0.125 C 
ATOM      6  C   UNL     1      -1.246   3.415   1.165  0.00  0.00    +0.102 C 
ENDROOT
BRANCH   4   7
ATOM      7  S   UNL     1       0.002  -0.004   0.002  0.00  0.00    +0.061 S 
ATOM      8  O   UNL     1      -1.243  -0.424  -0.539  0.00  0.00    -0.153 OA
ATOM      9  O   UNL     1       1.248  -0.390  -0.563  0.00  0.00    -0.153 OA
BRANCH   7  10
ATOM     10  C   UNL     1       0.025  -0.534   1.682  0.00  0.00    +0.109 A 
ATOM     11  C   UNL     1       1.233  -0.730   2.326  0.00  0.00    +0.032 A 
ATOM     12  C   UNL     1       1.259  -1.142   3.647  0.00  0.00    +0.051 A 
ATOM     13  C   UNL     1       0.069  -1.366   4.319  0.00  0.00    +0.162 A 
ATOM     14  C   UNL     1      -1.143  -1.174   3.671  0.00  0.00    +0.164 A 
ATOM     15  C   UNL     1      -1.165  -0.758   2.351  0.00  0.00    +0.078 A 
ATOM     16  O   UNL     1      -2.309  -1.397   4.343  0.00  0.00    -0.488 OA
ATOM     17  C   UNL     1      -2.585  -2.758   4.681  0.00  0.00    +0.232 C 
ATOM     18  C   UNL     1      -1.894  -3.143   5.979  0.00  0.00    +0.082 C 
ATOM     19  C   UNL     1      -0.378  -3.108   5.861  0.00  0.00    +0.232 C 
ATOM     20  O   UNL     1       0.081  -1.776   5.621  0.00  0.00    -0.488 OA
ENDBRANCH   7  10
ENDBRANCH   4   7
BRANCH   1  21
ATOM     21  C   UNL     1      -0.052   5.355   1.986  0.00  0.00    +0.124 C 
BRANCH  21  29
ATOM     22  C   UNL     1      -1.036   8.613  -0.572  0.00  0.00    +0.121 A 
ATOM     23  C   UNL     1      -2.306   9.199  -0.541  0.00  0.00    +0.046 A 
ATOM     24  C   UNL     1      -3.269   8.737   0.301  0.00  0.00    +0.012 A 
ATOM     25  C   UNL     1      -2.984   7.667   1.167  0.00  0.00    -0.017 A 
ATOM     26  C   UNL     1      -3.952   7.177   2.061  0.00  0.00    +0.012 A 
ATOM     27  C   UNL     1      -3.645   6.140   2.885  0.00  0.00    +0.046 A 
ATOM     28  C   UNL     1      -2.377   5.551   2.858  0.00  0.00    +0.122 A 
ATOM     29  C   UNL     1      -1.413   6.001   2.002  0.00  0.00    +0.016 A 
ATOM     30  C   UNL     1      -1.696   7.075   1.141  0.00  0.00    -0.007 A 
ATOM     31  C   UNL     1      -0.727   7.568   0.251  0.00  0.00    +0.054 A 
BRANCH  22  33
ATOM     32  C   UNL     1      -0.481  10.184  -2.268  0.00  0.00    +0.277 C 
ATOM     33  O   UNL     1      -0.099   9.089  -1.432  0.00  0.00    -0.495 OA
ENDBRANCH  22  33
BRANCH  28  34
ATOM     34  O   UNL     1      -2.101   4.516   3.695  0.00  0.00    -0.506 OA
ATOM     35  H   UNL     1      -1.106   4.047   3.679  0.00  0.00    +0.292 HD
ENDBRANCH  28  34
ENDBRANCH  21  29
ENDBRANCH   1  21
TORSDOF 6
