REMARK  Name = ZINC36050810
REMARK  9 active torsions:
REMARK  status: ('A' for Active; 'I' for Inactive)
REMARK    1  A    between atoms: C_1  and  C_2
REMARK    2  A    between atoms: C_3  and  C_29
REMARK    3  A    between atoms: C_4  and  C_22
REMARK    4  A    between atoms: C_7  and  C_12
REMARK    5  A    between atoms: C_13  and  N_15
REMARK    6  A    between atoms: N_15  and  C_16
REMARK    7  A    between atoms: C_16  and  C_17
REMARK    8  A    between atoms: C_29  and  O_31
REMARK    9  A    between atoms: O_31  and  C_32
REMARK                            x       y       z     vdW  Elec       q    Type
REMARK                         _______ _______ _______ _____ _____    ______ ____
ROOT
ATOM      1  C   UNL     1       0.327   1.164   0.895  0.00  0.00    +0.066 C 
ATOM      2  C   UNL     1       0.260  -0.292   0.512  0.00  0.00    +0.053 C 
ATOM      3  C   UNL     1      -0.965  -0.929   0.447  0.00  0.00    +0.082 C 
ATOM      4  C   UNL     1      -0.980  -2.390   0.057  0.00  0.00    +0.150 C 
ATOM      5  N   UNL     1       0.333  -3.028  -0.228  0.00  0.00    -0.267 N 
ATOM      6  C   UNL     1       0.556  -4.339  -0.599  0.00  0.00    +0.048 C 
ATOM      7  C   UNL     1       1.835  -4.721  -0.811  0.00  0.00    +0.072 C 
ATOM      8  S   UNL     1       2.729  -3.215  -0.485  0.00  0.00    -0.060 S 
ATOM      9  C   UNL     1       1.430  -2.222  -0.106  0.00  0.00    +0.166 C 
ATOM     10  N   UNL     1       1.373  -0.950   0.234  0.00  0.00    -0.230 NA
ENDROOT
BRANCH   4  11
ATOM     11  C   UNL     1      -1.638  -3.161   1.172  0.00  0.00    -0.019 A 
ATOM     12  C   UNL     1      -0.958  -3.382   2.355  0.00  0.00    +0.006 A 
ATOM     13  C   UNL     1      -1.560  -4.089   3.378  0.00  0.00    +0.003 A 
ATOM     14  C   UNL     1      -2.844  -4.576   3.220  0.00  0.00    +0.038 A 
ATOM     15  C   UNL     1      -3.526  -4.356   2.036  0.00  0.00    +0.124 A 
ATOM     16  C   UNL     1      -2.924  -3.642   1.013  0.00  0.00    +0.044 A 
ATOM     17  F   UNL     1      -4.781  -4.832   1.880  0.00  0.00    -0.205 F 
ENDBRANCH   4  11
BRANCH   6  18
ATOM     18  C   UNL     1      -0.557  -5.286  -0.756  0.00  0.00    +0.091 C 
ATOM     19  C   UNL     1      -0.305  -6.588  -0.991  0.00  0.00    +0.239 C 
ATOM     20  O   UNL     1       0.969  -7.048  -0.960  0.00  0.00    -0.271 OA
BRANCH  19  21
ATOM     21  N   UNL     1      -1.348  -7.457  -1.265  0.00  0.00    -0.305 N 
ATOM     22  H   UNL     1      -2.265  -7.144  -1.214  0.00  0.00    +0.149 HD
BRANCH  21  23
ATOM     23  C   UNL     1      -1.067  -8.847  -1.631  0.00  0.00    +0.179 C 
BRANCH  23  24
ATOM     24  C   UNL     1      -2.354  -9.541  -1.994  0.00  0.00    +0.122 A 
ATOM     25  C   UNL     1      -2.892  -9.607  -3.226  0.00  0.00    +0.046 A 
ATOM     26  C   UNL     1      -4.091 -10.347  -3.110  0.00  0.00    +0.041 A 
ATOM     27  C   UNL     1      -4.214 -10.689  -1.815  0.00  0.00    +0.195 A 
ATOM     28  O   UNL     1      -3.157 -10.203  -1.145  0.00  0.00    -0.466 OA
ENDBRANCH  23  24
ENDBRANCH  21  23
ENDBRANCH  19  21
ENDBRANCH   6  18
BRANCH   3  29
ATOM     29  C   UNL     1      -2.152  -0.244   0.733  0.00  0.00    +0.339 C 
ATOM     30  O   UNL     1      -2.117   0.933   1.046  0.00  0.00    -0.245 OA
BRANCH  29  31
ATOM     31  O   UNL     1      -3.338  -0.889   0.662  0.00  0.00    -0.465 OA
ATOM     32  C   UNL     1      -4.509  -0.129   0.967  0.00  0.00    +0.280 C 
ENDBRANCH  29  31
ENDBRANCH   3  29
TORSDOF 7
