REMARK  Name = ZINC48412322
REMARK  1 active torsions:
REMARK  status: ('A' for Active; 'I' for Inactive)
REMARK    1  A    between atoms: C_4  and  C_7
REMARK                            x       y       z     vdW  Elec       q    Type
REMARK                         _______ _______ _______ _____ _____    ______ ____
ROOT
ATOM      1  C   UNL     1       2.859  -0.454  -2.507  0.00  0.00    +0.114 A 
ATOM      2  N   UNL     1       3.440  -1.682  -2.507  0.00  0.00    -0.310 N 
ATOM      3  H   UNL     1       3.393  -2.230  -1.708  0.00  0.00    +0.170 HD
ATOM      4  C   UNL     1       4.080  -2.154  -3.593  0.00  0.00    +0.260 A 
ATOM      5  O   UNL     1       4.595  -3.259  -3.578  0.00  0.00    -0.267 OA
ATOM      6  C   UNL     1       4.144  -1.337  -4.769  0.00  0.00    +0.076 A 
ATOM      7  C   UNL     1       4.787  -1.647  -6.051  0.00  0.00    -0.012 A 
ATOM      8  C   UNL     1       4.692  -0.691  -7.010  0.00  0.00    +0.051 A 
ATOM      9  S   UNL     1       3.785   0.637  -6.273  0.00  0.00    -0.062 S 
ATOM     10  C   UNL     1       3.515  -0.086  -4.674  0.00  0.00    +0.117 A 
ATOM     11  N   UNL     1       2.897   0.311  -3.566  0.00  0.00    -0.226 NA
ATOM     12  S   UNL     1       5.338  -0.780  -8.642  0.00  0.00    -0.118 S 
ATOM     13  C   UNL     1       6.387  -2.269  -8.538  0.00  0.00    +0.075 C 
ATOM     14  C   UNL     1       5.595  -3.323  -7.752  0.00  0.00    +0.016 C 
ATOM     15  C   UNL     1       5.523  -2.958  -6.278  0.00  0.00    +0.038 C 
ENDROOT
BRANCH   1  19
ATOM     16  C   UNL     1      -0.019   1.526   0.010  0.00  0.00    +0.000 C 
ATOM     17  C   UNL     1       1.417   2.055  -0.000  0.00  0.00    +0.001 C 
ATOM     18  C   UNL     1       2.133   1.562  -1.259  0.00  0.00    +0.011 C 
ATOM     19  C   UNL     1       2.154   0.032  -1.268  0.00  0.00    +0.055 C 
ATOM     20  C   UNL     1       0.718  -0.497  -1.257  0.00  0.00    +0.011 C 
ATOM     21  C   UNL     1       0.002  -0.004   0.002  0.00  0.00    +0.001 C 
ENDBRANCH   1  19
TORSDOF 1
