REMARK  Name = ZINC19945194
REMARK  3 active torsions:
REMARK  status: ('A' for Active; 'I' for Inactive)
REMARK    1  A    between atoms: C_1  and  C_2
REMARK    2  A    between atoms: C_8  and  N_10
REMARK    3  A    between atoms: N_10  and  C_11
REMARK                            x       y       z     vdW  Elec       q    Type
REMARK                         _______ _______ _______ _____ _____    ______ ____
ROOT
ATOM      1  C   UNL     1       0.830  -0.422   3.637  0.00  0.00    +0.049 C 
ATOM      2  C   UNL     1       0.105  -0.012   4.899  0.00  0.00    -0.030 A 
ATOM      3  C   UNL     1      -1.117  -0.357   5.430  0.00  0.00    +0.019 A 
ATOM      4  C   UNL     1      -1.527   0.193   6.633  0.00  0.00    +0.018 A 
ATOM      5  C   UNL     1      -0.705   1.087   7.296  0.00  0.00    +0.017 A 
ATOM      6  C   UNL     1       0.520   1.434   6.765  0.00  0.00    +0.024 A 
ATOM      7  C   UNL     1       0.939   0.884   5.555  0.00  0.00    +0.035 A 
ATOM      8  N   UNL     1       2.113   1.074   4.825  0.00  0.00    -0.286 N 
ATOM      9  C   UNL     1       2.133   0.347   3.692  0.00  0.00    +0.208 C 
ATOM     10  O   UNL     1       3.024   0.314   2.869  0.00  0.00    -0.277 OA
ATOM     11 BR   UNL     1      -3.206  -0.276   7.367  0.00  0.00    -0.050 Br
ATOM     12  H   UNL     1       2.834   1.661   5.103  0.00  0.00    +0.155 HD
ENDROOT
BRANCH   1  13
ATOM     13  N   UNL     1       0.054  -0.037   2.450  0.00  0.00    +0.391 N 
ATOM     14  H   UNL     1      -0.032   0.968   2.416  0.00  0.00    -0.084 HD
ATOM     15  H   UNL     1      -0.864  -0.452   2.499  0.00  0.00    -0.084 HD
BRANCH  13  22
ATOM     16  C   UNL     1      -0.019   1.526   0.010  0.00  0.00    +0.006 C 
ATOM     17  C   UNL     1       0.002  -0.004   0.002  0.00  0.00    -0.028 C 
ATOM     18  C   UNL     1       0.718  -0.497  -1.257  0.00  0.00    +0.002 C 
ATOM     19  C   UNL     1       0.739  -2.027  -1.265  0.00  0.00    +0.000 C 
ATOM     20  C   UNL     1       1.479  -2.534  -0.026  0.00  0.00    -0.002 C 
ATOM     21  C   UNL     1       0.763  -2.041   1.233  0.00  0.00    -0.015 C 
ATOM     22  C   UNL     1       0.742  -0.511   1.242  0.00  0.00    -0.067 C 
ENDBRANCH  13  22
ENDBRANCH   1  13
TORSDOF 2
