REMARK  Name = ZINC38771580
REMARK  13 active torsions:
REMARK  status: ('A' for Active; 'I' for Inactive)
REMARK    1  A    between atoms: C_1  and  C_2
REMARK    2  A    between atoms: N_6  and  C_7
REMARK    3  A    between atoms: C_12  and  C_13
REMARK    4  A    between atoms: C_13  and  N_14
REMARK    5  A    between atoms: C_15  and  C_17
REMARK    6  A    between atoms: C_17  and  N_18
REMARK    7  A    between atoms: N_18  and  C_19
REMARK    8  A    between atoms: N_18  and  S_27
REMARK    9  A    between atoms: C_24  and  O_25
REMARK   10  A    between atoms: O_25  and  C_26
REMARK   11  A    between atoms: S_27  and  C_30
REMARK   12  A    between atoms: C_33  and  O_36
REMARK   13  A    between atoms: O_36  and  C_37
REMARK                            x       y       z     vdW  Elec       q    Type
REMARK                         _______ _______ _______ _____ _____    ______ ____
ROOT
ATOM      1  N   UNL     1      -6.247  -1.559   0.327  0.00  0.00    -0.191 N 
ENDROOT
BRANCH   1   2
ATOM      2  C   UNL     1      -6.147  -1.688  -1.063  0.00  0.00    +0.093 A 
ATOM      3  C   UNL     1      -6.335  -2.925  -1.662  0.00  0.00    +0.028 A 
ATOM      4  C   UNL     1      -6.236  -3.049  -3.035  0.00  0.00    +0.002 A 
ATOM      5  C   UNL     1      -5.951  -1.943  -3.814  0.00  0.00    +0.004 A 
ATOM      6  C   UNL     1      -5.762  -0.707  -3.224  0.00  0.00    +0.047 A 
ATOM      7  C   UNL     1      -5.865  -0.573  -1.849  0.00  0.00    +0.143 A 
BRANCH   7   8
ATOM      8  O   UNL     1      -5.685   0.644  -1.268  0.00  0.00    -0.493 OA
ATOM      9  C   UNL     1      -5.399   1.742  -2.136  0.00  0.00    +0.277 C 
ENDBRANCH   7   8
ENDBRANCH   1   2
BRANCH   1  10
ATOM     10  S   UNL     1      -7.681  -1.095   1.015  0.00  0.00    +0.075 S 
ATOM     11  O   UNL     1      -8.704  -1.439   0.092  0.00  0.00    -0.150 OA
ATOM     12  O   UNL     1      -7.665  -1.578   2.351  0.00  0.00    -0.150 OA
BRANCH  10  13
ATOM     13  C   UNL     1      -7.664   0.664   1.115  0.00  0.00    +0.109 A 
ATOM     14  C   UNL     1      -7.153   1.287   2.239  0.00  0.00    +0.032 A 
ATOM     15  C   UNL     1      -7.140   2.666   2.321  0.00  0.00    +0.047 A 
ATOM     16  C   UNL     1      -7.639   3.426   1.274  0.00  0.00    +0.120 A 
ATOM     17  C   UNL     1      -8.151   2.799   0.147  0.00  0.00    +0.047 A 
ATOM     18  C   UNL     1      -8.158   1.420   0.068  0.00  0.00    +0.032 A 
BRANCH  16  19
ATOM     19  O   UNL     1      -7.628   4.783   1.352  0.00  0.00    -0.495 OA
ATOM     20  C   UNL     1      -8.158   5.501   0.236  0.00  0.00    +0.277 C 
ENDBRANCH  16  19
ENDBRANCH  10  13
ENDBRANCH   1  10
BRANCH   1  21
ATOM     21  C   UNL     1      -5.084  -1.835   1.174  0.00  0.00    +0.227 C 
BRANCH  21  23
ATOM     22  N   UNL     1      -3.094  -0.619   1.998  0.00  0.00    -0.310 N 
ATOM     23  C   UNL     1      -4.226  -0.600   1.266  0.00  0.00    +0.232 C 
ATOM     24  O   UNL     1      -4.553   0.411   0.682  0.00  0.00    -0.274 OA
ATOM     25  H   UNL     1      -2.832  -1.428   2.465  0.00  0.00    +0.149 HD
BRANCH  22  26
ATOM     26  C   UNL     1      -2.259   0.581   2.088  0.00  0.00    +0.141 C 
BRANCH  26  32
ATOM     27  C   UNL     1       0.030  -0.381   2.438  0.00  0.00    +0.052 A 
ATOM     28  C   UNL     1       1.133  -0.636   3.242  0.00  0.00    +0.026 A 
ATOM     29  C   UNL     1       1.137  -0.220   4.559  0.00  0.00    +0.002 A 
ATOM     30  C   UNL     1       0.044   0.452   5.076  0.00  0.00    +0.000 A 
ATOM     31  C   UNL     1      -1.055   0.707   4.278  0.00  0.00    +0.007 A 
ATOM     32  C   UNL     1      -1.063   0.297   2.959  0.00  0.00    -0.006 A 
BRANCH  27  38
ATOM     33  C   UNL     1      -0.018   1.503   0.010  0.00  0.00    +0.084 C 
ATOM     34  C   UNL     1       0.002  -0.004   0.002  0.00  0.00    +0.088 A 
ATOM     35  N   UNL     1       0.008  -0.760  -1.062  0.00  0.00    -0.350 N 
ATOM     36  C   UNL     1       0.027  -2.049  -0.691  0.00  0.00    +0.102 A 
ATOM     37  C   UNL     1       0.033  -2.099   0.655  0.00  0.00    +0.110 A 
ATOM     38  N   UNL     1       0.023  -0.803   1.100  0.00  0.00    -0.305 N 
ATOM     39  H   UNL     1      -0.000  -0.440  -1.978  0.00  0.00    +0.166 HD
ENDBRANCH  27  38
ENDBRANCH  26  32
ENDBRANCH  22  26
ENDBRANCH  21  23
ENDBRANCH   1  21
TORSDOF 10
