REMARK  Name = ZINC19297726
REMARK  13 active torsions:
REMARK  status: ('A' for Active; 'I' for Inactive)
REMARK    1  A    between atoms: C_1  and  C_2
REMARK    2  A    between atoms: C_2  and  C_3
REMARK    3  A    between atoms: C_2  and  C_4
REMARK    4  A    between atoms: C_2  and  C_5
REMARK    5  A    between atoms: C_12  and  C_14
REMARK    6  A    between atoms: C_17  and  S_20
REMARK    7  A    between atoms: N_18  and  C_19
REMARK    8  A    between atoms: S_20  and  C_21
REMARK    9  A    between atoms: C_21  and  C_22
REMARK   10  A    between atoms: N_24  and  C_25
REMARK   11  A    between atoms: N_24  and  C_26
REMARK   12  A    between atoms: C_26  and  C_27
REMARK   13  A    between atoms: N_29  and  C_30
REMARK                            x       y       z     vdW  Elec       q    Type
REMARK                         _______ _______ _______ _____ _____    ______ ____
ROOT
ATOM      1  C   UNL     1       0.563   3.865   0.018  0.00  0.00    +0.171 A 
ATOM      2  N   UNL     1      -0.748   3.761   0.029  0.00  0.00    -0.128 NA
ATOM      3  N   UNL     1      -1.090   2.522   0.020  0.00  0.00    -0.122 NA
ATOM      4  C   UNL     1      -0.022   1.758   0.012  0.00  0.00    +0.192 A 
ATOM      5  N   UNL     1       1.068   2.583   0.006  0.00  0.00    -0.305 N 
ATOM      6  C   UNL     1       2.479   2.188  -0.009  0.00  0.00    +0.153 C 
ENDROOT
BRANCH   1  13
ATOM      7  C   UNL     1       2.726   9.680  -0.786  0.00  0.00    -0.001 C 
ATOM      8  C   UNL     1       3.756   9.480   0.329  0.00  0.00    +0.009 C 
ATOM      9  C   UNL     1       4.288   8.041   0.257  0.00  0.00    +0.043 C 
ATOM     10  C   UNL     1       3.123   7.115   0.129  0.00  0.00    -0.006 A 
ATOM     11  C   UNL     1       1.837   7.438  -0.193  0.00  0.00    -0.036 A 
ATOM     12  C   UNL     1       0.927   6.389  -0.254  0.00  0.00    +0.023 A 
ATOM     13  C   UNL     1       1.342   5.113   0.016  0.00  0.00    +0.057 A 
ATOM     14  S   UNL     1       3.079   5.358   0.358  0.00  0.00    -0.090 S 
ATOM     15  C   UNL     1       1.456   8.888  -0.474  0.00  0.00    +0.040 C 
BRANCH   7  17
ATOM     16  C   UNL     1       1.787  11.655   0.423  0.00  0.00    +0.011 C 
ATOM     17  C   UNL     1       2.382  11.167  -0.900  0.00  0.00    -0.035 C 
ATOM     18  C   UNL     1       3.652  11.961  -1.212  0.00  0.00    +0.011 C 
ATOM     19  C   UNL     1       1.364  11.371  -2.023  0.00  0.00    +0.011 C 
ENDBRANCH   7  17
ENDBRANCH   1  13
BRANCH   4  20
ATOM     20  S   UNL     1       0.002  -0.004   0.002  0.00  0.00    -0.077 S 
BRANCH  20  21
ATOM     21  C   UNL     1      -1.776  -0.343   0.017  0.00  0.00    +0.173 C 
BRANCH  21  22
ATOM     22  C   UNL     1      -2.004  -1.832   0.011  0.00  0.00    +0.226 C 
ATOM     23  O   UNL     1      -1.057  -2.590  -0.002  0.00  0.00    -0.275 OA
ATOM     24  N   UNL     1      -3.259  -2.322   0.021  0.00  0.00    -0.295 N 
ATOM     25  C   UNL     1      -4.403  -1.406   0.036  0.00  0.00    +0.132 C 
BRANCH  24  26
ATOM     26  C   UNL     1      -3.481  -3.770   0.015  0.00  0.00    +0.203 C 
BRANCH  26  27
ATOM     27  C   UNL     1      -3.543  -4.274   1.434  0.00  0.00    +0.231 C 
ATOM     28  O   UNL     1      -3.415  -3.500   2.359  0.00  0.00    -0.274 OA
ATOM     29  N   UNL     1      -3.741  -5.585   1.675  0.00  0.00    -0.311 N 
ATOM     30  H   UNL     1      -3.857  -6.288   0.836  0.00  0.00    +0.149 HD
BRANCH  29  31
ATOM     31  C   UNL     1      -3.802  -6.076   3.054  0.00  0.00    +0.073 C 
ATOM     32  C   UNL     1      -3.046  -7.366   3.379  0.00  0.00    +0.024 C 
ATOM     33  C   UNL     1      -4.575  -7.371   3.310  0.00  0.00    +0.024 C 
ENDBRANCH  29  31
ENDBRANCH  26  27
ENDBRANCH  24  26
ENDBRANCH  21  22
ENDBRANCH  20  21
ENDBRANCH   4  20
TORSDOF 8
