REMARK  Name = ZINC06686502
REMARK  9 active torsions:
REMARK  status: ('A' for Active; 'I' for Inactive)
REMARK    1  A    between atoms: C_1  and  C_2
REMARK    2  A    between atoms: C_2  and  C_3
REMARK    3  A    between atoms: C_3  and  C_4
REMARK    4  A    between atoms: C_4  and  N_5
REMARK    5  A    between atoms: C_14  and  C_16
REMARK    6  A    between atoms: N_18  and  N_19
REMARK    7  A    between atoms: C_20  and  C_21
REMARK    8  A    between atoms: C_24  and  C_27
REMARK    9  A    between atoms: C_27  and  C_28
REMARK                            x       y       z     vdW  Elec       q    Type
REMARK                         _______ _______ _______ _____ _____    ______ ____
ROOT
ATOM      1  N   UNL     1      -2.787  -2.571   0.015  0.00  0.00    -0.228 N 
ATOM      2  C   UNL     1      -3.395  -2.790  -1.169  0.00  0.00    +0.275 A 
ATOM      3  O   UNL     1      -2.816  -2.572  -2.217  0.00  0.00    -0.266 OA
ATOM      4  C   UNL     1      -4.774  -3.299  -1.164  0.00  0.00    +0.050 A 
ATOM      5  C   UNL     1      -5.488  -3.558  -2.330  0.00  0.00    +0.014 A 
ATOM      6  C   UNL     1      -6.779  -4.034  -2.239  0.00  0.00    +0.001 A 
ATOM      7  C   UNL     1      -7.368  -4.257  -1.002  0.00  0.00    +0.001 A 
ATOM      8  C   UNL     1      -6.677  -4.007   0.165  0.00  0.00    +0.011 A 
ATOM      9  C   UNL     1      -5.374  -3.526   0.096  0.00  0.00    +0.020 A 
ATOM     10  C   UNL     1      -4.568  -3.234   1.293  0.00  0.00    +0.155 A 
ATOM     11  N   UNL     1      -3.344  -2.786   1.146  0.00  0.00    -0.163 NA
ENDROOT
BRANCH  10  12
ATOM     12  C   UNL     1      -5.129  -3.446   2.641  0.00  0.00    +0.284 C 
ATOM     13  O   UNL     1      -6.263  -3.865   2.768  0.00  0.00    -0.267 OA
ATOM     14  N   UNL     1      -4.384  -3.175   3.731  0.00  0.00    -0.202 N 
ATOM     15  H   UNL     1      -3.479  -2.841   3.629  0.00  0.00    +0.178 HD
BRANCH  14  16
ATOM     16  N   UNL     1      -4.917  -3.377   5.011  0.00  0.00    -0.187 NA
ATOM     17  C   UNL     1      -4.199  -3.116   6.061  0.00  0.00    +0.138 C 
BRANCH  17  18
ATOM     18  C   UNL     1      -4.760  -3.328   7.408  0.00  0.00    -0.005 A 
ATOM     19  C   UNL     1      -6.060  -3.815   7.559  0.00  0.00    +0.010 A 
ATOM     20  C   UNL     1      -6.578  -4.011   8.822  0.00  0.00    +0.004 A 
ATOM     21  C   UNL     1      -5.812  -3.727   9.939  0.00  0.00    -0.048 A 
ATOM     22  C   UNL     1      -4.523  -3.244   9.797  0.00  0.00    +0.004 A 
ATOM     23  C   UNL     1      -3.990  -3.049   8.540  0.00  0.00    +0.010 A 
BRANCH  21  24
ATOM     24  C   UNL     1      -6.385  -3.943  11.316  0.00  0.00    +0.032 C 
ATOM     25  C   UNL     1      -6.074  -5.367  11.780  0.00  0.00    +0.009 C 
ENDBRANCH  21  24
ENDBRANCH  17  18
ENDBRANCH  14  16
ENDBRANCH  10  12
BRANCH   1  26
ATOM     26  C   UNL     1      -1.413  -2.063   0.004  0.00  0.00    +0.147 C 
BRANCH  26  27
ATOM     27  C   UNL     1      -1.433  -0.534   0.013  0.00  0.00    +0.023 C 
BRANCH  27  29
ATOM     28  C   UNL     1      -0.019   1.526   0.010  0.00  0.00    +0.004 C 
ATOM     29  C   UNL     1       0.002  -0.004   0.002  0.00  0.00    -0.002 C 
ENDBRANCH  27  29
ENDBRANCH  26  27
ENDBRANCH   1  26
TORSDOF 7
