REMARK  Name = ZINC02900414
REMARK  16 active torsions:
REMARK  status: ('A' for Active; 'I' for Inactive)
REMARK    1  A    between atoms: C_1  and  C_2
REMARK    2  A    between atoms: C_2  and  C_3
REMARK    3  A    between atoms: C_2  and  C_4
REMARK    4  A    between atoms: C_2  and  C_5
REMARK    5  A    between atoms: C_7  and  C_16
REMARK    6  A    between atoms: C_9  and  C_12
REMARK    7  A    between atoms: C_10  and  O_11
REMARK    8  A    between atoms: C_12  and  C_13
REMARK    9  A    between atoms: C_12  and  C_14
REMARK   10  A    between atoms: C_12  and  C_15
REMARK   11  A    between atoms: C_16  and  C_18
REMARK   12  A    between atoms: C_18  and  N_19
REMARK   13  A    between atoms: N_28  and  C_29
REMARK   14  A    between atoms: C_29  and  C_30
REMARK   15  A    between atoms: C_30  and  C_31
REMARK   16  A    between atoms: C_31  and  O_32
REMARK                            x       y       z     vdW  Elec       q    Type
REMARK                         _______ _______ _______ _____ _____    ______ ____
ROOT
ATOM      1  C   UNL     1       3.005  -0.983   3.335  0.00  0.00    +0.183 C 
ATOM      2  O   UNL     1       3.415  -1.267   2.229  0.00  0.00    -0.290 OA
ENDROOT
BRANCH   1   5
ATOM      3  C   UNL     1       0.000   1.080   2.488  0.00  0.00    +0.000 A 
ATOM      4  C   UNL     1       1.124   0.308   2.346  0.00  0.00    +0.019 A 
ATOM      5  C   UNL     1       1.801  -0.155   3.481  0.00  0.00    +0.020 A 
ATOM      6  C   UNL     1       1.325   0.174   4.756  0.00  0.00    +0.019 A 
ATOM      7  C   UNL     1       0.200   0.947   4.887  0.00  0.00    +0.000 A 
ATOM      8  C   UNL     1      -0.465   1.408   3.757  0.00  0.00    +0.124 A 
BRANCH   3  10
ATOM      9  C   UNL     1      -0.013   1.086   0.008  0.00  0.00    +0.015 C 
ATOM     10  C   UNL     1      -0.729   1.579   1.267  0.00  0.00    -0.009 C 
ATOM     11  C   UNL     1      -0.750   3.109   1.275  0.00  0.00    +0.015 C 
ATOM     12  C   UNL     1      -2.164   1.050   1.278  0.00  0.00    +0.015 C 
ENDBRANCH   3  10
BRANCH   7  13
ATOM     13  C   UNL     1      -0.313   1.302   6.259  0.00  0.00    -0.009 C 
ATOM     14  C   UNL     1       0.596   0.680   7.321  0.00  0.00    +0.015 C 
ATOM     15  C   UNL     1      -0.321   2.823   6.423  0.00  0.00    +0.015 C 
ATOM     16  C   UNL     1      -1.735   0.764   6.427  0.00  0.00    +0.015 C 
ENDBRANCH   7  13
BRANCH   8  17
ATOM     17  O   UNL     1      -1.575   2.177   3.892  0.00  0.00    -0.506 OA
ATOM     18  H   UNL     1      -2.399   1.673   3.934  0.00  0.00    +0.292 HD
ENDBRANCH   8  17
ENDBRANCH   1   5
BRANCH   1  19
ATOM     19  C   UNL     1       3.731  -1.480   4.558  0.00  0.00    +0.204 C 
BRANCH  19  20
ATOM     20  N   UNL     1       4.890  -2.277   4.148  0.00  0.00    -0.304 N 
ATOM     21  C   UNL     1       6.171  -1.805   3.917  0.00  0.00    +0.070 A 
ATOM     22  C   UNL     1       6.760  -0.551   3.980  0.00  0.00    +0.028 A 
ATOM     23  C   UNL     1       8.099  -0.406   3.682  0.00  0.00    +0.002 A 
ATOM     24  C   UNL     1       8.861  -1.506   3.317  0.00  0.00    +0.002 A 
ATOM     25  C   UNL     1       8.293  -2.758   3.249  0.00  0.00    +0.030 A 
ATOM     26  C   UNL     1       6.939  -2.922   3.549  0.00  0.00    +0.091 A 
ATOM     27  N   UNL     1       6.112  -4.000   3.572  0.00  0.00    -0.214 NA
ATOM     28  C   UNL     1       4.909  -3.625   3.929  0.00  0.00    +0.197 A 
ATOM     29  N   UNL     1       3.823  -4.464   4.061  0.00  0.00    -0.315 N 
ATOM     30  H   UNL     1       2.962  -4.106   4.328  0.00  0.00    +0.149 HD
BRANCH  29  31
ATOM     31  C   UNL     1       3.969  -5.898   3.797  0.00  0.00    +0.106 C 
BRANCH  31  32
ATOM     32  C   UNL     1       2.625  -6.596   4.014  0.00  0.00    +0.046 C 
BRANCH  32  33
ATOM     33  C   UNL     1       2.778  -8.093   3.739  0.00  0.00    +0.157 C 
BRANCH  33  34
ATOM     34  O   UNL     1       1.523  -8.745   3.942  0.00  0.00    -0.395 OA
ATOM     35  H   UNL     1       1.545  -9.699   3.785  0.00  0.00    +0.209 HD
ENDBRANCH  33  34
ENDBRANCH  32  33
ENDBRANCH  31  32
ENDBRANCH  29  31
ENDBRANCH  19  20
ENDBRANCH   1  19
TORSDOF 10
