REMARK  Name = ZINC63069340
REMARK  10 active torsions:
REMARK  status: ('A' for Active; 'I' for Inactive)
REMARK    1  A    between atoms: C_1  and  C_2
REMARK    2  A    between atoms: C_2  and  C_3
REMARK    3  A    between atoms: C_2  and  C_4
REMARK    4  A    between atoms: C_4  and  C_6
REMARK    5  A    between atoms: C_4  and  N_28
REMARK    6  A    between atoms: N_8  and  C_9
REMARK    7  A    between atoms: C_9  and  C_10
REMARK    8  A    between atoms: C_10  and  C_12
REMARK    9  A    between atoms: C_10  and  C_19
REMARK   10  A    between atoms: C_29  and  C_31
REMARK                            x       y       z     vdW  Elec       q    Type
REMARK                         _______ _______ _______ _____ _____    ______ ____
ROOT
ATOM      1  C   UNL     1      -0.722  -3.981   1.493  0.00  0.00    +0.116 C 
ENDROOT
BRANCH   1   4
ATOM      2  C   UNL     1      -1.242  -2.056   0.094  0.00  0.00    +0.234 C 
ATOM      3  O   UNL     1      -1.649  -2.818  -0.757  0.00  0.00    -0.274 OA
ATOM      4  N   UNL     1      -0.709  -2.540   1.233  0.00  0.00    -0.313 N 
ATOM      5  H   UNL     1      -0.317  -1.933   1.881  0.00  0.00    +0.149 HD
BRANCH   2   6
ATOM      6  C   UNL     1      -1.331  -0.567  -0.123  0.00  0.00    +0.161 C 
BRANCH   6   7
ATOM      7  N   UNL     1      -2.352  -0.282  -1.135  0.00  0.00    -0.301 N 
ATOM      8  C   UNL     1      -2.970   0.916  -1.150  0.00  0.00    +0.255 C 
ATOM      9  O   UNL     1      -2.681   1.758  -0.326  0.00  0.00    -0.272 OA
ATOM     10  H   UNL     1      -2.583  -0.955  -1.794  0.00  0.00    +0.150 HD
BRANCH   8  11
ATOM     11  C   UNL     1      -4.020   1.210  -2.190  0.00  0.00    +0.261 C 
ATOM     12  C   UNL     1      -3.390   1.303  -3.602  0.00  0.00    +0.084 C 
ATOM     13  C   UNL     1      -4.189   2.438  -4.220  0.00  0.00    +0.015 C 
ATOM     14  C   UNL     1      -4.810   3.060  -3.241  0.00  0.00    +0.184 C 
ATOM     15  O   UNL     1      -4.558   2.535  -2.019  0.00  0.00    -0.487 OA
ENDBRANCH   8  11
ENDBRANCH   6   7
BRANCH   6  17
ATOM     16  C   UNL     1       0.336  -0.618  -1.983  0.00  0.00    +0.009 C 
ATOM     17  C   UNL     1       0.022  -0.039  -0.602  0.00  0.00    +0.012 C 
ATOM     18  C   UNL     1      -0.027   1.488  -0.688  0.00  0.00    +0.009 C 
ENDBRANCH   6  17
ENDBRANCH   2   6
ENDBRANCH   1   4
BRANCH   1  19
ATOM     19  C   UNL     1      -0.060  -4.262   2.844  0.00  0.00    +0.066 C 
BRANCH  19  20
ATOM     20  C   UNL     1       0.037  -5.750   3.056  0.00  0.00    -0.033 C 
ATOM     21  C   UNL     1       1.166  -6.473   3.243  0.00  0.00    -0.000 A 
ATOM     22  C   UNL     1       2.585  -6.103   3.302  0.00  0.00    +0.010 A 
ATOM     23  C   UNL     1       3.507  -7.071   3.506  0.00  0.00    +0.001 A 
ATOM     24  C   UNL     1       3.143  -8.415   3.662  0.00  0.00    +0.002 A 
ATOM     25  C   UNL     1       1.859  -8.832   3.621  0.00  0.00    +0.026 A 
ATOM     26  C   UNL     1       0.807  -7.899   3.412  0.00  0.00    +0.043 A 
ATOM     27  N   UNL     1      -0.493  -8.053   3.332  0.00  0.00    -0.380 N 
ATOM     28  C   UNL     1      -1.106  -6.738   3.110  0.00  0.00    +0.145 C 
ATOM     29  H   UNL     1      -0.969  -8.894   3.411  0.00  0.00    +0.160 HD
ENDBRANCH  19  20
BRANCH  19  30
ATOM     30  C   UNL     1      -0.888  -3.651   3.945  0.00  0.00    -0.020 A 
ATOM     31  C   UNL     1      -2.198  -4.053   4.130  0.00  0.00    +0.006 A 
ATOM     32  C   UNL     1      -2.958  -3.493   5.140  0.00  0.00    +0.000 A 
ATOM     33  C   UNL     1      -2.408  -2.530   5.966  0.00  0.00    +0.001 A 
ATOM     34  C   UNL     1      -1.099  -2.127   5.782  0.00  0.00    +0.020 A 
ATOM     35  C   UNL     1      -0.337  -2.691   4.775  0.00  0.00    +0.045 A 
ATOM     36 CL   UNL     1       1.310  -2.190   4.548  0.00  0.00    -0.083 Cl
ENDBRANCH  19  30
ENDBRANCH   1  19
TORSDOF 8
