REMARK  Name = ZINC59513261
REMARK  8 active torsions:
REMARK  status: ('A' for Active; 'I' for Inactive)
REMARK    1  A    between atoms: C_1  and  C_2
REMARK    2  A    between atoms: C_2  and  C_3
REMARK    3  A    between atoms: C_3  and  C_5
REMARK    4  A    between atoms: C_3  and  S_14
REMARK    5  A    between atoms: C_10  and  C_13
REMARK    6  A    between atoms: S_14  and  C_15
REMARK    7  A    between atoms: C_17  and  N_28
REMARK    8  A    between atoms: N_21  and  C_22
REMARK                            x       y       z     vdW  Elec       q    Type
REMARK                         _______ _______ _______ _____ _____    ______ ____
ROOT
ATOM      1  C   UNL     1      -2.650   1.509   1.647  0.00  0.00    +0.179 A 
ATOM      2  N   UNL     1      -2.267   2.216   0.604  0.00  0.00    -0.208 NA
ATOM      3  C   UNL     1      -2.435   3.543   0.567  0.00  0.00    +0.124 A 
ATOM      4  C   UNL     1      -3.023   4.193   1.643  0.00  0.00    +0.114 A 
ATOM      5  C   UNL     1      -3.427   3.437   2.747  0.00  0.00    +0.261 A 
ATOM      6  O   UNL     1      -3.948   3.975   3.712  0.00  0.00    -0.267 OA
ATOM      7  N   UNL     1      -3.237   2.101   2.727  0.00  0.00    -0.256 N 
ENDROOT
BRANCH   7   8
ATOM      8  C   UNL     1      -3.638   1.321   3.820  0.00  0.00    +0.052 A 
ATOM      9  C   UNL     1      -2.686   0.719   4.632  0.00  0.00    +0.026 A 
ATOM     10  C   UNL     1      -3.085  -0.049   5.708  0.00  0.00    +0.002 A 
ATOM     11  C   UNL     1      -4.431  -0.219   5.978  0.00  0.00    +0.000 A 
ATOM     12  C   UNL     1      -5.381   0.380   5.171  0.00  0.00    +0.002 A 
ATOM     13  C   UNL     1      -4.989   1.153   4.096  0.00  0.00    +0.026 A 
ENDBRANCH   7   8
BRANCH   3  14
ATOM     14  N   UNL     1      -2.025   4.263  -0.537  0.00  0.00    -0.343 N 
ATOM     15  H   UNL     1      -1.614   3.807  -1.288  0.00  0.00    +0.144 HD
ATOM     16  H   UNL     1      -2.148   5.225  -0.562  0.00  0.00    +0.144 HD
ENDBRANCH   3  14
BRANCH   1  17
ATOM     17  S   UNL     1      -2.405  -0.236   1.645  0.00  0.00    -0.074 S 
BRANCH  17  18
ATOM     18  C   UNL     1      -1.772  -0.588  -0.018  0.00  0.00    +0.140 C 
BRANCH  18  19
ATOM     19  C   UNL     1      -2.859  -0.340  -1.032  0.00  0.00    +0.232 C 
ATOM     20  O   UNL     1      -4.020  -0.321  -0.684  0.00  0.00    -0.274 OA
ATOM     21  N   UNL     1      -2.540  -0.139  -2.326  0.00  0.00    -0.267 N 
ATOM     22  C   UNL     1      -3.546   0.091  -3.265  0.00  0.00    +0.168 A 
ATOM     23  C   UNL     1      -4.933   0.145  -3.001  0.00  0.00    +0.091 A 
ATOM     24  C   UNL     1      -5.569   0.386  -4.162  0.00  0.00    +0.136 A 
ATOM     25  O   UNL     1      -4.647   0.483  -5.132  0.00  0.00    -0.358 OA
ATOM     26  N   UNL     1      -3.372   0.299  -4.545  0.00  0.00    -0.063 NA
ATOM     27  C   UNL     1      -7.059   0.522  -4.340  0.00  0.00    +0.089 C 
ATOM     28  H   UNL     1      -1.611  -0.154  -2.605  0.00  0.00    +0.156 HD
ENDBRANCH  18  19
BRANCH  18  30
ATOM     29  C   UNL     1      -0.137  -2.270   0.841  0.00  0.00    +0.005 C 
ATOM     30  C   UNL     1      -1.327  -2.050  -0.095  0.00  0.00    +0.020 C 
ENDBRANCH  18  30
ENDBRANCH  17  18
ENDBRANCH   1  17
TORSDOF 6
