REMARK  Name = ZINC09252974
REMARK  7 active torsions:
REMARK  status: ('A' for Active; 'I' for Inactive)
REMARK    1  A    between atoms: N_9  and  S_10
REMARK    2  A    between atoms: S_10  and  C_13
REMARK    3  A    between atoms: C_17  and  C_19
REMARK    4  A    between atoms: N_21  and  C_22
REMARK    5  A    between atoms: C_22  and  C_23
REMARK    6  A    between atoms: C_23  and  C_25
REMARK    7  A    between atoms: C_23  and  N_61
REMARK                            x       y       z     vdW  Elec       q    Type
REMARK                         _______ _______ _______ _____ _____    ______ ____
ROOT
ATOM      1  C   UNL     1       3.787   9.873  -2.977  0.00  0.00    +0.109 A 
ATOM      2  C   UNL     1       4.258  10.297  -1.748  0.00  0.00    +0.029 A 
ATOM      3  C   UNL     1       4.291   9.424  -0.674  0.00  0.00    +0.003 A 
ATOM      4  C   UNL     1       3.854   8.124  -0.825  0.00  0.00    +0.013 A 
ATOM      5  C   UNL     1       3.377   7.691  -2.062  0.00  0.00    +0.039 A 
ATOM      6  C   UNL     1       3.351   8.575  -3.142  0.00  0.00    +0.041 A 
ENDROOT
BRANCH   5   7
ATOM      7  C   UNL     1       2.907   6.299  -2.231  0.00  0.00    +0.244 C 
ATOM      8  O   UNL     1       2.492   5.924  -3.310  0.00  0.00    -0.270 OA
ATOM      9  N   UNL     1       2.939   5.446  -1.188  0.00  0.00    -0.313 N 
ATOM     10  H   UNL     1       3.270   5.745  -0.326  0.00  0.00    +0.149 HD
BRANCH   9  11
ATOM     11  C   UNL     1       2.473   4.067  -1.354  0.00  0.00    +0.094 C 
BRANCH  11  12
ATOM     12  C   UNL     1       2.486   3.357   0.001  0.00  0.00    -0.013 C 
BRANCH  12  18
ATOM     13  C   UNL     1       4.848   2.906  -0.286  0.00  0.00    -0.049 C 
ATOM     14  C   UNL     1       6.227   3.099   0.350  0.00  0.00    +0.141 C 
ATOM     15  O   UNL     1       6.238   2.494   1.646  0.00  0.00    -0.383 OA
ATOM     16  C   UNL     1       5.251   3.022   2.536  0.00  0.00    +0.141 C 
ATOM     17  C   UNL     1       3.862   2.827   1.922  0.00  0.00    -0.049 C 
ATOM     18  N   UNL     1       3.828   3.498   0.605  0.00  0.00    +0.389 N 
ATOM     19  H   UNL     1       4.034   4.495   0.732  0.00  0.00    -0.081 HD
ENDBRANCH  12  18
BRANCH  12  20
ATOM     20  C   UNL     1       1.469   3.996   0.912  0.00  0.00    -0.022 A 
ATOM     21  C   UNL     1       0.217   3.578   1.220  0.00  0.00    +0.009 A 
ATOM     22  C   UNL     1      -0.547   4.333   2.090  0.00  0.00    +0.008 A 
ATOM     23  C   UNL     1      -0.022   5.469   2.609  0.00  0.00    +0.045 A 
ATOM     24  S   UNL     1       1.601   5.500   1.865  0.00  0.00    -0.103 S 
ENDBRANCH  12  20
ENDBRANCH  11  12
ENDBRANCH   9  11
ENDBRANCH   5   7
BRANCH   1  25
ATOM     25  S   UNL     1       3.749  10.993  -4.338  0.00  0.00    +0.075 S 
ATOM     26  O   UNL     1       2.756  10.510  -5.233  0.00  0.00    -0.150 OA
ATOM     27  O   UNL     1       3.705  12.301  -3.785  0.00  0.00    -0.150 OA
BRANCH  25  36
ATOM     28  C   UNL     1       8.782  12.914  -4.593  0.00  0.00    +0.000 A 
ATOM     29  C   UNL     1       7.730  13.260  -3.766  0.00  0.00    +0.002 A 
ATOM     30  C   UNL     1       6.514  12.622  -3.885  0.00  0.00    +0.025 A 
ATOM     31  C   UNL     1       6.335  11.620  -4.841  0.00  0.00    +0.054 A 
ATOM     32  C   UNL     1       7.398  11.278  -5.663  0.00  0.00    -0.023 A 
ATOM     33  C   UNL     1       8.616  11.918  -5.537  0.00  0.00    +0.005 A 
ATOM     34  C   UNL     1       6.945  10.183  -6.604  0.00  0.00    +0.058 C 
ATOM     35  C   UNL     1       5.479   9.926  -6.219  0.00  0.00    +0.136 C 
ATOM     36  N   UNL     1       5.200  10.858  -5.123  0.00  0.00    -0.202 N 
ENDBRANCH  25  36
ENDBRANCH   1  25
TORSDOF 7
