REMARK  Name = ZINC67263283
REMARK  6 active torsions:
REMARK  status: ('A' for Active; 'I' for Inactive)
REMARK    1  A    between atoms: C_3  and  N_12
REMARK    2  A    between atoms: C_6  and  C_7
REMARK    3  A    between atoms: C_7  and  N_8
REMARK    4  A    between atoms: C_13  and  C_15
REMARK    5  A    between atoms: C_15  and  S_16
REMARK    6  A    between atoms: S_16  and  C_17
REMARK                            x       y       z     vdW  Elec       q    Type
REMARK                         _______ _______ _______ _____ _____    ______ ____
ROOT
ATOM      1  N   UNL     1       3.584   2.123  -0.021  0.00  0.00    -0.285 N 
ATOM      2  C   UNL     1       4.758   1.467   0.066  0.00  0.00    +0.227 C 
ATOM      3  O   UNL     1       4.777   0.255   0.060  0.00  0.00    -0.275 OA
ATOM      4  H   UNL     1       3.573   3.091  -0.093  0.00  0.00    +0.155 HD
ENDROOT
BRANCH   1   7
ATOM      5  C   UNL     1       1.084  -0.460   0.750  0.00  0.00    +0.007 A 
ATOM      6  C   UNL     1       2.273   0.242   0.738  0.00  0.00    +0.023 A 
ATOM      7  C   UNL     1       2.381   1.409  -0.007  0.00  0.00    +0.033 A 
ATOM      8  C   UNL     1       1.292   1.866  -0.738  0.00  0.00    +0.023 A 
ATOM      9  C   UNL     1       0.105   1.159  -0.722  0.00  0.00    +0.007 A 
ATOM     10  C   UNL     1       0.001  -0.002   0.021  0.00  0.00    -0.030 A 
BRANCH  10  11
ATOM     11  C   UNL     1      -1.295  -0.771   0.036  0.00  0.00    +0.141 C 
BRANCH  11  12
ATOM     12  N   UNL     1      -2.138  -0.285   1.131  0.00  0.00    -0.295 N 
ATOM     13  C   UNL     1      -3.353  -0.830   1.339  0.00  0.00    +0.297 C 
ATOM     14  O   UNL     1      -3.749  -1.725   0.618  0.00  0.00    -0.253 OA
ATOM     15  N   UNL     1      -4.129  -0.383   2.347  0.00  0.00    -0.313 N 
ATOM     16  H   UNL     1      -1.822   0.429   1.707  0.00  0.00    +0.151 HD
ATOM     17  H   UNL     1      -3.812   0.331   2.922  0.00  0.00    +0.146 HD
ATOM     18  H   UNL     1      -5.003  -0.775   2.496  0.00  0.00    +0.146 HD
ENDBRANCH  11  12
ENDBRANCH  10  11
ENDBRANCH   1   7
BRANCH   2  19
ATOM     19  C   UNL     1       6.047   2.241   0.171  0.00  0.00    +0.170 C 
BRANCH  19  20
ATOM     20  S   UNL     1       7.440   1.083   0.272  0.00  0.00    -0.116 S 
BRANCH  20  21
ATOM     21  C   UNL     1       8.855   2.127   0.388  0.00  0.00    +0.012 A 
ATOM     22  C   UNL     1       8.701   3.508   0.391  0.00  0.00    +0.018 A 
ATOM     23  C   UNL     1       9.810   4.326   0.481  0.00  0.00    +0.050 A 
ATOM     24  C   UNL     1      11.079   3.773   0.569  0.00  0.00    +0.162 A 
ATOM     25  C   UNL     1      11.236   2.393   0.570  0.00  0.00    +0.163 A 
ATOM     26  C   UNL     1      10.123   1.571   0.483  0.00  0.00    +0.064 A 
ATOM     27  O   UNL     1      12.473   1.832   0.664  0.00  0.00    -0.485 OA
ATOM     28  C   UNL     1      13.589   2.683   0.379  0.00  0.00    +0.270 C 
ATOM     29  C   UNL     1      13.382   4.011   1.118  0.00  0.00    +0.270 C 
ATOM     30  O   UNL     1      12.161   4.597   0.653  0.00  0.00    -0.485 OA
ENDBRANCH  20  21
ENDBRANCH  19  20
ENDBRANCH   2  19
TORSDOF 6
