REMARK  Name = ZINC66244831
REMARK  5 active torsions:
REMARK  status: ('A' for Active; 'I' for Inactive)
REMARK    1  A    between atoms: C_4  and  N_7
REMARK    2  A    between atoms: N_10  and  C_11
REMARK    3  A    between atoms: C_11  and  C_12
REMARK    4  A    between atoms: C_15  and  N_18
REMARK    5  A    between atoms: C_21  and  C_23
REMARK                            x       y       z     vdW  Elec       q    Type
REMARK                         _______ _______ _______ _____ _____    ______ ____
ROOT
ATOM      1  C   UNL     1       4.855  -4.155  -0.290  0.00  0.00    +0.151 C 
ENDROOT
BRANCH   1   5
ATOM      2  N   UNL     1       3.621  -0.651  -0.034  0.00  0.00    -0.328 N 
ATOM      3  C   UNL     1       3.638  -2.022  -0.149  0.00  0.00    +0.173 C 
ATOM      4  N   UNL     1       2.518  -2.683  -0.239  0.00  0.00    -0.371 N 
ATOM      5  N   UNL     1       4.837  -2.696  -0.168  0.00  0.00    -0.353 N 
ATOM      6  H   UNL     1       2.783  -0.168  -0.111  0.00  0.00    +0.169 HD
ATOM      7  H   UNL     1       2.526  -3.653  -0.244  0.00  0.00    +0.159 HD
ATOM      8  H   UNL     1       5.670  -2.204  -0.101  0.00  0.00    +0.163 HD
ATOM      9  H   UNL     1       1.677  -2.204  -0.301  0.00  0.00    +0.159 HD
BRANCH   2  13
ATOM     10  C   UNL     1       7.167   1.428   0.642  0.00  0.00    +0.000 A 
ATOM     11  C   UNL     1       6.228   1.933  -0.239  0.00  0.00    +0.002 A 
ATOM     12  C   UNL     1       5.052   1.247  -0.465  0.00  0.00    +0.026 A 
ATOM     13  C   UNL     1       4.812   0.047   0.193  0.00  0.00    +0.042 A 
ATOM     14  C   UNL     1       5.757  -0.458   1.076  0.00  0.00    +0.026 A 
ATOM     15  C   UNL     1       6.931   0.234   1.298  0.00  0.00    +0.002 A 
ENDBRANCH   2  13
ENDBRANCH   1   5
BRANCH   1  16
ATOM     16  C   UNL     1       6.281  -4.642  -0.287  0.00  0.00    -0.028 A 
ATOM     17  C   UNL     1       6.973  -4.759  -1.479  0.00  0.00    +0.007 A 
ATOM     18  C   UNL     1       8.280  -5.205  -1.479  0.00  0.00    +0.028 A 
ATOM     19  C   UNL     1       8.900  -5.536  -0.281  0.00  0.00    +0.065 A 
ATOM     20  C   UNL     1       8.203  -5.417   0.913  0.00  0.00    +0.028 A 
ATOM     21  C   UNL     1       6.897  -4.965   0.908  0.00  0.00    +0.007 A 
BRANCH  19  22
ATOM     22  N   UNL     1      10.226  -5.989  -0.278  0.00  0.00    -0.239 N 
ATOM     23  C   UNL     1      10.942  -6.348   0.811  0.00  0.00    +0.115 A 
ATOM     24  C   UNL     1      12.172  -6.725   0.390  0.00  0.00    +0.054 A 
ATOM     25  C   UNL     1      12.210  -6.592  -1.002  0.00  0.00    +0.166 A 
ATOM     26  N   UNL     1      11.043  -6.157  -1.404  0.00  0.00    -0.162 NA
BRANCH  25  27
ATOM     27  C   UNL     1      13.389  -6.903  -1.887  0.00  0.00    +0.436 C 
ATOM     28  F   UNL     1      13.330  -8.241  -2.291  0.00  0.00    -0.164 F 
ATOM     29  F   UNL     1      13.358  -6.074  -3.014  0.00  0.00    -0.164 F 
ATOM     30  F   UNL     1      14.575  -6.682  -1.179  0.00  0.00    -0.164 F 
ENDBRANCH  25  27
ENDBRANCH  19  22
ENDBRANCH   1  16
TORSDOF 5
