REMARK  Name = ZINC63375570
REMARK  4 active torsions:
REMARK  status: ('A' for Active; 'I' for Inactive)
REMARK    1  A    between atoms: C_1  and  C_2
REMARK    2  A    between atoms: C_13  and  C_16
REMARK    3  A    between atoms: C_16  and  C_17
REMARK    4  A    between atoms: N_28  and  C_31
REMARK                            x       y       z     vdW  Elec       q    Type
REMARK                         _______ _______ _______ _____ _____    ______ ____
ROOT
ATOM      1  C   UNL     1       1.026   1.548   0.469  0.00  0.00    +0.044 C 
ATOM      2  C   UNL     1       0.955   0.044   0.399  0.00  0.00    -0.050 A 
ATOM      3  C   UNL     1       1.156  -0.604  -0.806  0.00  0.00    +0.005 A 
ATOM      4  C   UNL     1       1.092  -1.980  -0.877  0.00  0.00    +0.024 A 
ATOM      5  C   UNL     1       0.825  -2.729   0.267  0.00  0.00    +0.039 A 
ATOM      6  C   UNL     1       0.624  -2.066   1.474  0.00  0.00    +0.004 A 
ATOM      7  C   UNL     1       0.694  -0.692   1.541  0.00  0.00    +0.011 A 
ATOM      8  C   UNL     1       0.364  -3.138   2.494  0.00  0.00    +0.136 C 
ATOM      9  C   UNL     1      -1.008  -2.961   3.158  0.00  0.00    +0.123 C 
ATOM     10  C   UNL     1      -0.789  -3.405   4.631  0.00  0.00    +0.107 C 
ATOM     11  C   UNL     1       0.690  -3.840   4.699  0.00  0.00    +0.072 C 
ATOM     12  N   UNL     1       1.352  -3.095   3.587  0.00  0.00    -0.295 NA
ATOM     13  C   UNL     1      -0.987  -2.127   5.413  0.00  0.00    +0.232 C 
ATOM     14  O   UNL     1      -0.893  -2.022   6.617  0.00  0.00    -0.274 OA
ATOM     15  N   UNL     1      -1.282  -1.131   4.571  0.00  0.00    -0.210 N 
ATOM     16  C   UNL     1      -1.331  -1.488   3.266  0.00  0.00    +0.233 C 
ATOM     17  O   UNL     1      -1.589  -0.757   2.334  0.00  0.00    -0.274 OA
ATOM     18  C   UNL     1       0.443  -4.431   1.730  0.00  0.00    +0.243 C 
ATOM     19  O   UNL     1       0.293  -5.548   2.179  0.00  0.00    -0.273 OA
ATOM     20  N   UNL     1       0.712  -4.109   0.450  0.00  0.00    -0.283 N 
ATOM     21  H   UNL     1       2.212  -3.549   3.316  0.00  0.00    +0.124 HD
ATOM     22  H   UNL     1       0.814  -4.759  -0.262  0.00  0.00    +0.155 HD
ENDROOT
BRANCH  15  23
ATOM     23  C   UNL     1      -1.528   0.180   5.003  0.00  0.00    +0.044 A 
ATOM     24  C   UNL     1      -0.501   0.935   5.552  0.00  0.00    +0.024 A 
ATOM     25  C   UNL     1      -0.747   2.226   5.977  0.00  0.00    +0.002 A 
ATOM     26  C   UNL     1      -2.014   2.767   5.856  0.00  0.00    +0.000 A 
ATOM     27  C   UNL     1      -3.039   2.017   5.309  0.00  0.00    +0.002 A 
ATOM     28  C   UNL     1      -2.798   0.727   4.877  0.00  0.00    +0.024 A 
ENDBRANCH  15  23
BRANCH  11  29
ATOM     29  C   UNL     1       1.304  -3.427   6.038  0.00  0.00    +0.052 C 
BRANCH  29  30
ATOM     30  C   UNL     1       2.708  -3.966   6.135  0.00  0.00    -0.040 C 
ATOM     31  C   UNL     1       3.853  -3.315   5.826  0.00  0.00    -0.001 A 
ATOM     32  C   UNL     1       4.123  -1.962   5.326  0.00  0.00    +0.010 A 
ATOM     33  C   UNL     1       5.403  -1.587   5.106  0.00  0.00    +0.001 A 
ATOM     34  C   UNL     1       6.477  -2.457   5.342  0.00  0.00    +0.002 A 
ATOM     35  C   UNL     1       6.308  -3.715   5.800  0.00  0.00    +0.026 A 
ATOM     36  C   UNL     1       5.004  -4.214   6.067  0.00  0.00    +0.043 A 
ATOM     37  N   UNL     1       4.587  -5.377   6.508  0.00  0.00    -0.380 N 
ATOM     38  C   UNL     1       3.123  -5.344   6.602  0.00  0.00    +0.144 C 
ATOM     39  H   UNL     1       5.152  -6.131   6.738  0.00  0.00    +0.160 HD
ENDBRANCH  29  30
ENDBRANCH  11  29
TORSDOF 3
