REMARK  Name = ZINC39693450
REMARK  13 active torsions:
REMARK  status: ('A' for Active; 'I' for Inactive)
REMARK    1  A    between atoms: C_1  and  C_2
REMARK    2  A    between atoms: C_2  and  C_4
REMARK    3  A    between atoms: C_2  and  O_30
REMARK    4  A    between atoms: C_8  and  C_17
REMARK    5  A    between atoms: N_19  and  C_20
REMARK    6  A    between atoms: C_20  and  C_21
REMARK    7  A    between atoms: C_21  and  N_22
REMARK    8  A    between atoms: C_23  and  O_25
REMARK    9  A    between atoms: O_25  and  C_26
REMARK   10  A    between atoms: C_26  and  C_27
REMARK   11  A    between atoms: C_26  and  C_28
REMARK   12  A    between atoms: C_26  and  C_29
REMARK   13  A    between atoms: O_30  and  C_31
REMARK                            x       y       z     vdW  Elec       q    Type
REMARK                         _______ _______ _______ _____ _____    ______ ____
ROOT
ATOM      1  C   UNL     1       0.494  -0.470   1.122  0.00  0.00    +0.256 C 
ATOM      2  O   UNL     1      -0.219  -0.911   1.998  0.00  0.00    -0.272 OA
ATOM      3  N   UNL     1       1.833  -0.463   1.282  0.00  0.00    -0.297 N 
ATOM      4  C   UNL     1       2.862  -0.040   0.303  0.00  0.00    +0.121 C 
ATOM      5  C   UNL     1       3.919   0.708   1.147  0.00  0.00    +0.100 C 
ATOM      6  C   UNL     1       3.747   0.155   2.571  0.00  0.00    -0.004 C 
ATOM      7  C   UNL     1       2.607  -0.869   2.479  0.00  0.00    +0.115 C 
ATOM      8  C   UNL     1       3.365   1.277   3.532  0.00  0.00    -0.010 C 
ATOM      9  C   UNL     1       3.256   0.713   4.951  0.00  0.00    -0.082 C 
ATOM     10  N   UNL     1       4.541   0.122   5.344  0.00  0.00    +0.379 N 
ATOM     11  C   UNL     1       4.857  -1.016   4.472  0.00  0.00    -0.082 C 
ATOM     12  C   UNL     1       5.033  -0.525   3.033  0.00  0.00    -0.010 C 
ATOM     13  H   UNL     1       5.268   0.817   5.264  0.00  0.00    -0.086 HD
ATOM     14  H   UNL     1       4.486  -0.194   6.301  0.00  0.00    -0.086 HD
ENDROOT
BRANCH   5  15
ATOM     15  C   UNL     1       5.304   0.417   0.631  0.00  0.00    +0.218 C 
ATOM     16  O   UNL     1       5.546  -0.653   0.113  0.00  0.00    -0.275 OA
ATOM     17  N   UNL     1       6.275   1.345   0.745  0.00  0.00    -0.314 N 
ATOM     18  H   UNL     1       6.082   2.200   1.159  0.00  0.00    +0.149 HD
BRANCH  17  19
ATOM     19  C   UNL     1       7.622   1.061   0.244  0.00  0.00    +0.123 C 
BRANCH  19  20
ATOM     20  C   UNL     1       8.525   2.270   0.495  0.00  0.00    +0.126 C 
BRANCH  20  21
ATOM     21  N   UNL     1       9.872   1.987  -0.006  0.00  0.00    -0.280 N 
ATOM     22  C   UNL     1      10.843   2.915   0.108  0.00  0.00    +0.401 C 
ATOM     23  O   UNL     1      10.601   3.986   0.627  0.00  0.00    -0.226 OA
ATOM     24  H   UNL     1      10.065   1.131  -0.420  0.00  0.00    +0.152 HD
BRANCH  22  25
ATOM     25  O   UNL     1      12.081   2.654  -0.352  0.00  0.00    -0.445 OA
BRANCH  25  26
ATOM     26  C   UNL     1      13.060   3.683  -0.198  0.00  0.00    +0.107 C 
ATOM     27  C   UNL     1      13.233   4.004   1.288  0.00  0.00    +0.055 C 
ATOM     28  C   UNL     1      14.394   3.208  -0.777  0.00  0.00    +0.055 C 
ATOM     29  C   UNL     1      12.601   4.939  -0.941  0.00  0.00    +0.055 C 
ENDBRANCH  25  26
ENDBRANCH  22  25
ENDBRANCH  20  21
ENDBRANCH  19  20
ENDBRANCH  17  19
ENDBRANCH   5  15
BRANCH   1  31
ATOM     30  C   UNL     1       0.093   1.585  -0.207  0.00  0.00    +0.062 C 
ATOM     31  C   UNL     1      -0.116   0.071  -0.145  0.00  0.00    +0.256 C 
BRANCH  31  32
ATOM     32  O   UNL     1      -1.516  -0.217  -0.161  0.00  0.00    -0.480 OA
BRANCH  32  33
ATOM     33  C   UNL     1      -2.117  -0.291  -1.378  0.00  0.00    +0.122 A 
ATOM     34  C   UNL     1      -1.399   0.009  -2.526  0.00  0.00    +0.045 A 
ATOM     35  C   UNL     1      -2.013  -0.067  -3.762  0.00  0.00    +0.004 A 
ATOM     36  C   UNL     1      -3.341  -0.441  -3.854  0.00  0.00    +0.000 A 
ATOM     37  C   UNL     1      -4.058  -0.739  -2.710  0.00  0.00    +0.004 A 
ATOM     38  C   UNL     1      -3.448  -0.671  -1.473  0.00  0.00    +0.045 A 
ENDBRANCH  32  33
ENDBRANCH  31  32
ENDBRANCH   1  31
TORSDOF 9
