REMARK  Name = ZINC09222626
REMARK  7 active torsions:
REMARK  status: ('A' for Active; 'I' for Inactive)
REMARK    1  A    between atoms: C_1  and  C_2
REMARK    2  A    between atoms: C_2  and  C_24
REMARK    3  A    between atoms: N_5  and  C_9
REMARK    4  A    between atoms: C_9  and  C_10
REMARK    5  A    between atoms: N_15  and  C_16
REMARK    6  A    between atoms: C_16  and  C_17
REMARK    7  A    between atoms: C_17  and  C_18
REMARK                            x       y       z     vdW  Elec       q    Type
REMARK                         _______ _______ _______ _____ _____    ______ ____
ROOT
ATOM      1  C   UNL     1      -3.202  -8.520  -1.125  0.00  0.00    +0.047 C 
ATOM      2  C   UNL     1      -4.465  -7.812  -0.631  0.00  0.00    +0.138 C 
ATOM      3  C   UNL     1      -4.493  -6.372  -1.104  0.00  0.00    +0.251 C 
ATOM      4  O   UNL     1      -4.515  -5.978  -2.251  0.00  0.00    -0.272 OA
ATOM      5  N   UNL     1      -4.487  -5.621   0.015  0.00  0.00    -0.215 N 
ATOM      6  C   UNL     1      -4.467  -6.378   1.117  0.00  0.00    +0.310 C 
ATOM      7  O   UNL     1      -4.462  -5.928   2.246  0.00  0.00    -0.252 OA
ATOM      8  N   UNL     1      -4.452  -7.694   0.837  0.00  0.00    -0.281 N 
ATOM      9  H   UNL     1      -4.436  -8.423   1.477  0.00  0.00    +0.152 HD
ENDROOT
BRANCH   2  10
ATOM     10  C   UNL     1      -5.699  -8.542  -1.094  0.00  0.00    +0.022 A 
ATOM     11  C   UNL     1      -6.605  -9.024  -0.169  0.00  0.00    +0.047 A 
ATOM     12  C   UNL     1      -7.741  -9.690  -0.594  0.00  0.00    +0.124 A 
ATOM     13  C   UNL     1      -7.965  -9.884  -1.947  0.00  0.00    +0.041 A 
ATOM     14  C   UNL     1      -7.056  -9.407  -2.872  0.00  0.00    +0.041 A 
ATOM     15  C   UNL     1      -5.923  -8.735  -2.447  0.00  0.00    +0.129 A 
ATOM     16  F   UNL     1      -5.034  -8.268  -3.352  0.00  0.00    -0.205 F 
ATOM     17  F   UNL     1      -8.629 -10.157   0.311  0.00  0.00    -0.205 F 
ENDBRANCH   2  10
BRANCH   5  18
ATOM     18  C   UNL     1      -4.507  -4.156   0.023  0.00  0.00    +0.214 C 
BRANCH  18  19
ATOM     19  C   UNL     1      -3.093  -3.634   0.012  0.00  0.00    +0.238 C 
ATOM     20  O   UNL     1      -2.161  -4.409  -0.001  0.00  0.00    -0.274 OA
ATOM     21  N   UNL     1      -2.865  -2.306   0.017  0.00  0.00    -0.239 N 
ATOM     22  C   UNL     1      -1.601  -1.839   0.007  0.00  0.00    +0.306 C 
ATOM     23  O   UNL     1      -0.666  -2.617  -0.006  0.00  0.00    -0.252 OA
ATOM     24  N   UNL     1      -1.372  -0.511   0.012  0.00  0.00    -0.299 N 
ATOM     25  H   UNL     1      -3.611  -1.686   0.028  0.00  0.00    +0.159 HD
ATOM     26  H   UNL     1      -2.118   0.109   0.023  0.00  0.00    +0.150 HD
BRANCH  24  27
ATOM     27  C   UNL     1       0.002  -0.004   0.002  0.00  0.00    +0.110 C 
BRANCH  27  28
ATOM     28  C   UNL     1      -0.019   1.526   0.010  0.00  0.00    +0.049 C 
BRANCH  28  29
ATOM     29  C   UNL     1       1.395   2.047  -0.000  0.00  0.00    -0.072 C 
ATOM     30  C   UNL     1       1.919   2.357  -1.143  0.00  0.00    -0.028 C 
ATOM     31  C   UNL     1       3.316   2.878  -1.313  0.00  0.00    +0.027 C 
ATOM     32  C   UNL     1       3.857   3.384   0.026  0.00  0.00    +0.004 C 
ATOM     33  C   UNL     1       3.616   2.302   1.086  0.00  0.00    +0.005 C 
ATOM     34  C   UNL     1       2.106   2.181   1.315  0.00  0.00    +0.030 C 
ENDBRANCH  28  29
ENDBRANCH  27  28
ENDBRANCH  24  27
ENDBRANCH  18  19
ENDBRANCH   5  18
TORSDOF 6
