REMARK  Name = ZINC09153445
REMARK  12 active torsions:
REMARK  status: ('A' for Active; 'I' for Inactive)
REMARK    1  A    between atoms: C_1  and  C_2
REMARK    2  A    between atoms: C_2  and  C_3
REMARK    3  A    between atoms: C_3  and  N_4
REMARK    4  A    between atoms: N_15  and  C_18
REMARK    5  A    between atoms: C_18  and  C_19
REMARK    6  A    between atoms: N_21  and  C_22
REMARK    7  A    between atoms: C_22  and  C_23
REMARK    8  A    between atoms: C_23  and  C_24
REMARK    9  A    between atoms: C_24  and  N_71
REMARK   10  A    between atoms: C_25  and  C_26
REMARK   11  A    between atoms: C_25  and  N_71
REMARK   12  A    between atoms: C_31  and  N_71
REMARK                            x       y       z     vdW  Elec       q    Type
REMARK                         _______ _______ _______ _____ _____    ______ ____
ROOT
ATOM      1  C   UNL     1       7.759   4.083  -0.681  0.00  0.00    +0.235 C 
ATOM      2  O   UNL     1       6.854   3.868  -1.460  0.00  0.00    -0.274 OA
ATOM      3  N   UNL     1       9.005   4.309  -1.143  0.00  0.00    -0.314 N 
ATOM      4  H   UNL     1       9.728   4.481  -0.520  0.00  0.00    +0.149 HD
ENDROOT
BRANCH   1   5
ATOM      5  C   UNL     1       7.490   4.096   0.801  0.00  0.00    +0.243 C 
BRANCH   5  17
ATOM      6  N   UNL     1       3.568   1.136   1.637  0.00  0.00    -0.336 N 
ATOM      7  C   UNL     1       2.233   1.424   1.823  0.00  0.00    +0.050 A 
ATOM      8  C   UNL     1       1.119   0.621   2.058  0.00  0.00    +0.026 A 
ATOM      9  C   UNL     1      -0.124   1.196   2.202  0.00  0.00    +0.002 A 
ATOM     10  C   UNL     1      -0.279   2.573   2.126  0.00  0.00    +0.001 A 
ATOM     11  C   UNL     1       0.801   3.379   1.897  0.00  0.00    +0.010 A 
ATOM     12  C   UNL     1       2.068   2.817   1.743  0.00  0.00    +0.009 A 
ATOM     13  C   UNL     1       3.404   3.377   1.492  0.00  0.00    +0.033 A 
ATOM     14  C   UNL     1       4.283   2.296   1.438  0.00  0.00    +0.118 A 
ATOM     15  C   UNL     1       5.655   2.553   1.204  0.00  0.00    +0.292 A 
ATOM     16  O   UNL     1       6.454   1.632   1.150  0.00  0.00    -0.264 OA
ATOM     17  N   UNL     1       6.071   3.825   1.043  0.00  0.00    -0.219 N 
ATOM     18  N   UNL     1       5.166   4.889   1.103  0.00  0.00    -0.175 NA
ATOM     19  C   UNL     1       3.896   4.688   1.316  0.00  0.00    +0.143 A 
BRANCH   6  20
ATOM     20  C   UNL     1       4.144  -0.211   1.651  0.00  0.00    +0.122 C 
BRANCH  20  22
ATOM     21  C   UNL     1       4.726  -2.195   0.248  0.00  0.00    +0.005 C 
ATOM     22  C   UNL     1       4.124  -0.788   0.234  0.00  0.00    +0.018 C 
ENDBRANCH  20  22
ENDBRANCH   6  20
ENDBRANCH   5  17
ENDBRANCH   1   5
BRANCH   3  23
ATOM     23  C   UNL     1       9.266   4.296  -2.584  0.00  0.00    +0.102 C 
BRANCH  23  24
ATOM     24  C   UNL     1      10.748   4.579  -2.837  0.00  0.00    +0.000 C 
BRANCH  24  25
ATOM     25  C   UNL     1      11.021   4.565  -4.342  0.00  0.00    -0.076 C 
BRANCH  25  26
ATOM     26  N   UNL     1      12.460   4.815  -4.566  0.00  0.00    +0.386 N 
ATOM     27  H   UNL     1      12.754   5.614  -3.991  0.00  0.00    -0.081 HD
BRANCH  26  28
ATOM     28  C   UNL     1      13.246   3.627  -4.174  0.00  0.00    -0.068 C 
ATOM     29  C   UNL     1      12.537   2.327  -4.605  0.00  0.00    -0.015 C 
ATOM     30  C   UNL     1      12.812   1.340  -3.443  0.00  0.00    -0.002 C 
ATOM     31  C   UNL     1      12.716   2.249  -2.193  0.00  0.00    -0.002 C 
ATOM     32  C   UNL     1      13.361   3.577  -2.640  0.00  0.00    -0.015 C 
ENDBRANCH  26  28
BRANCH  26  33
ATOM     33  C   UNL     1      12.702   5.134  -5.989  0.00  0.00    -0.003 C 
BRANCH  33  34
ATOM     34  C   UNL     1      14.101   5.676  -6.134  0.00  0.00    +0.089 A 
ATOM     35  C   UNL     1      15.191   4.960  -6.462  0.00  0.00    +0.042 A 
ATOM     36  C   UNL     1      16.280   5.862  -6.487  0.00  0.00    +0.041 A 
ATOM     37  C   UNL     1      15.791   7.073  -6.165  0.00  0.00    +0.195 A 
ATOM     38  O   UNL     1      14.470   6.954  -5.953  0.00  0.00    -0.470 OA
ENDBRANCH  33  34
ENDBRANCH  26  33
ENDBRANCH  25  26
ENDBRANCH  24  25
ENDBRANCH  23  24
ENDBRANCH   3  23
TORSDOF 11
