REMARK  Name = ZINC05731767
REMARK  1 active torsions:
REMARK  status: ('A' for Active; 'I' for Inactive)
REMARK    1  A    between atoms: C_20  and  C_22
REMARK                            x       y       z     vdW  Elec       q    Type
REMARK                         _______ _______ _______ _____ _____    ______ ____
ROOT
ATOM      1  C   UNL     1      -0.013   1.076   0.008  0.00  0.00    +0.002 A 
ATOM      2  C   UNL     1       1.190   1.779   0.000  0.00  0.00    +0.002 A 
ATOM      3  C   UNL     1       1.205   3.140   0.008  0.00  0.00    +0.030 A 
ATOM      4  C   UNL     1      -0.007   3.850   0.022  0.00  0.00    +0.090 A 
ATOM      5  C   UNL     1      -1.231   3.135   0.028  0.00  0.00    +0.090 A 
ATOM      6  C   UNL     1      -1.206   1.730   0.017  0.00  0.00    +0.030 A 
ATOM      7  N   UNL     1      -2.394   3.802   0.039  0.00  0.00    -0.246 NA
ATOM      8  C   UNL     1      -2.382   5.113   0.044  0.00  0.00    +0.098 A 
ATOM      9  C   UNL     1      -1.181   5.818   0.027  0.00  0.00    +0.125 A 
ATOM     10  N   UNL     1      -0.020   5.191   0.026  0.00  0.00    -0.237 NA
ATOM     11  S   UNL     1      -1.246   7.580  -0.007  0.00  0.00    -0.066 S 
ATOM     12  C   UNL     1      -1.181   7.940   1.715  0.00  0.00    +0.035 A 
ATOM     13  C   UNL     1      -0.053   8.575   2.217  0.00  0.00    +0.017 A 
ATOM     14  C   UNL     1       0.042   8.907   3.552  0.00  0.00    +0.001 A 
ATOM     15  C   UNL     1      -1.010   8.607   4.400  0.00  0.00    +0.002 A 
ATOM     16  C   UNL     1      -2.127   7.971   3.923  0.00  0.00    +0.024 A 
ATOM     17  C   UNL     1      -2.246   7.595   2.566  0.00  0.00    +0.046 A 
ATOM     18  N   UNL     1      -3.316   6.899   2.246  0.00  0.00    -0.301 N 
ATOM     19  C   UNL     1      -4.024   6.138   1.539  0.00  0.00    +0.114 C 
ATOM     20  C   UNL     1      -3.679   5.886   0.088  0.00  0.00    +0.205 C 
ATOM     21  N   UNL     1      -5.121   5.530   2.089  0.00  0.00    -0.288 NA
ATOM     22  H   UNL     1      -5.378   5.709   3.143  0.00  0.00    +0.188 HD
ATOM     23  H   UNL     1      -4.190   6.897   2.914  0.00  0.00    +0.153 HD
ENDROOT
BRANCH  20  24
ATOM     24  C   UNL     1      -3.517   7.170  -0.615  0.00  0.00    +0.080 C 
ATOM     25  N   UNL     1      -3.392   8.160  -1.158  0.00  0.00    -0.195 NA
ENDBRANCH  20  24
TORSDOF 1
