REMARK  Name = ZINC04686053
REMARK  3 active torsions:
REMARK  status: ('A' for Active; 'I' for Inactive)
REMARK    1  A    between atoms: C_1  and  C_2
REMARK    2  A    between atoms: C_8  and  N_10
REMARK    3  A    between atoms: C_11  and  C_13
REMARK                            x       y       z     vdW  Elec       q    Type
REMARK                         _______ _______ _______ _____ _____    ______ ____
ROOT
ATOM      1  C   UNL     1      -0.013   1.086   0.008  0.00  0.00    +0.092 C 
ATOM      2  C   UNL     1      -0.725   1.581   1.270  0.00  0.00    +0.016 C 
ATOM      3  C   UNL     1       0.057   1.118   2.502  0.00  0.00    +0.020 C 
ATOM      4  C   UNL     1       1.491   1.648   2.419  0.00  0.00    +0.109 C 
ATOM      5  N   UNL     1       2.129   1.146   1.196  0.00  0.00    -0.284 N 
ATOM      6  C   UNL     1       1.423   1.616  -0.003  0.00  0.00    +0.122 C 
ATOM      7  C   UNL     1       3.459   1.497   1.154  0.00  0.00    +0.291 A 
ATOM      8  N   UNL     1       4.338   1.215   2.081  0.00  0.00    -0.195 NA
ATOM      9  C   UNL     1       5.547   1.715   1.703  0.00  0.00    +0.111 A 
ATOM     10  C   UNL     1       6.815   1.714   2.286  0.00  0.00    +0.031 A 
ATOM     11  C   UNL     1       7.866   2.322   1.635  0.00  0.00    +0.002 A 
ATOM     12  C   UNL     1       7.671   2.935   0.407  0.00  0.00    +0.004 A 
ATOM     13  C   UNL     1       6.422   2.943  -0.180  0.00  0.00    +0.048 A 
ATOM     14  C   UNL     1       5.354   2.336   0.460  0.00  0.00    +0.157 A 
ATOM     15  O   UNL     1       4.046   2.174   0.152  0.00  0.00    -0.424 OA
ENDROOT
BRANCH   1  17
ATOM     16  N   UNL     1      -0.292   1.274  -2.443  0.00  0.00    -0.312 N 
ATOM     17  C   UNL     1      -0.743   1.586  -1.212  0.00  0.00    +0.218 C 
ATOM     18  O   UNL     1      -1.737   2.269  -1.085  0.00  0.00    -0.275 OA
ATOM     19  H   UNL     1       0.503   0.727  -2.543  0.00  0.00    +0.149 HD
BRANCH  16  26
ATOM     20  C   UNL     1       1.113   2.788  -4.473  0.00  0.00    +0.009 C 
ATOM     21  C   UNL     1      -0.032   1.831  -4.810  0.00  0.00    +0.006 C 
ATOM     22  C   UNL     1       0.534   0.438  -5.090  0.00  0.00    +0.005 C 
ATOM     23  C   UNL     1      -0.611  -0.520  -5.427  0.00  0.00    +0.000 C 
ATOM     24  C   UNL     1      -1.581  -0.591  -4.245  0.00  0.00    +0.002 C 
ATOM     25  C   UNL     1      -2.147   0.802  -3.965  0.00  0.00    +0.022 C 
ATOM     26  C   UNL     1      -1.002   1.760  -3.628  0.00  0.00    +0.076 C 
ENDBRANCH  16  26
ENDBRANCH   1  17
TORSDOF 2
