REMARK  Name = ZINC32857967
REMARK  4 active torsions:
REMARK  status: ('A' for Active; 'I' for Inactive)
REMARK    1  A    between atoms: C_1  and  N_2
REMARK    2  A    between atoms: N_2  and  C_3
REMARK    3  A    between atoms: C_10  and  C_12
REMARK    4  A    between atoms: C_12  and  N_13
REMARK                            x       y       z     vdW  Elec       q    Type
REMARK                         _______ _______ _______ _____ _____    ______ ____
ROOT
ATOM      1  C   UNL     1      -0.013   1.086   0.008  0.00  0.00    +0.132 C 
ATOM      2  N   UNL     1      -0.698   1.558   1.213  0.00  0.00    -0.300 N 
ATOM      3  C   UNL     1       0.002   1.786   2.342  0.00  0.00    +0.233 C 
ATOM      4  O   UNL     1      -0.565   2.177   3.340  0.00  0.00    -0.274 OA
ENDROOT
BRANCH   2   5
ATOM      5  C   UNL     1      -2.146   1.783   1.192  0.00  0.00    +0.076 C 
ATOM      6  C   UNL     1      -2.856   0.441   0.918  0.00  0.00    +0.022 C 
ATOM      7  C   UNL     1      -4.280   0.549   1.390  0.00  0.00    +0.002 C 
ATOM      8  C   UNL     1      -5.246   0.962   0.263  0.00  0.00    +0.000 C 
ATOM      9  C   UNL     1      -4.669   2.068  -0.642  0.00  0.00    +0.000 C 
ATOM     10  C   UNL     1      -3.954   3.137   0.140  0.00  0.00    +0.002 C 
ATOM     11  C   UNL     1      -2.452   2.788   0.185  0.00  0.00    +0.022 C 
ENDBRANCH   2   5
BRANCH   3  12
ATOM     12  C   UNL     1       1.491   1.555   2.364  0.00  0.00    +0.203 C 
BRANCH  12  13
ATOM     13  N   UNL     1       2.015   1.872   3.695  0.00  0.00    -0.293 N 
ATOM     14  C   UNL     1       2.500   3.197   4.100  0.00  0.00    +0.109 C 
ATOM     15  C   UNL     1       2.526   3.169   5.646  0.00  0.00    +0.028 C 
ATOM     16  C   UNL     1       2.691   1.658   5.929  0.00  0.00    +0.097 C 
ATOM     17  C   UNL     1       2.119   0.986   4.700  0.00  0.00    +0.216 C 
ATOM     18  O   UNL     1       1.802  -0.183   4.631  0.00  0.00    -0.276 OA
ENDBRANCH  12  13
ENDBRANCH   3  12
TORSDOF 3
