REMARK  Name = ZINC64212618
REMARK  8 active torsions:
REMARK  status: ('A' for Active; 'I' for Inactive)
REMARK    1  A    between atoms: C_1  and  C_2
REMARK    2  A    between atoms: C_4  and  O_27
REMARK    3  A    between atoms: C_5  and  O_25
REMARK    4  A    between atoms: C_7  and  N_8
REMARK    5  A    between atoms: C_9  and  C_11
REMARK    6  A    between atoms: C_12  and  C_13
REMARK    7  A    between atoms: O_25  and  C_26
REMARK    8  A    between atoms: O_27  and  C_28
REMARK                            x       y       z     vdW  Elec       q    Type
REMARK                         _______ _______ _______ _____ _____    ______ ____
ROOT
ATOM      1  N   UNL     1       0.025  -0.010   2.417  0.00  0.00    -0.282 N 
ATOM      2  C   UNL     1      -0.057  -0.686   3.579  0.00  0.00    +0.241 C 
ATOM      3  O   UNL     1      -0.040  -1.903   3.577  0.00  0.00    -0.271 OA
ATOM      4  H   UNL     1       0.078   0.959   2.422  0.00  0.00    +0.155 HD
ENDROOT
BRANCH   1  11
ATOM      5  C   UNL     1      -1.264   1.184   0.182  0.00  0.00    +0.046 C 
ATOM      6  C   UNL     1      -0.585  -0.158   0.085  0.00  0.00    -0.026 A 
ATOM      7  C   UNL     1      -0.573  -0.840  -1.117  0.00  0.00    +0.054 A 
ATOM      8  C   UNL     1       0.051  -2.073  -1.209  0.00  0.00    +0.162 A 
ATOM      9  C   UNL     1       0.668  -2.626  -0.090  0.00  0.00    +0.163 A 
ATOM     10  C   UNL     1       0.656  -1.943   1.114  0.00  0.00    +0.073 A 
ATOM     11  C   UNL     1       0.033  -0.704   1.201  0.00  0.00    +0.040 A 
BRANCH   9  12
ATOM     12  O   UNL     1       1.280  -3.837  -0.180  0.00  0.00    -0.491 OA
ATOM     13  C   UNL     1       1.892  -4.344   1.008  0.00  0.00    +0.277 C 
ENDBRANCH   9  12
BRANCH   8  14
ATOM     14  O   UNL     1       0.062  -2.744  -2.393  0.00  0.00    -0.491 OA
ATOM     15  C   UNL     1      -0.590  -2.117  -3.500  0.00  0.00    +0.277 C 
ENDBRANCH   8  14
ENDBRANCH   1  11
BRANCH   2  16
ATOM     16  C   UNL     1      -0.165   0.045   4.850  0.00  0.00    +0.064 C 
ATOM     17  C   UNL     1      -0.246  -0.623   5.998  0.00  0.00    -0.005 C 
BRANCH  17  18
ATOM     18  C   UNL     1      -0.357   0.128   7.300  0.00  0.00    +0.121 C 
ATOM     19  C   UNL     1       0.882  -0.176   8.119  0.00  0.00    -0.001 C 
ATOM     20  C   UNL     1       0.697  -0.730   9.351  0.00  0.00    -0.007 A 
ATOM     21  C   UNL     1       1.839  -1.054  10.207  0.00  0.00    +0.009 A 
ATOM     22  C   UNL     1       1.607  -1.605  11.427  0.00  0.00    +0.001 A 
ATOM     23  C   UNL     1       0.310  -1.865  11.872  0.00  0.00    +0.002 A 
ATOM     24  C   UNL     1      -0.791  -1.586  11.126  0.00  0.00    +0.024 A 
ATOM     25  C   UNL     1      -0.661  -1.014   9.847  0.00  0.00    +0.040 A 
ATOM     26  N   UNL     1      -1.747  -0.744   9.124  0.00  0.00    -0.284 N 
ATOM     27  C   UNL     1      -1.696  -0.209   7.916  0.00  0.00    +0.228 C 
ATOM     28  O   UNL     1      -2.723   0.013   7.304  0.00  0.00    -0.274 OA
ATOM     29  H   UNL     1      -2.617  -0.952   9.501  0.00  0.00    +0.155 HD
ENDBRANCH  17  18
ENDBRANCH   2  16
TORSDOF 5
