REMARK  Name = ZINC05365443
REMARK  9 active torsions:
REMARK  status: ('A' for Active; 'I' for Inactive)
REMARK    1  A    between atoms: C_1  and  C_2
REMARK    2  A    between atoms: C_2  and  C_4
REMARK    3  A    between atoms: C_2  and  O_10
REMARK    4  A    between atoms: O_10  and  C_11
REMARK    5  A    between atoms: C_11  and  C_13
REMARK    6  A    between atoms: C_20  and  C_23
REMARK    7  A    between atoms: C_23  and  C_24
REMARK    8  A    between atoms: C_23  and  C_25
REMARK    9  A    between atoms: C_23  and  C_26
REMARK                            x       y       z     vdW  Elec       q    Type
REMARK                         _______ _______ _______ _____ _____    ______ ____
ROOT
ATOM      1  C   UNL     1       2.547   1.321  -0.015  0.00  0.00    +0.347 C 
ATOM      2  O   UNL     1       2.775   0.127  -0.023  0.00  0.00    -0.244 OA
ENDROOT
BRANCH   1   3
ATOM      3  C   UNL     1       1.165   1.803   0.001  0.00  0.00    +0.097 A 
ATOM      4  C   UNL     1      -0.013   1.076   0.008  0.00  0.00    +0.026 A 
ATOM      5  C   UNL     1      -1.210   1.771   0.017  0.00  0.00    -0.036 A 
ATOM      6  C   UNL     1      -1.130   3.135   0.029  0.00  0.00    -0.006 A 
ATOM      7  S   UNL     1       0.557   3.481   0.015  0.00  0.00    -0.086 S 
ATOM      8  C   UNL     1      -2.270   4.106   0.043  0.00  0.00    +0.043 C 
ATOM      9  C   UNL     1      -3.555   3.350  -0.324  0.00  0.00    +0.009 C 
ATOM     10  C   UNL     1      -3.628   2.069   0.511  0.00  0.00    -0.001 C 
ATOM     11  C   UNL     1      -2.569   1.075   0.035  0.00  0.00    +0.040 C 
BRANCH  10  12
ATOM     12  C   UNL     1      -5.016   1.444   0.362  0.00  0.00    -0.035 C 
ATOM     13  C   UNL     1      -5.269   1.109  -1.110  0.00  0.00    +0.011 C 
ATOM     14  C   UNL     1      -5.091   0.163   1.196  0.00  0.00    +0.011 C 
ATOM     15  C   UNL     1      -6.076   2.433   0.850  0.00  0.00    +0.011 C 
ENDBRANCH  10  12
ENDBRANCH   1   3
BRANCH   1  16
ATOM     16  O   UNL     1       3.568   2.203  -0.020  0.00  0.00    -0.448 OA
BRANCH  16  18
ATOM     17  C   UNL     1       5.398   1.454   1.402  0.00  0.00    +0.062 C 
ATOM     18  C   UNL     1       4.912   1.654  -0.035  0.00  0.00    +0.259 C 
BRANCH  18  19
ATOM     19  C   UNL     1       5.836   2.607  -0.749  0.00  0.00    +0.261 C 
ATOM     20  O   UNL     1       5.425   3.685  -1.121  0.00  0.00    -0.271 OA
ATOM     21  N   UNL     1       7.119   2.260  -0.975  0.00  0.00    -0.237 N 
ATOM     22  C   UNL     1       7.945   3.112  -1.614  0.00  0.00    +0.303 C 
ATOM     23  O   UNL     1       7.533   4.194  -1.986  0.00  0.00    -0.253 OA
ATOM     24  N   UNL     1       9.227   2.766  -1.839  0.00  0.00    -0.313 N 
ATOM     25  H   UNL     1       7.448   1.397  -0.677  0.00  0.00    +0.159 HD
ATOM     26  H   UNL     1       9.556   1.903  -1.542  0.00  0.00    +0.146 HD
ATOM     27  H   UNL     1       9.822   3.379  -2.299  0.00  0.00    +0.146 HD
ENDBRANCH  18  19
ENDBRANCH  16  18
ENDBRANCH   1  16
TORSDOF 5
