REMARK  Name = ZINC06919932
REMARK  10 active torsions:
REMARK  status: ('A' for Active; 'I' for Inactive)
REMARK    1  A    between atoms: C_1  and  C_2
REMARK    2  A    between atoms: C_2  and  C_3
REMARK    3  A    between atoms: C_9  and  C_10
REMARK    4  A    between atoms: C_9  and  N_62
REMARK    5  A    between atoms: C_10  and  C_11
REMARK    6  A    between atoms: C_11  and  N_12
REMARK    7  A    between atoms: C_13  and  C_15
REMARK    8  A    between atoms: C_24  and  C_27
REMARK    9  A    between atoms: C_27  and  C_28
REMARK   10  A    between atoms: C_27  and  C_29
REMARK                            x       y       z     vdW  Elec       q    Type
REMARK                         _______ _______ _______ _____ _____    ______ ____
ROOT
ATOM      1  N   UNL     1      -0.095   0.045   0.050  0.00  0.00    -0.311 N 
ATOM      2  C   UNL     1      -1.264  -0.625   0.063  0.00  0.00    +0.244 C 
ATOM      3  O   UNL     1      -2.315  -0.013   0.071  0.00  0.00    -0.270 OA
ATOM      4  H   UNL     1       0.743  -0.444   0.043  0.00  0.00    +0.149 HD
ENDROOT
BRANCH   2   5
ATOM      5  C   UNL     1      -1.270  -2.100   0.068  0.00  0.00    +0.039 A 
ATOM      6  C   UNL     1      -0.062  -2.803   0.054  0.00  0.00    +0.015 A 
ATOM      7  C   UNL     1      -0.066  -4.181   0.065  0.00  0.00    +0.025 A 
ATOM      8  C   UNL     1      -1.269  -4.870   0.081  0.00  0.00    +0.049 A 
ATOM      9  C   UNL     1      -2.483  -4.175   0.088  0.00  0.00    +0.055 A 
ATOM     10  C   UNL     1      -2.484  -2.794   0.082  0.00  0.00    +0.038 A 
ATOM     11  N   UNL     1      -3.688  -4.889   0.096  0.00  0.00    -0.282 N 
ATOM     12  C   UNL     1      -3.704  -6.205   0.383  0.00  0.00    +0.238 C 
ATOM     13  O   UNL     1      -4.751  -6.816   0.343  0.00  0.00    -0.273 OA
ATOM     14  C   UNL     1      -2.433  -6.927   0.751  0.00  0.00    +0.160 C 
ATOM     15  N   UNL     1      -1.297  -6.266   0.094  0.00  0.00    -0.331 N 
ATOM     16  H   UNL     1      -4.519  -4.432  -0.105  0.00  0.00    +0.155 HD
ATOM     17  H   UNL     1      -0.588  -6.783  -0.319  0.00  0.00    +0.147 HD
BRANCH  14  18
ATOM     18  C   UNL     1      -2.242  -6.884   2.269  0.00  0.00    +0.012 C 
ATOM     19  C   UNL     1      -3.430  -7.563   2.952  0.00  0.00    +0.009 C 
ATOM     20  C   UNL     1      -0.952  -7.618   2.642  0.00  0.00    +0.009 C 
ENDBRANCH  14  18
ENDBRANCH   2   5
BRANCH   1  21
ATOM     21  C   UNL     1      -0.089   1.510   0.044  0.00  0.00    +0.102 C 
BRANCH  21  22
ATOM     22  C   UNL     1       1.355   2.014   0.029  0.00  0.00    +0.000 C 
BRANCH  22  23
ATOM     23  C   UNL     1       1.361   3.544   0.023  0.00  0.00    -0.077 C 
BRANCH  23  29
ATOM     24  C   UNL     1       2.804   5.452  -0.349  0.00  0.00    -0.069 C 
ATOM     25  C   UNL     1       4.264   5.884  -0.497  0.00  0.00    -0.015 C 
ATOM     26  C   UNL     1       5.000   5.641   0.824  0.00  0.00    -0.003 C 
ATOM     27  C   UNL     1       4.885   4.161   1.198  0.00  0.00    -0.019 C 
ATOM     28  C   UNL     1       3.406   3.778   1.297  0.00  0.00    -0.078 C 
ATOM     29  N   UNL     1       2.761   4.013  -0.013  0.00  0.00    +0.382 N 
ATOM     30  H   UNL     1       3.270   3.487  -0.733  0.00  0.00    -0.081 HD
BRANCH  24  32
ATOM     31  C   UNL     1       2.675   4.770  -2.749  0.00  0.00    +0.002 C 
ATOM     32  C   UNL     1       2.070   5.674  -1.673  0.00  0.00    -0.019 C 
ENDBRANCH  24  32
ENDBRANCH  23  29
ENDBRANCH  22  23
ENDBRANCH  21  22
ENDBRANCH   1  21
TORSDOF 7
