REMARK  Name = ZINC42140644
REMARK  5 active torsions:
REMARK  status: ('A' for Active; 'I' for Inactive)
REMARK    1  A    between atoms: C_1  and  C_2
REMARK    2  A    between atoms: C_6  and  C_7
REMARK    3  A    between atoms: N_9  and  C_10
REMARK    4  A    between atoms: N_9  and  C_11
REMARK    5  A    between atoms: C_16  and  N_17
REMARK                            x       y       z     vdW  Elec       q    Type
REMARK                         _______ _______ _______ _____ _____    ______ ____
ROOT
ATOM      1  C   UNL     1       0.032  -0.283   2.562  0.00  0.00    +0.258 C 
ATOM      2  O   UNL     1      -0.059  -0.671   1.412  0.00  0.00    -0.269 OA
ATOM      3  N   UNL     1       0.153  -1.174   3.566  0.00  0.00    -0.268 N 
ATOM      4  C   UNL     1       0.281  -2.602   3.266  0.00  0.00    +0.138 C 
ENDROOT
BRANCH   1  10
ATOM      5  C   UNL     1       0.014   2.035   0.481  0.00  0.00    +0.045 C 
ATOM      6  C   UNL     1      -0.000   2.225   1.976  0.00  0.00    -0.031 A 
ATOM      7  C   UNL     1      -0.028   3.471   2.554  0.00  0.00    +0.011 A 
ATOM      8  C   UNL     1      -0.040   3.570   3.906  0.00  0.00    +0.046 A 
ATOM      9  S   UNL     1      -0.013   1.976   4.436  0.00  0.00    -0.092 S 
ATOM     10  C   UNL     1       0.009   1.153   2.855  0.00  0.00    +0.077 A 
ENDBRANCH   1  10
BRANCH   3  11
ATOM     11  C   UNL     1       0.158  -0.736   4.892  0.00  0.00    +0.060 A 
ATOM     12  C   UNL     1      -1.028  -0.632   5.614  0.00  0.00    +0.045 A 
ATOM     13  C   UNL     1      -0.982  -0.195   6.923  0.00  0.00    +0.112 A 
ATOM     14  N   UNL     1       0.164   0.123   7.493  0.00  0.00    -0.261 NA
ATOM     15  C   UNL     1       1.312   0.040   6.847  0.00  0.00    +0.135 A 
ATOM     16  C   UNL     1       1.355  -0.395   5.532  0.00  0.00    +0.065 A 
BRANCH  16  17
ATOM     17  N   UNL     1       2.575  -0.486   4.853  0.00  0.00    -0.355 N 
ATOM     18  H   UNL     1       2.596  -0.788   3.931  0.00  0.00    +0.142 HD
ATOM     19  H   UNL     1       3.400  -0.248   5.304  0.00  0.00    +0.142 HD
ENDBRANCH  16  17
ENDBRANCH   3  11
TORSDOF 3
