REMARK  Name = ZINC33290333
REMARK  7 active torsions:
REMARK  status: ('A' for Active; 'I' for Inactive)
REMARK    1  A    between atoms: C_1  and  C_2
REMARK    2  A    between atoms: C_6  and  N_9
REMARK    3  A    between atoms: C_7  and  C_8
REMARK    4  A    between atoms: N_9  and  S_10
REMARK    5  A    between atoms: S_10  and  C_13
REMARK    6  A    between atoms: C_22  and  C_26
REMARK    7  A    between atoms: C_26  and  C_27
REMARK                            x       y       z     vdW  Elec       q    Type
REMARK                         _______ _______ _______ _____ _____    ______ ____
ROOT
ATOM      1  C   UNL     1      -0.144   1.659  -0.115  0.00  0.00    +0.110 A 
ATOM      2  C   UNL     1       1.012   2.414  -0.190  0.00  0.00    +0.030 A 
ATOM      3  C   UNL     1       0.919   3.783  -0.260  0.00  0.00    +0.018 A 
ATOM      4  C   UNL     1      -0.321   4.439  -0.255  0.00  0.00    +0.029 A 
ATOM      5  C   UNL     1      -1.481   3.685  -0.181  0.00  0.00    +0.049 A 
ATOM      6  C   UNL     1      -1.367   2.286  -0.117  0.00  0.00    +0.053 A 
ATOM      7  N   UNL     1      -2.769   4.151  -0.165  0.00  0.00    -0.284 N 
ATOM      8  C   UNL     1      -3.455   5.220  -0.373  0.00  0.00    +0.222 C 
ATOM      9  O   UNL     1      -4.652   5.055  -0.470  0.00  0.00    -0.275 OA
ATOM     10  C   UNL     1      -2.995   6.628  -0.511  0.00  0.00    +0.094 C 
ATOM     11  C   UNL     1      -1.702   6.736  -1.267  0.00  0.00    +0.087 C 
ATOM     12  S   UNL     1      -0.277   6.184  -0.342  0.00  0.00    -0.123 S 
ATOM     13  H   UNL     1      -3.595   3.476   0.102  0.00  0.00    +0.155 HD
ENDROOT
BRANCH   1  14
ATOM     14  S   UNL     1      -0.051  -0.099  -0.023  0.00  0.00    +0.072 S 
ATOM     15  O   UNL     1      -1.289  -0.597  -0.510  0.00  0.00    -0.150 OA
ATOM     16  O   UNL     1       1.197  -0.469  -0.593  0.00  0.00    -0.150 OA
BRANCH  14  17
ATOM     17  N   UNL     1       0.024  -0.502   1.581  0.00  0.00    -0.216 N 
ATOM     18  H   UNL     1       0.896  -1.048   1.971  0.00  0.00    +0.174 HD
BRANCH  17  24
ATOM     19  C   UNL     1      -1.493   0.957   6.022  0.00  0.00    +0.044 C 
ATOM     20  C   UNL     1      -1.785   0.562   4.598  0.00  0.00    -0.046 A 
ATOM     21  C   UNL     1      -3.090   0.547   4.139  0.00  0.00    +0.004 A 
ATOM     22  C   UNL     1      -3.362   0.185   2.833  0.00  0.00    +0.002 A 
ATOM     23  C   UNL     1      -2.332  -0.164   1.982  0.00  0.00    +0.025 A 
ATOM     24  C   UNL     1      -1.021  -0.150   2.439  0.00  0.00    +0.051 A 
ATOM     25  C   UNL     1      -0.750   0.210   3.754  0.00  0.00    -0.025 A 
ATOM     26  C   UNL     1       0.670   0.220   4.256  0.00  0.00    +0.046 C 
ENDBRANCH  17  24
ENDBRANCH  14  17
ENDBRANCH   1  14
BRANCH  10  27
ATOM     27  C   UNL     1      -4.069   7.429  -1.249  0.00  0.00    +0.109 C 
BRANCH  27  28
ATOM     28  C   UNL     1      -5.317   7.491  -0.407  0.00  0.00    +0.216 C 
ATOM     29  O   UNL     1      -5.345   6.948   0.676  0.00  0.00    -0.276 OA
ATOM     30  N   UNL     1      -6.403   8.150  -0.859  0.00  0.00    -0.301 N 
ATOM     31  C   UNL     1      -6.504   8.856  -2.145  0.00  0.00    +0.108 C 
ATOM     32  C   UNL     1      -7.915   9.476  -2.218  0.00  0.00    +0.020 C 
ATOM     33  C   UNL     1      -8.328   9.571  -0.726  0.00  0.00    +0.020 C 
ATOM     34  C   UNL     1      -7.684   8.289  -0.142  0.00  0.00    +0.108 C 
ENDBRANCH  27  28
ENDBRANCH  10  27
TORSDOF 5
