REMARK  Name = ZINC20701214
REMARK  4 active torsions:
REMARK  status: ('A' for Active; 'I' for Inactive)
REMARK    1  A    between atoms: C_1  and  C_2
REMARK    2  A    between atoms: C_5  and  C_27
REMARK    3  A    between atoms: C_15  and  C_18
REMARK    4  A    between atoms: C_23  and  O_24
REMARK                            x       y       z     vdW  Elec       q    Type
REMARK                         _______ _______ _______ _____ _____    ______ ____
ROOT
ATOM      1  C   UNL     1      -5.028   0.922  -1.082  0.00  0.00    +0.044 C 
ATOM      2  C   UNL     1      -4.232   1.231   0.160  0.00  0.00    -0.045 A 
ATOM      3  C   UNL     1      -4.874   1.720   1.282  0.00  0.00    +0.004 A 
ATOM      4  C   UNL     1      -4.141   2.003   2.420  0.00  0.00    +0.005 A 
ATOM      5  C   UNL     1      -2.778   1.808   2.433  0.00  0.00    -0.029 A 
ATOM      6  C   UNL     1      -2.114   1.321   1.306  0.00  0.00    +0.035 A 
ATOM      7  C   UNL     1      -2.869   1.024   0.167  0.00  0.00    -0.016 A 
ATOM      8  C   UNL     1      -2.159   0.477  -1.008  0.00  0.00    +0.049 C 
ATOM      9  C   UNL     1      -2.626   0.686  -2.400  0.00  0.00    -0.023 C 
ATOM     10  C   UNL     1      -1.566   0.722  -3.200  0.00  0.00    -0.030 C 
ATOM     11  C   UNL     1      -0.285   0.574  -2.376  0.00  0.00    +0.033 C 
ATOM     12  C   UNL     1      -0.733   1.114  -1.014  0.00  0.00    +0.029 C 
ATOM     13  C   UNL     1      -0.064   0.559   0.226  0.00  0.00    +0.109 C 
ATOM     14  N   UNL     1      -0.733   1.163   1.389  0.00  0.00    -0.336 N 
ATOM     15  C   UNL     1      -1.993   2.123   3.681  0.00  0.00    +0.045 C 
ATOM     16  H   UNL     1      -0.143   1.466   2.267  0.00  0.00    +0.147 HD
ENDROOT
BRANCH  13  17
ATOM     17  C   UNL     1       1.399   0.924   0.228  0.00  0.00    +0.017 A 
ATOM     18  C   UNL     1       1.817   2.100   0.821  0.00  0.00    +0.029 A 
ATOM     19  C   UNL     1       3.159   2.437   0.823  0.00  0.00    +0.043 A 
ATOM     20  C   UNL     1       4.085   1.596   0.232  0.00  0.00    +0.043 A 
ATOM     21  C   UNL     1       3.672   0.418  -0.361  0.00  0.00    +0.084 A 
ATOM     22  C   UNL     1       2.326   0.077  -0.360  0.00  0.00    +0.140 A 
ATOM     23 CL   UNL     1       4.834  -0.636  -1.103  0.00  0.00    -0.080 Cl
ATOM     24 CL   UNL     1       3.680   3.915   1.567  0.00  0.00    -0.083 Cl
BRANCH  22  25
ATOM     25  O   UNL     1       1.917  -1.083  -0.939  0.00  0.00    -0.505 OA
ATOM     26  H   UNL     1       2.653  -1.754  -1.405  0.00  0.00    +0.292 HD
ENDBRANCH  22  25
ENDBRANCH  13  17
TORSDOF 2
