REMARK  Name = ZINC23467586
REMARK  14 active torsions:
REMARK  status: ('A' for Active; 'I' for Inactive)
REMARK    1  A    between atoms: C_1  and  C_2
REMARK    2  A    between atoms: C_2  and  C_3
REMARK    3  A    between atoms: C_8  and  C_9
REMARK    4  A    between atoms: C_9  and  C_11
REMARK    5  A    between atoms: C_9  and  N_16
REMARK    6  A    between atoms: C_11  and  C_12
REMARK    7  A    between atoms: C_12  and  O_14
REMARK    8  A    between atoms: O_14  and  C_15
REMARK    9  A    between atoms: N_16  and  C_17
REMARK   10  A    between atoms: N_27  and  C_28
REMARK   11  A    between atoms: C_28  and  C_30
REMARK   12  A    between atoms: C_28  and  C_31
REMARK   13  A    between atoms: C_31  and  C_32
REMARK   14  A    between atoms: C_32  and  C_33
REMARK                            x       y       z     vdW  Elec       q    Type
REMARK                         _______ _______ _______ _____ _____    ______ ____
ROOT
ATOM      1  C   UNL     1      -4.906  -1.987  -0.236  0.00  0.00    +0.047 C 
ATOM      2  C   UNL     1      -4.336  -3.380  -0.247  0.00  0.00    -0.058 C 
ATOM      3  C   UNL     1      -3.295  -3.392   0.586  0.00  0.00    +0.014 C 
ATOM      4  C   UNL     1      -2.453  -4.617   0.860  0.00  0.00    +0.040 C 
ATOM      5  C   UNL     1      -3.225  -5.855   0.391  0.00  0.00    +0.005 C 
ATOM      6  C   UNL     1      -3.723  -5.633  -1.041  0.00  0.00    +0.005 C 
ATOM      7  C   UNL     1      -4.826  -4.567  -1.034  0.00  0.00    +0.031 C 
ATOM      8  C   UNL     1      -3.120  -2.059   1.167  0.00  0.00    +0.242 C 
ATOM      9  O   UNL     1      -2.253  -1.755   1.964  0.00  0.00    -0.270 OA
ATOM     10  N   UNL     1      -4.059  -1.219   0.690  0.00  0.00    -0.305 N 
ENDROOT
BRANCH   1  11
ATOM     11  N   UNL     1      -6.294  -2.007   0.245  0.00  0.00    +0.399 N 
ATOM     12  H   UNL     1      -6.306  -1.698   1.300  0.00  0.00    -0.082 HD
ATOM     13  H   UNL     1      -6.682  -3.032   0.158  0.00  0.00    -0.082 HD
BRANCH  11  14
ATOM     14  C   UNL     1      -7.136  -1.096  -0.542  0.00  0.00    -0.027 C 
BRANCH  14  20
ATOM     15  C   UNL     1      -7.739  -0.914  -2.964  0.00  0.00    -0.046 A 
ATOM     16  C   UNL     1      -8.011  -1.484  -4.194  0.00  0.00    +0.004 A 
ATOM     17  C   UNL     1      -7.977  -2.858  -4.341  0.00  0.00    +0.000 A 
ATOM     18  C   UNL     1      -7.671  -3.662  -3.259  0.00  0.00    +0.000 A 
ATOM     19  C   UNL     1      -7.394  -3.091  -2.031  0.00  0.00    +0.002 A 
ATOM     20  C   UNL     1      -7.433  -1.718  -1.882  0.00  0.00    -0.058 A 
BRANCH  15  22
ATOM     21  C   UNL     1      -6.364   1.150  -2.969  0.00  0.00    +0.009 C 
ATOM     22  C   UNL     1      -7.776   0.584  -2.803  0.00  0.00    +0.032 C 
ENDBRANCH  15  22
ENDBRANCH  14  20
BRANCH  14  23
ATOM     23  C   UNL     1      -8.447  -0.842   0.204  0.00  0.00    +0.109 C 
BRANCH  23  24
ATOM     24  C   UNL     1      -8.163  -0.089   1.478  0.00  0.00    +0.306 C 
ATOM     25  O   UNL     1      -7.044   0.304   1.711  0.00  0.00    -0.251 OA
BRANCH  24  26
ATOM     26  O   UNL     1      -9.152   0.146   2.355  0.00  0.00    -0.468 OA
ATOM     27  C   UNL     1      -8.806   0.877   3.560  0.00  0.00    +0.280 C 
ENDBRANCH  24  26
ENDBRANCH  23  24
ENDBRANCH  14  23
ENDBRANCH  11  14
ENDBRANCH   1  11
BRANCH  10  28
ATOM     28  C   UNL     1      -4.212   0.197   1.034  0.00  0.00    +0.072 C 
ATOM     29  C   UNL     1      -4.342   0.341   2.552  0.00  0.00    +0.028 C 
BRANCH  28  30
ATOM     30  C   UNL     1      -2.987   0.975   0.550  0.00  0.00    +0.027 C 
BRANCH  30  31
ATOM     31  C   UNL     1      -2.928   0.934  -0.978  0.00  0.00    +0.037 C 
BRANCH  31  32
ATOM     32  C   UNL     1      -1.721   1.700  -1.455  0.00  0.00    -0.047 A 
ATOM     33  C   UNL     1      -0.512   1.052  -1.621  0.00  0.00    +0.003 A 
ATOM     34  C   UNL     1       0.594   1.753  -2.064  0.00  0.00    +0.000 A 
ATOM     35  C   UNL     1       0.492   3.105  -2.335  0.00  0.00    +0.000 A 
ATOM     36  C   UNL     1      -0.716   3.755  -2.163  0.00  0.00    +0.000 A 
ATOM     37  C   UNL     1      -1.822   3.053  -1.720  0.00  0.00    +0.003 A 
ENDBRANCH  31  32
ENDBRANCH  30  31
ENDBRANCH  28  30
ENDBRANCH  10  28
TORSDOF 11
