REMARK  Name = ZINC02899122
REMARK  10 active torsions:
REMARK  status: ('A' for Active; 'I' for Inactive)
REMARK    1  A    between atoms: C_1  and  C_2
REMARK    2  A    between atoms: C_2  and  O_3
REMARK    3  A    between atoms: O_3  and  C_4
REMARK    4  A    between atoms: C_4  and  C_6
REMARK    5  A    between atoms: C_10  and  N_11
REMARK    6  A    between atoms: N_11  and  C_12
REMARK    7  A    between atoms: C_12  and  N_14
REMARK    8  A    between atoms: C_15  and  C_17
REMARK    9  A    between atoms: C_18  and  C_19
REMARK   10  A    between atoms: C_22  and  N_25
REMARK                            x       y       z     vdW  Elec       q    Type
REMARK                         _______ _______ _______ _____ _____    ______ ____
ROOT
ATOM      1  C   UNL     1      -0.016   1.344   0.009  0.00  0.00    +0.141 C 
ATOM      2  S   UNL     1       1.455   2.220   0.000  0.00  0.00    -0.018 S 
ENDROOT
BRANCH   1   3
ATOM      3  N   UNL     1      -1.192   2.002   0.019  0.00  0.00    -0.264 N 
ATOM      4  C   UNL     1      -1.211   3.349   0.026  0.00  0.00    +0.242 C 
ATOM      5  O   UNL     1      -0.165   3.972   0.024  0.00  0.00    -0.270 OA
ATOM      6  H   UNL     1      -2.026   1.505   0.020  0.00  0.00    +0.157 HD
BRANCH   4   7
ATOM      7  C   UNL     1      -2.488   4.063   0.036  0.00  0.00    +0.068 C 
ATOM      8  C   UNL     1      -2.506   5.412   0.043  0.00  0.00    +0.013 C 
BRANCH   8   9
ATOM      9  C   UNL     1      -3.790   6.131   0.053  0.00  0.00    -0.025 A 
ATOM     10  C   UNL     1      -4.994   5.419   0.049  0.00  0.00    +0.010 A 
ATOM     11  C   UNL     1      -6.193   6.099   0.065  0.00  0.00    +0.033 A 
ATOM     12  C   UNL     1      -6.208   7.483   0.073  0.00  0.00    +0.126 A 
ATOM     13  C   UNL     1      -5.021   8.195   0.070  0.00  0.00    +0.033 A 
ATOM     14  C   UNL     1      -3.813   7.529   0.061  0.00  0.00    +0.010 A 
BRANCH  12  15
ATOM     15  N   UNL     1      -7.500   8.206   0.083  0.00  0.00    +0.056 N 
ATOM     16  O   UNL     1      -7.516   9.423   0.089  0.00  0.00    -0.126 OA
ATOM     17  O   UNL     1      -8.546   7.582   0.085  0.00  0.00    -0.126 OA
ENDBRANCH  12  15
ENDBRANCH   8   9
ENDBRANCH   4   7
ENDBRANCH   1   3
BRANCH   1  18
ATOM     18  N   UNL     1       0.002  -0.004   0.002  0.00  0.00    -0.290 N 
ATOM     19  H   UNL     1      -0.831  -0.500   0.007  0.00  0.00    +0.154 HD
BRANCH  18  24
ATOM     20  C   UNL     1       1.433  -2.051  -0.017  0.00  0.00    +0.091 A 
ATOM     21  C   UNL     1       2.813  -2.507  -0.039  0.00  0.00    -0.021 A 
ATOM     22  C   UNL     1       3.742  -1.528  -0.042  0.00  0.00    -0.004 A 
ATOM     23  S   UNL     1       2.813  -0.021  -0.024  0.00  0.00    -0.077 S 
ATOM     24  C   UNL     1       1.211  -0.680  -0.013  0.00  0.00    +0.086 A 
ATOM     25  C   UNL     1       5.231  -1.695  -0.056  0.00  0.00    +0.043 C 
ATOM     26  C   UNL     1       5.558  -3.150   0.311  0.00  0.00    +0.005 C 
ATOM     27  C   UNL     1       4.672  -4.080  -0.523  0.00  0.00    +0.005 C 
ATOM     28  C   UNL     1       3.220  -3.976  -0.052  0.00  0.00    +0.037 C 
BRANCH  20  29
ATOM     29  C   UNL     1       0.319  -3.001  -0.004  0.00  0.00    +0.342 C 
ATOM     30  O   UNL     1      -0.156  -3.396  -1.052  0.00  0.00    -0.245 OA
BRANCH  29  31
ATOM     31  O   UNL     1      -0.180  -3.440   1.170  0.00  0.00    -0.461 OA
BRANCH  31  33
ATOM     32  C   UNL     1      -1.712  -4.761   2.525  0.00  0.00    +0.048 C 
ATOM     33  C   UNL     1      -1.284  -4.381   1.107  0.00  0.00    +0.229 C 
ENDBRANCH  31  33
ENDBRANCH  29  31
ENDBRANCH  20  29
ENDBRANCH  18  24
ENDBRANCH   1  18
TORSDOF 9
