REMARK  Name = ZINC04083651
REMARK  6 active torsions:
REMARK  status: ('A' for Active; 'I' for Inactive)
REMARK    1  A    between atoms: C_1  and  O_2
REMARK    2  A    between atoms: O_2  and  C_3
REMARK    3  A    between atoms: C_6  and  C_11
REMARK    4  A    between atoms: C_8  and  O_9
REMARK    5  A    between atoms: O_9  and  C_10
REMARK    6  A    between atoms: C_16  and  C_26
REMARK                            x       y       z     vdW  Elec       q    Type
REMARK                         _______ _______ _______ _____ _____    ______ ____
ROOT
ATOM      1  C   UNL     1       1.586  -0.460   0.541  0.00  0.00    +0.032 C 
ATOM      2  C   UNL     1       2.718   0.275  -0.176  0.00  0.00    +0.059 C 
ATOM      3  C   UNL     1       2.511   1.776  -0.066  0.00  0.00    +0.017 C 
ATOM      4  C   UNL     1       1.271   2.291  -0.035  0.00  0.00    +0.036 C 
ATOM      5  C   UNL     1       0.922   3.759   0.049  0.00  0.00    +0.136 C 
ATOM      6  N   UNL     1       2.040   4.622   0.365  0.00  0.00    -0.331 N 
ATOM      7  C   UNL     1       3.117   4.758  -0.511  0.00  0.00    +0.049 A 
ATOM      8  C   UNL     1       3.362   5.947  -1.177  0.00  0.00    +0.025 A 
ATOM      9  C   UNL     1       4.375   6.003  -2.118  0.00  0.00    +0.002 A 
ATOM     10  C   UNL     1       5.139   4.883  -2.392  0.00  0.00    +0.002 A 
ATOM     11  C   UNL     1       4.910   3.699  -1.713  0.00  0.00    +0.025 A 
ATOM     12  C   UNL     1       3.908   3.646  -0.759  0.00  0.00    +0.052 A 
ATOM     13  N   UNL     1       3.656   2.504  -0.008  0.00  0.00    -0.316 N 
ATOM     14  C   UNL     1       0.143   1.438  -0.079  0.00  0.00    +0.163 C 
ATOM     15  O   UNL     1      -0.967   1.933  -0.080  0.00  0.00    -0.292 OA
ATOM     16  C   UNL     1       0.269  -0.056  -0.131  0.00  0.00    +0.088 C 
ATOM     17  H   UNL     1       2.041   5.116   1.200  0.00  0.00    +0.147 HD
ATOM     18  H   UNL     1       4.348   2.204   0.601  0.00  0.00    +0.152 HD
ENDROOT
BRANCH   5  19
ATOM     19  C   UNL     1       0.344   4.189  -1.274  0.00  0.00    -0.021 A 
ATOM     20  C   UNL     1       1.133   4.180  -2.409  0.00  0.00    +0.007 A 
ATOM     21  C   UNL     1       0.604   4.574  -3.623  0.00  0.00    +0.022 A 
ATOM     22  C   UNL     1      -0.717   4.979  -3.703  0.00  0.00    +0.059 A 
ATOM     23  C   UNL     1      -1.507   4.988  -2.567  0.00  0.00    +0.060 A 
ATOM     24  C   UNL     1      -0.977   4.588  -1.353  0.00  0.00    +0.027 A 
ATOM     25 CL   UNL     1      -3.164   5.496  -2.665  0.00  0.00    -0.082 Cl
ATOM     26 CL   UNL     1      -1.383   5.474  -5.228  0.00  0.00    -0.082 Cl
ENDBRANCH   5  19
BRANCH   1  30
ATOM     27  C   UNL     1       2.152  -4.684   0.196  0.00  0.00    +0.161 A 
ATOM     28  C   UNL     1       2.042  -3.902  -0.942  0.00  0.00    +0.049 A 
ATOM     29  C   UNL     1       1.859  -2.537  -0.827  0.00  0.00    +0.008 A 
ATOM     30  C   UNL     1       1.785  -1.949   0.422  0.00  0.00    -0.040 A 
ATOM     31  C   UNL     1       1.899  -2.723   1.562  0.00  0.00    +0.053 A 
ATOM     32  C   UNL     1       2.077  -4.093   1.454  0.00  0.00    +0.162 A 
BRANCH  27  34
ATOM     33  C   UNL     1       2.400  -6.566  -1.237  0.00  0.00    +0.277 C 
ATOM     34  O   UNL     1       2.332  -6.028   0.085  0.00  0.00    -0.491 OA
ENDBRANCH  27  34
BRANCH  32  35
ATOM     35  O   UNL     1       2.184  -4.856   2.574  0.00  0.00    -0.491 OA
ATOM     36  C   UNL     1       2.099  -4.181   3.830  0.00  0.00    +0.277 C 
ENDBRANCH  32  35
ENDBRANCH   1  30
TORSDOF 4
