REMARK  Name = ZINC12325427
REMARK  8 active torsions:
REMARK  status: ('A' for Active; 'I' for Inactive)
REMARK    1  A    between atoms: C_1  and  N_49
REMARK    2  A    between atoms: C_2  and  N_49
REMARK    3  A    between atoms: C_3  and  C_5
REMARK    4  A    between atoms: C_3  and  C_21
REMARK    5  A    between atoms: C_3  and  N_49
REMARK    6  A    between atoms: C_5  and  N_6
REMARK    7  A    between atoms: N_6  and  S_7
REMARK    8  A    between atoms: S_7  and  C_10
REMARK                            x       y       z     vdW  Elec       q    Type
REMARK                         _______ _______ _______ _____ _____    ______ ____
ROOT
ATOM      1  N   UNL     1       1.584   7.745   3.168  0.00  0.00    -0.191 NA
ATOM      2  H   UNL     1       1.214   8.329   3.849  0.00  0.00    +0.148 HD
ENDROOT
BRANCH   1   3
ATOM      3  S   UNL     1       0.618   6.626   2.422  0.00  0.00    +0.058 S 
ATOM      4  O   UNL     1       0.836   6.768   1.025  0.00  0.00    -0.153 OA
ATOM      5  O   UNL     1      -0.671   6.747   3.008  0.00  0.00    -0.153 OA
BRANCH   3   6
ATOM      6  C   UNL     1       1.226   5.034   2.868  0.00  0.00    +0.106 A 
ATOM      7  C   UNL     1       2.189   4.420   2.088  0.00  0.00    +0.030 A 
ATOM      8  C   UNL     1       2.668   3.171   2.435  0.00  0.00    +0.025 A 
ATOM      9  C   UNL     1       2.181   2.533   3.568  0.00  0.00    +0.037 A 
ATOM     10  C   UNL     1       1.214   3.152   4.348  0.00  0.00    -0.024 A 
ATOM     11  C   UNL     1       0.739   4.400   3.997  0.00  0.00    +0.034 A 
ATOM     12  C   UNL     1       0.686   2.460   5.578  0.00  0.00    +0.046 C 
ATOM     13  C   UNL     1       0.648   0.948   5.334  0.00  0.00    +0.101 C 
ATOM     14  C   UNL     1       1.967   0.490   4.772  0.00  0.00    +0.218 C 
ATOM     15  O   UNL     1       2.406  -0.597   5.084  0.00  0.00    -0.275 OA
ATOM     16  N   UNL     1       2.662   1.270   3.924  0.00  0.00    -0.285 N 
ATOM     17  H   UNL     1       3.503   0.954   3.558  0.00  0.00    +0.155 HD
ENDBRANCH   3   6
ENDBRANCH   1   3
BRANCH   1  18
ATOM     18  C   UNL     1       2.997   7.855   2.799  0.00  0.00    +0.095 C 
BRANCH  18  19
ATOM     19  C   UNL     1       3.540   9.211   3.254  0.00  0.00    -0.021 C 
BRANCH  19  20
ATOM     20  C   UNL     1       5.003   9.309   2.909  0.00  0.00    -0.041 A 
ATOM     21  C   UNL     1       5.411  10.086   1.841  0.00  0.00    +0.003 A 
ATOM     22  C   UNL     1       6.754  10.179   1.526  0.00  0.00    +0.000 A 
ATOM     23  C   UNL     1       7.689   9.487   2.273  0.00  0.00    +0.001 A 
ATOM     24  C   UNL     1       7.282   8.705   3.338  0.00  0.00    +0.020 A 
ATOM     25  C   UNL     1       5.938   8.616   3.656  0.00  0.00    +0.043 A 
ATOM     26 CL   UNL     1       5.426   7.633   4.993  0.00  0.00    -0.083 Cl
ENDBRANCH  19  20
BRANCH  19  29
ATOM     27  C   UNL     1       2.554   9.946   1.168  0.00  0.00    -0.096 C 
ATOM     28  C   UNL     1       1.547  10.587   3.275  0.00  0.00    -0.096 C 
ATOM     29  N   UNL     1       2.820  10.309   2.576  0.00  0.00    +0.381 N 
ATOM     30  H   UNL     1       3.403  11.154   2.598  0.00  0.00    -0.082 HD
ENDBRANCH  19  29
ENDBRANCH  18  19
ENDBRANCH   1  18
TORSDOF 6
