REMARK  Name = ZINC37929012
REMARK  4 active torsions:
REMARK  status: ('A' for Active; 'I' for Inactive)
REMARK    1  A    between atoms: C_1  and  C_2
REMARK    2  A    between atoms: N_7  and  S_8
REMARK    3  A    between atoms: S_8  and  C_11
REMARK    4  A    between atoms: C_16  and  N_17
REMARK                            x       y       z     vdW  Elec       q    Type
REMARK                         _______ _______ _______ _____ _____    ______ ____
ROOT
ATOM      1  S   UNL     1       0.075  -4.553   1.809  0.00  0.00    +0.103 S 
ATOM      2  O   UNL     1      -1.169  -4.864   1.196  0.00  0.00    -0.146 OA
ATOM      3  O   UNL     1       1.321  -4.829   1.185  0.00  0.00    -0.146 OA
ENDROOT
BRANCH   1  10
ATOM      4  C   UNL     1      -0.018   1.503   0.010  0.00  0.00    +0.064 C 
ATOM      5  C   UNL     1       0.002  -0.004   0.002  0.00  0.00    +0.022 A 
ATOM      6  C   UNL     1       0.006  -0.662  -1.157  0.00  0.00    +0.069 A 
ATOM      7  S   UNL     1       0.032  -2.365  -0.622  0.00  0.00    -0.057 S 
ATOM      8  C   UNL     1       0.036  -2.068   1.139  0.00  0.00    +0.192 A 
ATOM      9  N   UNL     1       0.023  -0.690   1.181  0.00  0.00    -0.336 N 
ATOM     10  N   UNL     1       0.053  -2.928   2.127  0.00  0.00    -0.103 NA
ATOM     11  H   UNL     1       0.024  -0.220   2.029  0.00  0.00    +0.168 HD
ENDBRANCH   1  10
BRANCH   1  12
ATOM     12  C   UNL     1       0.094  -5.388   3.361  0.00  0.00    +0.136 A 
ATOM     13  C   UNL     1      -0.975  -6.180   3.733  0.00  0.00    +0.069 A 
ATOM     14  C   UNL     1      -0.961  -6.836   4.952  0.00  0.00    +0.125 A 
ATOM     15  C   UNL     1       0.125  -6.699   5.802  0.00  0.00    +0.040 A 
ATOM     16  C   UNL     1       1.195  -5.908   5.434  0.00  0.00    +0.027 A 
ATOM     17  C   UNL     1       1.185  -5.254   4.209  0.00  0.00    +0.052 A 
ATOM     18  F   UNL     1      -2.007  -7.611   5.314  0.00  0.00    -0.205 F 
BRANCH  17  19
ATOM     19  N   UNL     1       2.271  -4.457   3.832  0.00  0.00    -0.356 N 
ATOM     20  H   UNL     1       2.261  -3.997   2.978  0.00  0.00    +0.142 HD
ATOM     21  H   UNL     1       3.033  -4.364   4.425  0.00  0.00    +0.142 HD
ENDBRANCH  17  19
ENDBRANCH   1  12
TORSDOF 3
