REMARK  Name = ZINC06602277
REMARK  5 active torsions:
REMARK  status: ('A' for Active; 'I' for Inactive)
REMARK    1  A    between atoms: C_1  and  C_2
REMARK    2  A    between atoms: C_5  and  S_20
REMARK    3  A    between atoms: C_7  and  N_8
REMARK    4  A    between atoms: C_9  and  C_11
REMARK    5  A    between atoms: S_20  and  N_23
REMARK                            x       y       z     vdW  Elec       q    Type
REMARK                         _______ _______ _______ _____ _____    ______ ____
ROOT
ATOM      1  C   UNL     1      -3.224   3.099  -4.809  0.00  0.00    +0.045 C 
ATOM      2  C   UNL     1      -2.415   2.683  -3.608  0.00  0.00    -0.029 A 
ATOM      3  C   UNL     1      -2.595   1.430  -3.054  0.00  0.00    +0.007 A 
ATOM      4  C   UNL     1      -1.849   1.045  -1.955  0.00  0.00    +0.029 A 
ATOM      5  C   UNL     1      -0.928   1.915  -1.401  0.00  0.00    +0.107 A 
ATOM      6  C   UNL     1      -0.743   3.169  -1.950  0.00  0.00    +0.052 A 
ATOM      7  C   UNL     1      -1.487   3.557  -3.057  0.00  0.00    +0.038 A 
ENDROOT
BRANCH   7   8
ATOM      8  N   UNL     1      -1.302   4.826  -3.616  0.00  0.00    -0.281 N 
ATOM      9  C   UNL     1      -1.016   5.876  -2.822  0.00  0.00    +0.255 C 
ATOM     10  O   UNL     1      -0.837   5.707  -1.630  0.00  0.00    -0.269 OA
ATOM     11  H   UNL     1      -1.380   4.949  -4.575  0.00  0.00    +0.155 HD
BRANCH   9  12
ATOM     12  C   UNL     1      -0.920   7.222  -3.393  0.00  0.00    +0.075 A 
ATOM     13  C   UNL     1      -0.640   8.420  -2.762  0.00  0.00    +0.024 A 
ATOM     14  C   UNL     1      -0.605   9.572  -3.530  0.00  0.00    -0.036 A 
ATOM     15  C   UNL     1      -0.853   9.429  -4.866  0.00  0.00    -0.006 A 
ATOM     16  S   UNL     1      -1.126   7.743  -5.088  0.00  0.00    -0.088 S 
ATOM     17  C   UNL     1      -0.875  10.510  -5.902  0.00  0.00    +0.043 C 
ATOM     18  C   UNL     1      -0.943  11.866  -5.184  0.00  0.00    +0.005 C 
ATOM     19  C   UNL     1       0.110  11.889  -4.073  0.00  0.00    +0.005 C 
ATOM     20  C   UNL     1      -0.306  10.948  -2.941  0.00  0.00    +0.036 C 
ENDBRANCH   9  12
ENDBRANCH   7   8
BRANCH   5  21
ATOM     21  S   UNL     1       0.015   1.422   0.003  0.00  0.00    +0.061 S 
ATOM     22  O   UNL     1       0.045   0.001  -0.007  0.00  0.00    -0.153 OA
ATOM     23  O   UNL     1       1.199   2.208  -0.006  0.00  0.00    -0.153 OA
BRANCH  21  24
ATOM     24  N   UNL     1      -0.839   1.868   1.349  0.00  0.00    -0.177 NA
ATOM     25  C   UNL     1      -0.635   3.188   1.961  0.00  0.00    +0.109 C 
ATOM     26  C   UNL     1      -1.998   3.886   2.084  0.00  0.00    +0.017 C 
ATOM     27  C   UNL     1      -2.961   2.978   2.854  0.00  0.00    +0.003 C 
ATOM     28  C   UNL     1      -3.158   1.670   2.084  0.00  0.00    +0.017 C 
ATOM     29  C   UNL     1      -1.812   0.950   1.957  0.00  0.00    +0.109 C 
ENDBRANCH  21  24
ENDBRANCH   5  21
TORSDOF 4
