REMARK  Name = ZINC36205952
REMARK  17 active torsions:
REMARK  status: ('A' for Active; 'I' for Inactive)
REMARK    1  A    between atoms: C_1  and  C_2
REMARK    2  A    between atoms: C_2  and  O_3
REMARK    3  A    between atoms: O_3  and  C_4
REMARK    4  A    between atoms: C_4  and  C_5
REMARK    5  A    between atoms: C_5  and  C_7
REMARK    6  A    between atoms: C_5  and  O_34
REMARK    7  A    between atoms: C_7  and  N_8
REMARK    8  A    between atoms: N_8  and  C_9
REMARK    9  A    between atoms: N_8  and  C_31
REMARK   10  A    between atoms: C_9  and  C_10
REMARK   11  A    between atoms: C_16  and  C_21
REMARK   12  A    between atoms: C_24  and  O_29
REMARK   13  A    between atoms: C_25  and  O_27
REMARK   14  A    between atoms: O_27  and  C_28
REMARK   15  A    between atoms: O_29  and  C_30
REMARK   16  A    between atoms: C_31  and  C_32
REMARK   17  A    between atoms: C_31  and  C_33
REMARK                            x       y       z     vdW  Elec       q    Type
REMARK                         _______ _______ _______ _____ _____    ______ ____
ROOT
ATOM      1  C   UNL     1      -5.872  -5.048   1.790  0.00  0.00    +0.094 A 
ATOM      2  N   UNL     1      -6.101  -5.985   2.746  0.00  0.00    -0.312 N 
ATOM      3  H   UNL     1      -5.466  -6.709   2.863  0.00  0.00    +0.170 HD
ATOM      4  C   UNL     1      -7.190  -5.928   3.535  0.00  0.00    +0.260 A 
ATOM      5  O   UNL     1      -7.380  -6.777   4.389  0.00  0.00    -0.267 OA
ATOM      6  C   UNL     1      -8.121  -4.856   3.356  0.00  0.00    +0.080 A 
ATOM      7  C   UNL     1      -9.358  -4.579   4.075  0.00  0.00    +0.004 A 
ATOM      8  C   UNL     1     -10.085  -3.490   3.726  0.00  0.00    +0.056 A 
ATOM      9  S   UNL     1      -9.138  -2.770   2.398  0.00  0.00    -0.076 S 
ATOM     10  C   UNL     1      -7.801  -3.936   2.344  0.00  0.00    +0.116 A 
ATOM     11  N   UNL     1      -6.701  -4.056   1.606  0.00  0.00    -0.229 NA
ENDROOT
BRANCH   7  12
ATOM     12  C   UNL     1      -9.813  -5.472   5.168  0.00  0.00    -0.013 A 
ATOM     13  C   UNL     1      -9.867  -6.850   4.966  0.00  0.00    +0.012 A 
ATOM     14  C   UNL     1     -10.291  -7.681   5.984  0.00  0.00    +0.050 A 
ATOM     15  C   UNL     1     -10.663  -7.147   7.208  0.00  0.00    +0.162 A 
ATOM     16  C   UNL     1     -10.610  -5.771   7.415  0.00  0.00    +0.162 A 
ATOM     17  C   UNL     1     -10.182  -4.935   6.400  0.00  0.00    +0.058 A 
BRANCH  16  18
ATOM     18  O   UNL     1     -10.976  -5.250   8.617  0.00  0.00    -0.491 OA
ATOM     19  C   UNL     1     -10.897  -3.830   8.760  0.00  0.00    +0.277 C 
ENDBRANCH  16  18
BRANCH  15  20
ATOM     20  O   UNL     1     -11.081  -7.969   8.208  0.00  0.00    -0.491 OA
ATOM     21  C   UNL     1     -11.110  -9.370   7.927  0.00  0.00    +0.277 C 
ENDBRANCH  15  20
ENDBRANCH   7  12
BRANCH   1  22
ATOM     22  C   UNL     1      -4.639  -5.152   0.931  0.00  0.00    -0.003 C 
BRANCH  22  23
ATOM     23  N   UNL     1      -4.697  -4.142  -0.134  0.00  0.00    +0.388 N 
ATOM     24  H   UNL     1      -5.097  -3.291   0.232  0.00  0.00    -0.081 HD
BRANCH  23  25
ATOM     25  C   UNL     1      -5.530  -4.640  -1.237  0.00  0.00    -0.074 C 
ATOM     26  C   UNL     1      -4.925  -5.933  -1.789  0.00  0.00    -0.014 C 
ATOM     27  C   UNL     1      -6.944  -4.918  -0.723  0.00  0.00    -0.014 C 
ENDBRANCH  23  25
BRANCH  23  28
ATOM     28  C   UNL     1      -3.340  -3.873  -0.628  0.00  0.00    -0.044 C 
BRANCH  28  29
ATOM     29  C   UNL     1      -3.380  -2.706  -1.617  0.00  0.00    +0.124 C 
BRANCH  29  30
ATOM     30  O   UNL     1      -4.057  -3.114  -2.808  0.00  0.00    -0.391 OA
ATOM     31  H   UNL     1      -3.682  -3.902  -3.223  0.00  0.00    +0.210 HD
ENDBRANCH  29  30
BRANCH  29  32
ATOM     32  C   UNL     1      -1.951  -2.282  -1.963  0.00  0.00    +0.189 C 
BRANCH  32  33
ATOM     33  O   UNL     1      -1.987  -1.120  -2.794  0.00  0.00    -0.378 OA
BRANCH  33  35
ATOM     34  C   UNL     1      -0.856   0.600  -4.060  0.00  0.00    +0.034 C 
ATOM     35  C   UNL     1      -0.697  -0.639  -3.177  0.00  0.00    +0.156 C 
ENDBRANCH  33  35
ENDBRANCH  32  33
ENDBRANCH  29  32
ENDBRANCH  28  29
ENDBRANCH  23  28
ENDBRANCH  22  23
ENDBRANCH   1  22
TORSDOF 12
