REMARK  Name = ZINC16758538
REMARK  8 active torsions:
REMARK  status: ('A' for Active; 'I' for Inactive)
REMARK    1  A    between atoms: C_1  and  C_2
REMARK    2  A    between atoms: N_13  and  C_30
REMARK    3  A    between atoms: C_14  and  S_16
REMARK    4  A    between atoms: S_16  and  C_17
REMARK    5  A    between atoms: C_17  and  C_18
REMARK    6  A    between atoms: C_21  and  C_27
REMARK    7  A    between atoms: C_23  and  N_24
REMARK    8  A    between atoms: C_30  and  C_31
REMARK                            x       y       z     vdW  Elec       q    Type
REMARK                         _______ _______ _______ _____ _____    ______ ____
ROOT
ATOM      1  C   UNL     1       1.660 -12.632   1.384  0.00  0.00    +0.008 C 
ATOM      2  C   UNL     1       1.956 -11.248   0.802  0.00  0.00    -0.009 C 
ATOM      3  C   UNL     1       1.248 -11.095  -0.547  0.00  0.00    +0.008 C 
ATOM      4  C   UNL     1       1.732  -9.825  -1.247  0.00  0.00    +0.037 C 
ATOM      5  C   UNL     1       1.585  -8.647  -0.288  0.00  0.00    -0.023 A 
ATOM      6  C   UNL     1       1.455  -8.851   1.038  0.00  0.00    -0.004 A 
ATOM      7  S   UNL     1       1.317  -7.230   1.742  0.00  0.00    -0.073 S 
ATOM      8  C   UNL     1       1.436  -6.280   0.248  0.00  0.00    +0.117 A 
ATOM      9  C   UNL     1       1.577  -7.258  -0.751  0.00  0.00    +0.076 A 
ATOM     10  C   UNL     1       1.696  -6.769  -2.090  0.00  0.00    +0.263 A 
ATOM     11  O   UNL     1       1.823  -7.544  -3.022  0.00  0.00    -0.267 OA
ATOM     12  N   UNL     1       1.667  -5.441  -2.306  0.00  0.00    -0.283 N 
ATOM     13  C   UNL     1       1.527  -4.558  -1.275  0.00  0.00    +0.173 A 
ATOM     14  N   UNL     1       1.420  -4.982  -0.032  0.00  0.00    -0.216 NA
ATOM     15  C   UNL     1       1.433 -10.166   1.757  0.00  0.00    +0.046 C 
ENDROOT
BRANCH  13  16
ATOM     16  S   UNL     1       1.496  -2.828  -1.609  0.00  0.00    -0.083 S 
BRANCH  16  17
ATOM     17  C   UNL     1       1.298  -2.187   0.072  0.00  0.00    +0.114 C 
BRANCH  17  18
ATOM     18  C   UNL     1       1.245  -0.681   0.032  0.00  0.00    -0.007 A 
ATOM     19  C   UNL     1       2.417   0.051   0.101  0.00  0.00    +0.007 A 
ATOM     20  C   UNL     1       2.375   1.430   0.064  0.00  0.00    +0.013 A 
ATOM     21  C   UNL     1       1.147   2.085  -0.043  0.00  0.00    +0.039 A 
ATOM     22  C   UNL     1      -0.031   1.341  -0.112  0.00  0.00    +0.046 A 
ATOM     23  C   UNL     1       0.025  -0.038  -0.074  0.00  0.00    +0.131 A 
BRANCH  21  24
ATOM     24  C   UNL     1       1.095   3.562  -0.082  0.00  0.00    +0.242 C 
ATOM     25  O   UNL     1       0.025   4.131  -0.174  0.00  0.00    -0.270 OA
ATOM     26  N   UNL     1       2.235   4.279  -0.015  0.00  0.00    -0.325 N 
ATOM     27  H   UNL     1       3.089   3.825   0.059  0.00  0.00    +0.145 HD
ATOM     28  H   UNL     1       2.201   5.248  -0.041  0.00  0.00    +0.145 HD
ENDBRANCH  21  24
BRANCH  23  29
ATOM     29  N   UNL     1      -1.224  -0.829  -0.148  0.00  0.00    +0.057 N 
ATOM     30  O   UNL     1      -1.244  -1.879  -0.765  0.00  0.00    -0.126 OA
ATOM     31  O   UNL     1      -2.231  -0.431   0.409  0.00  0.00    -0.126 OA
ENDBRANCH  23  29
ENDBRANCH  17  18
ENDBRANCH  16  17
ENDBRANCH  13  16
BRANCH  12  32
ATOM     32  C   UNL     1       1.788  -4.933  -3.675  0.00  0.00    +0.154 C 
BRANCH  32  33
ATOM     33  C   UNL     1       3.242  -4.704  -3.999  0.00  0.00    -0.013 C 
ATOM     34  C   UNL     1       3.775  -5.271  -5.053  0.00  0.00    +0.005 C 
ENDBRANCH  32  33
ENDBRANCH  12  32
TORSDOF 7
