REMARK  Name = ZINC35550766
REMARK  10 active torsions:
REMARK  status: ('A' for Active; 'I' for Inactive)
REMARK    1  A    between atoms: C_1  and  C_2
REMARK    2  A    between atoms: C_2  and  C_4
REMARK    3  A    between atoms: C_2  and  N_7
REMARK    4  A    between atoms: C_4  and  O_5
REMARK    5  A    between atoms: O_5  and  C_6
REMARK    6  A    between atoms: C_8  and  C_28
REMARK    7  A    between atoms: N_12  and  C_13
REMARK    8  A    between atoms: C_16  and  S_19
REMARK    9  A    between atoms: S_19  and  N_22
REMARK   10  A    between atoms: C_31  and  N_34
REMARK                            x       y       z     vdW  Elec       q    Type
REMARK                         _______ _______ _______ _____ _____    ______ ____
ROOT
ATOM      1  N   UNL     1      -1.307  -0.581   0.086  0.00  0.00    -0.317 N 
ATOM      2  C   UNL     1      -1.859  -0.820  -1.101  0.00  0.00    +0.058 A 
ATOM      3  C   UNL     1      -3.221  -0.848  -1.211  0.00  0.00    +0.074 A 
ATOM      4  S   UNL     1      -3.700  -0.514   0.479  0.00  0.00    -0.062 S 
ATOM      5  C   UNL     1      -2.052  -0.377   1.157  0.00  0.00    +0.144 A 
ATOM      6  N   UNL     1      -1.659  -0.122   2.462  0.00  0.00    -0.295 N 
ATOM      7  H   UNL     1      -0.721   0.012   2.670  0.00  0.00    +0.154 HD
ENDROOT
BRANCH   6   8
ATOM      8  C   UNL     1      -2.615  -0.059   3.480  0.00  0.00    +0.033 A 
ATOM      9  C   UNL     1      -3.744  -0.867   3.426  0.00  0.00    +0.025 A 
ATOM     10  C   UNL     1      -4.687  -0.802   4.433  0.00  0.00    +0.030 A 
ATOM     11  C   UNL     1      -4.509   0.067   5.494  0.00  0.00    +0.106 A 
ATOM     12  C   UNL     1      -3.386   0.873   5.551  0.00  0.00    +0.030 A 
ATOM     13  C   UNL     1      -2.437   0.808   4.550  0.00  0.00    +0.025 A 
BRANCH  11  14
ATOM     14  S   UNL     1      -5.714   0.146   6.777  0.00  0.00    +0.061 S 
ATOM     15  O   UNL     1      -5.584   1.428   7.377  0.00  0.00    -0.153 OA
ATOM     16  O   UNL     1      -6.936  -0.311   6.215  0.00  0.00    -0.153 OA
BRANCH  14  17
ATOM     17  N   UNL     1      -5.278  -0.961   7.928  0.00  0.00    -0.172 NA
ATOM     18  C   UNL     1      -5.759  -2.351   7.862  0.00  0.00    +0.137 C 
ATOM     19  C   UNL     1      -4.553  -3.287   8.003  0.00  0.00    +0.177 C 
ATOM     20  O   UNL     1      -3.811  -2.926   9.171  0.00  0.00    -0.377 OA
ATOM     21  C   UNL     1      -3.259  -1.607   9.129  0.00  0.00    +0.177 C 
ATOM     22  C   UNL     1      -4.394  -0.587   9.043  0.00  0.00    +0.137 C 
ENDBRANCH  14  17
ENDBRANCH  11  14
ENDBRANCH   6   8
BRANCH   2  23
ATOM     23  C   UNL     1      -1.006  -1.052  -2.291  0.00  0.00    -0.001 A 
ATOM     24  C   UNL     1      -1.364  -2.017  -3.231  0.00  0.00    +0.012 A 
ATOM     25  C   UNL     1      -0.567  -2.228  -4.337  0.00  0.00    +0.033 A 
ATOM     26  C   UNL     1       0.586  -1.485  -4.514  0.00  0.00    +0.126 A 
ATOM     27  C   UNL     1       0.947  -0.526  -3.584  0.00  0.00    +0.033 A 
ATOM     28  C   UNL     1       0.154  -0.302  -2.477  0.00  0.00    +0.012 A 
BRANCH  26  29
ATOM     29  N   UNL     1       1.438  -1.717  -5.703  0.00  0.00    +0.056 N 
ATOM     30  O   UNL     1       1.126  -2.554  -6.516  0.00  0.00    -0.126 OA
ATOM     31  O   UNL     1       2.447  -1.068  -5.860  0.00  0.00    -0.126 OA
ENDBRANCH  26  29
ENDBRANCH   2  23
BRANCH   1  33
ATOM     32  C   UNL     1       0.601   0.854   0.619  0.00  0.00    +0.033 C 
ATOM     33  C   UNL     1       0.153  -0.550   0.208  0.00  0.00    +0.112 C 
BRANCH  33  34
ATOM     34  C   UNL     1       0.598  -1.558   1.270  0.00  0.00    +0.184 C 
BRANCH  34  35
ATOM     35  O   UNL     1       0.283  -2.881   0.832  0.00  0.00    -0.381 OA
ATOM     36  C   UNL     1       0.659  -3.904   1.756  0.00  0.00    +0.194 C 
ENDBRANCH  34  35
ENDBRANCH  33  34
ENDBRANCH   1  33
TORSDOF 8
