REMARK  Name = ZINC36146582
REMARK  12 active torsions:
REMARK  status: ('A' for Active; 'I' for Inactive)
REMARK    1  A    between atoms: C_1  and  C_2
REMARK    2  A    between atoms: C_5  and  C_8
REMARK    3  A    between atoms: C_11  and  C_14
REMARK    4  A    between atoms: C_14  and  N_15
REMARK    5  A    between atoms: N_15  and  C_16
REMARK    6  A    between atoms: N_15  and  C_24
REMARK    7  A    between atoms: C_16  and  C_17
REMARK    8  A    between atoms: C_24  and  C_25
REMARK    9  A    between atoms: C_25  and  C_27
REMARK   10  A    between atoms: C_25  and  O_35
REMARK   11  A    between atoms: C_27  and  O_28
REMARK   12  A    between atoms: O_28  and  C_29
REMARK                            x       y       z     vdW  Elec       q    Type
REMARK                         _______ _______ _______ _____ _____    ______ ____
ROOT
ATOM      1  N   UNL     1       0.735  -9.065   0.858  0.00  0.00    +0.387 N 
ATOM      2  H   UNL     1       1.591  -9.537   0.607  0.00  0.00    -0.081 HD
ENDROOT
BRANCH   1   3
ATOM      3  C   UNL     1       1.012  -8.073   1.907  0.00  0.00    -0.030 C 
BRANCH   3   7
ATOM      4  C   UNL     1       3.066  -5.037   1.754  0.00  0.00    +0.091 C 
ATOM      5  N   UNL     1       2.747  -5.266   0.525  0.00  0.00    -0.089 NA
ATOM      6  O   UNL     1       2.047  -6.483   0.357  0.00  0.00    -0.392 OA
ATOM      7  C   UNL     1       2.268  -7.280   1.539  0.00  0.00    +0.194 C 
ATOM      8  C   UNL     1       2.572  -6.196   2.598  0.00  0.00    +0.104 C 
BRANCH   4  13
ATOM      9  C   UNL     1       5.898  -0.420   3.695  0.00  0.00    +0.044 C 
ATOM     10  C   UNL     1       5.156  -1.630   3.187  0.00  0.00    -0.050 A 
ATOM     11  C   UNL     1       4.872  -1.747   1.837  0.00  0.00    +0.004 A 
ATOM     12  C   UNL     1       4.194  -2.851   1.365  0.00  0.00    +0.010 A 
ATOM     13  C   UNL     1       3.793  -3.852   2.252  0.00  0.00    -0.000 A 
ATOM     14  C   UNL     1       4.083  -3.728   3.612  0.00  0.00    +0.010 A 
ATOM     15  C   UNL     1       4.767  -2.621   4.070  0.00  0.00    +0.004 A 
ENDBRANCH   4  13
ENDBRANCH   3   7
ENDBRANCH   1   3
BRANCH   1  16
ATOM     16  C   UNL     1       0.185  -8.387  -0.323  0.00  0.00    -0.043 C 
BRANCH  16  17
ATOM     17  C   UNL     1      -1.021  -7.577   0.078  0.00  0.00    -0.063 A 
ATOM     18  C   UNL     1      -2.261  -8.182   0.167  0.00  0.00    +0.002 A 
ATOM     19  C   UNL     1      -3.368  -7.440   0.535  0.00  0.00    +0.002 A 
ATOM     20  C   UNL     1      -3.235  -6.092   0.814  0.00  0.00    +0.020 A 
ATOM     21  C   UNL     1      -1.995  -5.487   0.725  0.00  0.00    +0.041 A 
ATOM     22  C   UNL     1      -0.886  -6.231   0.362  0.00  0.00    +0.021 A 
ATOM     23 CL   UNL     1      -1.828  -3.795   1.074  0.00  0.00    -0.084 Cl
ENDBRANCH  16  17
ENDBRANCH   1  16
BRANCH   1  24
ATOM     24  C   UNL     1      -0.238 -10.046   1.357  0.00  0.00    -0.043 C 
BRANCH  24  25
ATOM     25  C   UNL     1      -0.221 -11.283   0.458  0.00  0.00    +0.135 C 
BRANCH  25  26
ATOM     26  O   UNL     1      -0.723 -10.940  -0.835  0.00  0.00    -0.390 OA
ATOM     27  H   UNL     1      -1.627 -10.599  -0.828  0.00  0.00    +0.210 HD
ENDBRANCH  25  26
BRANCH  25  28
ATOM     28  C   UNL     1      -1.101 -12.373   1.073  0.00  0.00    +0.258 C 
BRANCH  28  29
ATOM     29  O   UNL     1      -0.994 -13.568   0.296  0.00  0.00    -0.489 OA
BRANCH  29  30
ATOM     30  C   UNL     1      -1.718 -14.640   0.710  0.00  0.00    +0.121 A 
ATOM     31  C   UNL     1      -2.521 -14.543   1.837  0.00  0.00    +0.045 A 
ATOM     32  C   UNL     1      -3.257 -15.635   2.256  0.00  0.00    +0.004 A 
ATOM     33  C   UNL     1      -3.194 -16.823   1.552  0.00  0.00    +0.000 A 
ATOM     34  C   UNL     1      -2.394 -16.923   0.429  0.00  0.00    +0.004 A 
ATOM     35  C   UNL     1      -1.661 -15.832   0.003  0.00  0.00    +0.045 A 
ENDBRANCH  29  30
ENDBRANCH  28  29
ENDBRANCH  25  28
ENDBRANCH  24  25
ENDBRANCH   1  24
TORSDOF 11
