REMARK  Name = ZINC13226152
REMARK  4 active torsions:
REMARK  status: ('A' for Active; 'I' for Inactive)
REMARK    1  A    between atoms: C_3  and  N_24
REMARK    2  A    between atoms: C_4  and  C_8
REMARK    3  A    between atoms: N_10  and  C_11
REMARK    4  A    between atoms: C_16  and  C_17
REMARK                            x       y       z     vdW  Elec       q    Type
REMARK                         _______ _______ _______ _____ _____    ______ ____
ROOT
ATOM      1  C   UNL     1      -1.150   1.838   1.113  0.00  0.00    +0.251 C 
ATOM      2  O   UNL     1      -1.165   2.804   1.852  0.00  0.00    -0.270 OA
ATOM      3  N   UNL     1      -2.305   1.356   0.612  0.00  0.00    -0.281 N 
ATOM      4  H   UNL     1      -2.303   0.537   0.092  0.00  0.00    +0.155 HD
ENDROOT
BRANCH   3   5
ATOM      5  C   UNL     1      -3.501   2.032   0.843  0.00  0.00    +0.052 A 
ATOM      6  C   UNL     1      -3.494   3.404   1.052  0.00  0.00    +0.073 A 
ATOM      7  C   UNL     1      -4.686   4.072   1.276  0.00  0.00    +0.164 A 
ATOM      8  C   UNL     1      -5.891   3.376   1.305  0.00  0.00    +0.163 A 
ATOM      9  C   UNL     1      -5.913   2.012   1.103  0.00  0.00    +0.066 A 
ATOM     10  C   UNL     1      -4.714   1.326   0.870  0.00  0.00    +0.088 A 
ATOM     11  O   UNL     1      -7.055   4.052   1.534  0.00  0.00    -0.488 OA
ATOM     12  C   UNL     1      -7.474   4.944   0.500  0.00  0.00    +0.232 C 
ATOM     13  C   UNL     1      -6.791   6.295   0.644  0.00  0.00    +0.082 C 
ATOM     14  C   UNL     1      -5.286   6.207   0.447  0.00  0.00    +0.232 C 
ATOM     15  O   UNL     1      -4.685   5.421   1.477  0.00  0.00    -0.488 OA
BRANCH  10  16
ATOM     16  C   UNL     1      -4.727  -0.129   0.654  0.00  0.00    +0.388 C 
ATOM     17  O   UNL     1      -3.679  -0.738   0.556  0.00  0.00    -0.241 OA
ATOM     18  O   UNL     1      -5.900  -0.787   0.564  0.00  0.00    -0.241 OA
ENDBRANCH  10  16
ENDBRANCH   3   5
BRANCH   1  22
ATOM     19  C   UNL     1       2.541  -0.005   0.100  0.00  0.00    +0.022 A 
ATOM     20  C   UNL     1       2.532   1.132   0.888  0.00  0.00    +0.035 A 
ATOM     21  C   UNL     1       1.337   1.734   1.222  0.00  0.00    +0.138 A 
ATOM     22  C   UNL     1       0.134   1.194   0.763  0.00  0.00    +0.069 A 
ATOM     23  C   UNL     1       0.148   0.047  -0.031  0.00  0.00    +0.035 A 
ATOM     24  C   UNL     1       1.352  -0.546  -0.359  0.00  0.00    +0.042 A 
ATOM     25 CL   UNL     1       1.373  -1.973  -1.347  0.00  0.00    -0.084 Cl
BRANCH  21  26
ATOM     26  N   UNL     1       1.330   2.951   2.065  0.00  0.00    +0.057 N 
ATOM     27  O   UNL     1       2.008   3.913   1.752  0.00  0.00    -0.126 OA
ATOM     28  O   UNL     1       0.646   2.990   3.072  0.00  0.00    -0.126 OA
ENDBRANCH  21  26
ENDBRANCH   1  22
TORSDOF 4
