REMARK  Name = ZINC39686748
REMARK  9 active torsions:
REMARK  status: ('A' for Active; 'I' for Inactive)
REMARK    1  A    between atoms: C_1  and  C_2
REMARK    2  A    between atoms: C_6  and  C_7
REMARK    3  A    between atoms: C_11  and  C_20
REMARK    4  A    between atoms: N_22  and  C_23
REMARK    5  A    between atoms: C_23  and  C_25
REMARK    6  A    between atoms: C_23  and  C_26
REMARK    7  A    between atoms: C_26  and  C_27
REMARK    8  A    between atoms: C_32  and  O_33
REMARK    9  A    between atoms: O_33  and  C_34
REMARK                            x       y       z     vdW  Elec       q    Type
REMARK                         _______ _______ _______ _____ _____    ______ ____
ROOT
ATOM      1  C   UNL     1       1.226   0.006   2.972  0.00  0.00    +0.254 C 
ATOM      2  O   UNL     1       1.225   1.188   3.263  0.00  0.00    -0.269 OA
ATOM      3  N   UNL     1       0.872  -0.914   3.891  0.00  0.00    -0.296 N 
ATOM      4  C   UNL     1       0.921  -2.389   3.765  0.00  0.00    +0.121 C 
ATOM      5  C   UNL     1       1.403  -2.884   5.147  0.00  0.00    +0.100 C 
ATOM      6  C   UNL     1       1.021  -1.757   6.122  0.00  0.00    -0.004 C 
ATOM      7  C   UNL     1       0.351  -0.678   5.259  0.00  0.00    +0.115 C 
ATOM      8  C   UNL     1       2.269  -1.190   6.790  0.00  0.00    -0.010 C 
ATOM      9  C   UNL     1       1.859  -0.111   7.797  0.00  0.00    -0.082 C 
ATOM     10  N   UNL     1       0.963  -0.694   8.803  0.00  0.00    +0.379 N 
ATOM     11  C   UNL     1      -0.276  -1.153   8.164  0.00  0.00    -0.082 C 
ATOM     12  C   UNL     1       0.044  -2.276   7.173  0.00  0.00    -0.010 C 
ATOM     13  H   UNL     1       1.421  -1.476   9.247  0.00  0.00    -0.086 HD
ATOM     14  H   UNL     1       0.742   0.003   9.499  0.00  0.00    -0.086 HD
ENDROOT
BRANCH   1  20
ATOM     15  C   UNL     1       2.351   1.827   0.709  0.00  0.00    +0.045 C 
ATOM     16  C   UNL     1       2.116   0.344   0.579  0.00  0.00    -0.031 A 
ATOM     17  C   UNL     1       2.394  -0.341  -0.579  0.00  0.00    +0.011 A 
ATOM     18  C   UNL     1       2.159  -1.675  -0.628  0.00  0.00    +0.046 A 
ATOM     19  S   UNL     1       1.555  -2.043   0.896  0.00  0.00    -0.092 S 
ATOM     20  C   UNL     1       1.613  -0.417   1.623  0.00  0.00    +0.077 A 
ENDBRANCH   1  20
BRANCH   5  21
ATOM     21  C   UNL     1       0.702  -4.164   5.521  0.00  0.00    +0.218 C 
ATOM     22  O   UNL     1      -0.417  -4.385   5.109  0.00  0.00    -0.275 OA
ATOM     23  N   UNL     1       1.319  -5.064   6.312  0.00  0.00    -0.312 N 
ATOM     24  H   UNL     1       2.238  -4.920   6.585  0.00  0.00    +0.149 HD
BRANCH  23  25
ATOM     25  C   UNL     1       0.600  -6.261   6.758  0.00  0.00    +0.074 C 
ATOM     26  C   UNL     1      -0.075  -5.978   8.102  0.00  0.00    +0.028 C 
BRANCH  25  27
ATOM     27  C   UNL     1       1.588  -7.419   6.917  0.00  0.00    +0.060 C 
BRANCH  27  28
ATOM     28  C   UNL     1       2.146  -7.792   5.568  0.00  0.00    -0.004 A 
ATOM     29  C   UNL     1       1.575  -8.821   4.844  0.00  0.00    +0.007 A 
ATOM     30  C   UNL     1       2.086  -9.164   3.607  0.00  0.00    +0.000 A 
ATOM     31  C   UNL     1       3.170  -8.479   3.090  0.00  0.00    +0.004 A 
ATOM     32  C   UNL     1       3.744  -7.449   3.809  0.00  0.00    +0.046 A 
ATOM     33  C   UNL     1       3.229  -7.099   5.049  0.00  0.00    +0.123 A 
BRANCH  33  34
ATOM     34  O   UNL     1       3.789  -6.082   5.756  0.00  0.00    -0.495 OA
ATOM     35  C   UNL     1       4.837  -5.349   5.119  0.00  0.00    +0.277 C 
ENDBRANCH  33  34
ENDBRANCH  27  28
ENDBRANCH  25  27
ENDBRANCH  23  25
ENDBRANCH   5  21
TORSDOF 6
