REMARK  Name = ZINC07659530
REMARK  12 active torsions:
REMARK  status: ('A' for Active; 'I' for Inactive)
REMARK    1  A    between atoms: C_1  and  C_2
REMARK    2  A    between atoms: C_2  and  C_3
REMARK    3  A    between atoms: C_3  and  C_4
REMARK    4  A    between atoms: C_4  and  O_5
REMARK    5  A    between atoms: O_5  and  C_6
REMARK    6  A    between atoms: C_11  and  C_12
REMARK    7  A    between atoms: N_14  and  C_15
REMARK    8  A    between atoms: C_15  and  N_17
REMARK    9  A    between atoms: N_17  and  C_18
REMARK   10  A    between atoms: C_19  and  C_25
REMARK   11  A    between atoms: C_20  and  C_24
REMARK   12  A    between atoms: C_21  and  C_23
REMARK                            x       y       z     vdW  Elec       q    Type
REMARK                         _______ _______ _______ _____ _____    ______ ____
ROOT
ATOM      1  C   UNL     1       1.147   1.655   0.000  0.00  0.00    +0.141 C 
ATOM      2  S   UNL     1       1.124   3.367   0.009  0.00  0.00    -0.018 S 
ENDROOT
BRANCH   1   5
ATOM      3  C   UNL     1      -1.187   1.624   0.017  0.00  0.00    +0.253 C 
ATOM      4  O   UNL     1      -1.204   2.839   0.023  0.00  0.00    -0.270 OA
ATOM      5  N   UNL     1      -0.011   0.966   0.007  0.00  0.00    -0.263 N 
ATOM      6  H   UNL     1       0.002  -0.004   0.002  0.00  0.00    +0.157 HD
BRANCH   3  12
ATOM      7  C   UNL     1      -3.680   1.549   0.028  0.00  0.00    +0.133 A 
ATOM      8  C   UNL     1      -4.865   0.829   0.030  0.00  0.00    +0.046 A 
ATOM      9  C   UNL     1      -4.837  -0.551   0.022  0.00  0.00    +0.004 A 
ATOM     10  C   UNL     1      -3.627  -1.227   0.013  0.00  0.00    +0.001 A 
ATOM     11  C   UNL     1      -2.440  -0.528   0.005  0.00  0.00    +0.017 A 
ATOM     12  C   UNL     1      -2.454   0.869   0.018  0.00  0.00    +0.079 A 
BRANCH   7  13
ATOM     13  O   UNL     1      -3.707   2.906   0.035  0.00  0.00    -0.491 OA
BRANCH  13  14
ATOM     14  C   UNL     1      -4.992   3.529   0.044  0.00  0.00    +0.229 C 
BRANCH  14  15
ATOM     15  C   UNL     1      -4.822   5.050   0.051  0.00  0.00    +0.041 C 
BRANCH  15  17
ATOM     16  C   UNL     1      -6.028   7.238   0.068  0.00  0.00    +0.004 C 
ATOM     17  C   UNL     1      -6.198   5.717   0.061  0.00  0.00    -0.000 C 
ENDBRANCH  15  17
ENDBRANCH  14  15
ENDBRANCH  13  14
ENDBRANCH   7  13
ENDBRANCH   3  12
ENDBRANCH   1   5
BRANCH   1  18
ATOM     18  N   UNL     1       2.323   0.998  -0.015  0.00  0.00    -0.291 N 
ATOM     19  H   UNL     1       2.336   0.028  -0.020  0.00  0.00    +0.154 HD
BRANCH  18  20
ATOM     20  C   UNL     1       3.513   1.707  -0.022  0.00  0.00    +0.084 A 
ATOM     21  C   UNL     1       4.813   1.213  -0.037  0.00  0.00    +0.068 A 
ATOM     22  C   UNL     1       5.878   2.188  -0.042  0.00  0.00    -0.027 A 
ATOM     23  C   UNL     1       5.523   3.485  -0.032  0.00  0.00    -0.008 A 
ATOM     24  S   UNL     1       3.743   3.423  -0.023  0.00  0.00    -0.078 S 
ATOM     25  C   UNL     1       6.416   4.698  -0.034  0.00  0.00    +0.052 C 
ATOM     26  C   UNL     1       7.325   1.769  -0.058  0.00  0.00    +0.045 C 
BRANCH  21  27
ATOM     27  C   UNL     1       5.088  -0.227  -0.047  0.00  0.00    +0.244 C 
ATOM     28  O   UNL     1       5.193  -0.819  -1.105  0.00  0.00    -0.270 OA
ATOM     29  N   UNL     1       5.226  -0.895   1.115  0.00  0.00    -0.325 N 
ATOM     30  H   UNL     1       5.142  -0.423   1.959  0.00  0.00    +0.145 HD
ATOM     31  H   UNL     1       5.408  -1.848   1.109  0.00  0.00    +0.145 HD
ENDBRANCH  21  27
ENDBRANCH  18  20
ENDBRANCH   1  18
TORSDOF 9
