REMARK  Name = ZINC33707092
REMARK  11 active torsions:
REMARK  status: ('A' for Active; 'I' for Inactive)
REMARK    1  A    between atoms: C_1  and  C_2
REMARK    2  A    between atoms: C_2  and  C_3
REMARK    3  A    between atoms: C_3  and  N_4
REMARK    4  A    between atoms: N_4  and  C_5
REMARK    5  A    between atoms: C_5  and  C_6
REMARK    6  A    between atoms: C_16  and  C_18
REMARK    7  A    between atoms: C_21  and  C_24
REMARK    8  A    between atoms: N_27  and  C_28
REMARK    9  A    between atoms: C_28  and  C_29
REMARK   10  A    between atoms: C_28  and  C_30
REMARK   11  A    between atoms: C_28  and  C_31
REMARK                            x       y       z     vdW  Elec       q    Type
REMARK                         _______ _______ _______ _____ _____    ______ ____
ROOT
ATOM      1  C   UNL     1      -2.065  -2.977  -0.677  0.00  0.00    +0.234 C 
ATOM      2  O   UNL     1      -2.948  -2.394  -1.269  0.00  0.00    -0.274 OA
ATOM      3  N   UNL     1      -1.112  -2.278  -0.029  0.00  0.00    -0.286 N 
ATOM      4  C   UNL     1       0.017  -2.960   0.622  0.00  0.00    +0.130 C 
ATOM      5  C   UNL     1       1.321  -2.550  -0.069  0.00  0.00    +0.140 C 
ATOM      6  N   UNL     1       1.336  -1.094  -0.249  0.00  0.00    -0.347 N 
ATOM      7  C   UNL     1       2.423  -0.311  -0.488  0.00  0.00    +0.086 A 
ATOM      8  C   UNL     1       2.006   0.968  -0.601  0.00  0.00    +0.019 A 
ATOM      9  C   UNL     1       0.607   0.975  -0.421  0.00  0.00    +0.025 A 
ATOM     10  C   UNL     1       0.227  -0.294  -0.205  0.00  0.00    +0.044 A 
ATOM     11  C   UNL     1      -1.172  -0.807   0.050  0.00  0.00    +0.153 C 
ENDROOT
BRANCH  11  12
ATOM     12  C   UNL     1      -2.114  -0.273  -0.998  0.00  0.00    -0.021 A 
ATOM     13  C   UNL     1      -1.843  -0.474  -2.338  0.00  0.00    +0.006 A 
ATOM     14  C   UNL     1      -2.709   0.011  -3.300  0.00  0.00    +0.004 A 
ATOM     15  C   UNL     1      -3.843   0.706  -2.921  0.00  0.00    -0.050 A 
ATOM     16  C   UNL     1      -4.112   0.911  -1.580  0.00  0.00    +0.004 A 
ATOM     17  C   UNL     1      -3.248   0.422  -0.619  0.00  0.00    +0.006 A 
ATOM     18  C   UNL     1      -4.785   1.240  -3.969  0.00  0.00    +0.044 C 
ENDBRANCH  11  12
BRANCH   1  19
ATOM     19  C   UNL     1      -2.032  -4.484  -0.667  0.00  0.00    +0.205 C 
BRANCH  19  20
ATOM     20  N   UNL     1      -3.166  -5.002  -1.437  0.00  0.00    -0.277 N 
ATOM     21  C   UNL     1      -3.034  -5.233  -2.758  0.00  0.00    +0.303 C 
ATOM     22  O   UNL     1      -1.974  -5.011  -3.311  0.00  0.00    -0.253 OA
ATOM     23  N   UNL     1      -4.077  -5.710  -3.466  0.00  0.00    -0.294 N 
ATOM     24  H   UNL     1      -5.036  -5.911  -2.965  0.00  0.00    +0.151 HD
BRANCH  23  25
ATOM     25  C   UNL     1      -3.934  -5.961  -4.902  0.00  0.00    +0.028 C 
ATOM     26  C   UNL     1      -2.829  -6.993  -5.132  0.00  0.00    +0.031 C 
ATOM     27  C   UNL     1      -5.255  -6.495  -5.461  0.00  0.00    +0.031 C 
ATOM     28  C   UNL     1      -3.570  -4.657  -5.614  0.00  0.00    +0.031 C 
ENDBRANCH  23  25
BRANCH  20  29
ATOM     29  C   UNL     1      -4.443  -5.270  -0.770  0.00  0.00    +0.109 C 
BRANCH  29  31
ATOM     30  C   UNL     1      -6.649  -4.293  -0.120  0.00  0.00    +0.005 C 
ATOM     31  C   UNL     1      -5.315  -4.014  -0.816  0.00  0.00    +0.016 C 
ENDBRANCH  29  31
ENDBRANCH  20  29
ENDBRANCH  19  20
ENDBRANCH   1  19
TORSDOF 6
