REMARK  Name = ZINC60376159
REMARK  9 active torsions:
REMARK  status: ('A' for Active; 'I' for Inactive)
REMARK    1  A    between atoms: C_1  and  C_2
REMARK    2  A    between atoms: C_2  and  C_3
REMARK    3  A    between atoms: C_3  and  C_4
REMARK    4  A    between atoms: C_3  and  C_6
REMARK    5  A    between atoms: C_3  and  N_13
REMARK    6  A    between atoms: C_4  and  C_5
REMARK    7  A    between atoms: C_14  and  C_16
REMARK    8  A    between atoms: N_21  and  C_23
REMARK    9  A    between atoms: C_23  and  C_24
REMARK                            x       y       z     vdW  Elec       q    Type
REMARK                         _______ _______ _______ _____ _____    ______ ____
ROOT
ATOM      1  N   UNL     1       0.056  -0.038   2.447  0.00  0.00    -0.306 N 
ATOM      2  C   UNL     1      -1.227  -0.383   2.671  0.00  0.00    +0.219 C 
ATOM      3  O   UNL     1      -1.815  -1.084   1.874  0.00  0.00    -0.275 OA
ATOM      4  H   UNL     1       0.526   0.522   3.084  0.00  0.00    +0.150 HD
ENDROOT
BRANCH   2   5
ATOM      5  C   UNL     1      -1.933   0.103   3.910  0.00  0.00    +0.101 C 
ATOM      6  C   UNL     1      -2.073   1.643   3.900  0.00  0.00    +0.110 C 
ATOM      7  C   UNL     1      -3.430   1.897   4.517  0.00  0.00    +0.216 C 
ATOM      8  O   UNL     1      -3.809   2.965   4.947  0.00  0.00    -0.276 OA
ATOM      9  N   UNL     1      -4.156   0.765   4.520  0.00  0.00    -0.300 N 
ATOM     10  C   UNL     1      -3.410  -0.348   3.919  0.00  0.00    +0.121 C 
BRANCH   9  11
ATOM     11  C   UNL     1      -5.515   0.656   5.054  0.00  0.00    +0.111 C 
BRANCH  11  12
ATOM     12  C   UNL     1      -6.525   0.958   3.945  0.00  0.00    +0.006 C 
ATOM     13  C   UNL     1      -7.421   2.186   4.121  0.00  0.00    +0.005 C 
ATOM     14  C   UNL     1      -8.009   0.782   4.273  0.00  0.00    +0.005 C 
ENDBRANCH  11  12
ENDBRANCH   9  11
ENDBRANCH   2   5
BRANCH   1  15
ATOM     15  C   UNL     1       0.742  -0.511   1.242  0.00  0.00    +0.059 C 
BRANCH  15  16
ATOM     16  C   UNL     1       2.156   0.011   1.231  0.00  0.00    -0.024 A 
ATOM     17  C   UNL     1       2.791   0.262   0.029  0.00  0.00    +0.007 A 
ATOM     18  C   UNL     1       4.087   0.740   0.018  0.00  0.00    +0.020 A 
ATOM     19  C   UNL     1       4.750   0.968   1.211  0.00  0.00    +0.041 A 
ATOM     20  C   UNL     1       4.114   0.717   2.414  0.00  0.00    +0.020 A 
ATOM     21  C   UNL     1       2.816   0.243   2.423  0.00  0.00    +0.007 A 
ATOM     22 CL   UNL     1       6.379   1.568   1.199  0.00  0.00    -0.084 Cl
ENDBRANCH  15  16
BRANCH  15  24
ATOM     23  C   UNL     1      -0.019   1.526   0.010  0.00  0.00    +0.006 C 
ATOM     24  C   UNL     1       0.002  -0.004   0.002  0.00  0.00    +0.027 C 
ENDBRANCH  15  24
BRANCH  15  25
ATOM     25  C   UNL     1       0.763  -2.041   1.233  0.00  0.00    +0.027 C 
ATOM     26  C   UNL     1       1.392  -2.549   2.532  0.00  0.00    +0.006 C 
ENDBRANCH  15  25
ENDBRANCH   1  15
TORSDOF 7
