REMARK  Name = ZINC39933393
REMARK  10 active torsions:
REMARK  status: ('A' for Active; 'I' for Inactive)
REMARK    1  A    between atoms: C_1  and  C_2
REMARK    2  A    between atoms: C_2  and  C_4
REMARK    3  A    between atoms: C_2  and  N_14
REMARK    4  A    between atoms: C_7  and  S_10
REMARK    5  A    between atoms: S_10  and  N_13
REMARK    6  A    between atoms: C_15  and  C_17
REMARK    7  A    between atoms: C_17  and  S_18
REMARK    8  A    between atoms: S_18  and  C_19
REMARK    9  A    between atoms: C_23  and  C_28
REMARK   10  A    between atoms: N_24  and  C_25
REMARK                            x       y       z     vdW  Elec       q    Type
REMARK                         _______ _______ _______ _____ _____    ______ ____
ROOT
ATOM      1  S   UNL     1       4.444  -0.822   2.204  0.00  0.00    -0.109 S 
ENDROOT
BRANCH   1   2
ATOM      2  C   UNL     1       5.223  -1.711   3.581  0.00  0.00    +0.237 C 
ATOM      3  N   UNL     1       4.506  -2.967   3.854  0.00  0.00    -0.237 N 
ATOM      4  N   UNL     1       4.025  -2.874   5.165  0.00  0.00    -0.169 NA
ATOM      5  C   UNL     1       4.356  -1.734   5.712  0.00  0.00    +0.147 C 
ATOM      6  N   UNL     1       5.097  -0.940   4.829  0.00  0.00    -0.282 N 
ATOM      7  H   UNL     1       4.389  -3.713   3.245  0.00  0.00    +0.171 HD
BRANCH   5   8
ATOM      8  C   UNL     1       4.014  -1.355   7.019  0.00  0.00    +0.022 C 
ATOM      9  C   UNL     1       3.369  -2.132   7.981  0.00  0.00    +0.006 A 
ATOM     10  C   UNL     1       2.881  -3.456   7.967  0.00  0.00    +0.010 A 
ATOM     11  C   UNL     1       2.282  -3.966   9.074  0.00  0.00    +0.001 A 
ATOM     12  C   UNL     1       2.134  -3.209  10.239  0.00  0.00    +0.002 A 
ATOM     13  C   UNL     1       2.578  -1.931  10.323  0.00  0.00    +0.026 A 
ATOM     14  C   UNL     1       3.215  -1.331   9.206  0.00  0.00    +0.043 A 
ATOM     15  N   UNL     1       3.726  -0.127   9.037  0.00  0.00    -0.380 N 
ATOM     16  C   UNL     1       4.275  -0.020   7.682  0.00  0.00    +0.152 C 
ATOM     17  H   UNL     1       3.741   0.576   9.706  0.00  0.00    +0.160 HD
ENDBRANCH   5   8
BRANCH   6  18
ATOM     18  C   UNL     1       5.640   0.395   5.091  0.00  0.00    +0.078 C 
ATOM     19  C   UNL     1       6.346   1.111   3.938  0.00  0.00    +0.024 C 
ATOM     20  C   UNL     1       7.162   0.549   5.104  0.00  0.00    +0.024 C 
ENDBRANCH   6  18
ENDBRANCH   1   2
BRANCH   1  21
ATOM     21  C   UNL     1       2.725  -0.603   2.740  0.00  0.00    +0.168 C 
BRANCH  21  23
ATOM     22  N   UNL     1       0.650   0.409   1.853  0.00  0.00    -0.308 N 
ATOM     23  C   UNL     1       1.956   0.132   1.672  0.00  0.00    +0.223 C 
ATOM     24  O   UNL     1       2.514   0.475   0.651  0.00  0.00    -0.275 OA
ATOM     25  H   UNL     1       0.204   0.136   2.670  0.00  0.00    +0.149 HD
BRANCH  22  27
ATOM     26  C   UNL     1       0.096   2.631   0.994  0.00  0.00    +0.033 C 
ATOM     27  C   UNL     1      -0.097   1.124   0.815  0.00  0.00    +0.100 C 
BRANCH  27  28
ATOM     28  C   UNL     1      -1.562   0.789   0.930  0.00  0.00    -0.027 A 
ATOM     29  C   UNL     1      -2.152   0.687   2.175  0.00  0.00    +0.007 A 
ATOM     30  C   UNL     1      -3.496   0.380   2.281  0.00  0.00    +0.029 A 
ATOM     31  C   UNL     1      -4.249   0.174   1.140  0.00  0.00    +0.105 A 
ATOM     32  C   UNL     1      -3.659   0.276  -0.106  0.00  0.00    +0.029 A 
ATOM     33  C   UNL     1      -2.317   0.588  -0.211  0.00  0.00    +0.007 A 
BRANCH  31  34
ATOM     34  S   UNL     1      -5.962  -0.219   1.274  0.00  0.00    +0.056 S 
ATOM     35  O   UNL     1      -6.317  -0.900   0.078  0.00  0.00    -0.153 OA
ATOM     36  O   UNL     1      -6.147  -0.793   2.561  0.00  0.00    -0.153 OA
BRANCH  34  37
ATOM     37  N   UNL     1      -6.795   1.212   1.269  0.00  0.00    -0.204 NA
ATOM     38  H   UNL     1      -6.315   2.052   1.200  0.00  0.00    +0.144 HD
ATOM     39  H   UNL     1      -7.762   1.210   1.335  0.00  0.00    +0.144 HD
ENDBRANCH  34  37
ENDBRANCH  31  34
ENDBRANCH  27  28
ENDBRANCH  22  27
ENDBRANCH  21  23
ENDBRANCH   1  21
TORSDOF 9
