REMARK  Name = ZINC03280380
REMARK  7 active torsions:
REMARK  status: ('A' for Active; 'I' for Inactive)
REMARK    1  A    between atoms: C_3  and  C_15
REMARK    2  A    between atoms: C_4  and  O_11
REMARK    3  A    between atoms: C_6  and  O_7
REMARK    4  A    between atoms: O_7  and  C_8
REMARK    5  A    between atoms: O_11  and  C_12
REMARK    6  A    between atoms: N_16  and  N_17
REMARK    7  A    between atoms: N_20  and  C_21
REMARK                            x       y       z     vdW  Elec       q    Type
REMARK                         _______ _______ _______ _____ _____    ______ ____
ROOT
ATOM      1  C   UNL     1      -0.017   1.385   0.010  0.00  0.00    +0.047 A 
ATOM      2  C   UNL     1       1.165   2.095   0.002  0.00  0.00    +0.016 A 
ATOM      3  C   UNL     1       2.385   1.417  -0.013  0.00  0.00    +0.037 A 
ATOM      4  C   UNL     1       2.402   0.015  -0.021  0.00  0.00    +0.139 A 
ATOM      5  C   UNL     1       1.210  -0.687  -0.013  0.00  0.00    +0.092 A 
ATOM      6  C   UNL     1       0.002  -0.004   0.002  0.00  0.00    +0.130 A 
ENDROOT
BRANCH   3   7
ATOM      7  C   UNL     1       3.651   2.172  -0.022  0.00  0.00    +0.142 C 
ATOM      8  N   UNL     1       4.784   1.539  -0.036  0.00  0.00    -0.186 NA
BRANCH   8   9
ATOM      9  N   UNL     1       5.987   2.257  -0.044  0.00  0.00    -0.191 N 
ATOM     10  C   UNL     1       7.164   1.599  -0.059  0.00  0.00    +0.319 C 
ATOM     11  O   UNL     1       8.208   2.223  -0.066  0.00  0.00    -0.251 OA
ATOM     12  N   UNL     1       7.183   0.252  -0.066  0.00  0.00    -0.295 N 
ATOM     13  H   UNL     1       5.973   3.227  -0.039  0.00  0.00    +0.179 HD
ATOM     14  H   UNL     1       6.350  -0.245  -0.060  0.00  0.00    +0.151 HD
BRANCH  12  15
ATOM     15  C   UNL     1       8.462  -0.462  -0.082  0.00  0.00    +0.074 C 
ATOM     16  C   UNL     1       8.954  -0.594  -1.524  0.00  0.00    +0.022 C 
ATOM     17  C   UNL     1      10.290  -1.340  -1.541  0.00  0.00    +0.002 C 
ATOM     18  C   UNL     1      10.104  -2.733  -0.937  0.00  0.00    +0.000 C 
ATOM     19  C   UNL     1       9.611  -2.602   0.506  0.00  0.00    +0.002 C 
ATOM     20  C   UNL     1       8.276  -1.855   0.523  0.00  0.00    +0.022 C 
ENDBRANCH  12  15
ENDBRANCH   8   9
ENDBRANCH   3   7
BRANCH   6  21
ATOM     21  O   UNL     1      -1.167  -0.697   0.010  0.00  0.00    -0.434 OA
BRANCH  21  22
ATOM     22  C   UNL     1      -2.374   0.068   0.026  0.00  0.00    +0.541 C 
ATOM     23  F   UNL     1      -2.403   0.869   1.173  0.00  0.00    -0.166 F 
ATOM     24  F   UNL     1      -2.426   0.881  -1.111  0.00  0.00    -0.166 F 
ENDBRANCH  21  22
ENDBRANCH   6  21
BRANCH   4  25
ATOM     25  O   UNL     1       3.585  -0.653  -0.036  0.00  0.00    -0.433 OA
BRANCH  25  26
ATOM     26  C   UNL     1       3.525  -2.080  -0.043  0.00  0.00    +0.541 C 
ATOM     27  F   UNL     1       2.857  -2.525   1.103  0.00  0.00    -0.166 F 
ATOM     28  F   UNL     1       2.835  -2.512  -1.181  0.00  0.00    -0.166 F 
ENDBRANCH  25  26
ENDBRANCH   4  25
TORSDOF 7
