REMARK  Name = ZINC39668187
REMARK  6 active torsions:
REMARK  status: ('A' for Active; 'I' for Inactive)
REMARK    1  A    between atoms: C_6  and  C_7
REMARK    2  A    between atoms: C_7  and  N_8
REMARK    3  A    between atoms: C_9  and  C_11
REMARK    4  A    between atoms: C_22  and  C_24
REMARK    5  A    between atoms: C_24  and  C_25
REMARK    6  A    between atoms: C_25  and  C_26
REMARK                            x       y       z     vdW  Elec       q    Type
REMARK                         _______ _______ _______ _____ _____    ______ ____
ROOT
ATOM      1  C   UNL     1      -3.319  -1.951  -3.012  0.00  0.00    +0.100 C 
ATOM      2  C   UNL     1      -2.231  -2.720  -3.794  0.00  0.00    +0.121 C 
ATOM      3  N   UNL     1      -2.626  -4.144  -3.681  0.00  0.00    -0.300 N 
ATOM      4  C   UNL     1      -4.103  -4.129  -3.810  0.00  0.00    +0.115 C 
ATOM      5  C   UNL     1      -4.547  -2.877  -3.028  0.00  0.00    -0.004 C 
ATOM      6  C   UNL     1      -5.713  -2.197  -3.738  0.00  0.00    -0.010 C 
ATOM      7  C   UNL     1      -6.939  -3.113  -3.690  0.00  0.00    -0.082 C 
ATOM      8  N   UNL     1      -7.288  -3.393  -2.292  0.00  0.00    +0.379 N 
ATOM      9  C   UNL     1      -6.197  -4.130  -1.642  0.00  0.00    -0.082 C 
ATOM     10  C   UNL     1      -4.940  -3.257  -1.604  0.00  0.00    -0.010 C 
ATOM     11  C   UNL     1      -1.823  -5.212  -3.503  0.00  0.00    +0.216 C 
ATOM     12  O   UNL     1      -2.301  -6.324  -3.429  0.00  0.00    -0.276 OA
ATOM     13  H   UNL     1      -7.442  -2.524  -1.804  0.00  0.00    -0.086 HD
ATOM     14  H   UNL     1      -8.131  -3.947  -2.261  0.00  0.00    -0.086 HD
ENDROOT
BRANCH   1  16
ATOM     15  N   UNL     1      -3.328  -0.627  -0.923  0.00  0.00    -0.311 N 
ATOM     16  C   UNL     1      -2.869  -1.700  -1.596  0.00  0.00    +0.218 C 
ATOM     17  O   UNL     1      -2.093  -2.465  -1.062  0.00  0.00    -0.275 OA
ATOM     18  H   UNL     1      -3.949  -0.016  -1.350  0.00  0.00    +0.149 HD
BRANCH  15  19
ATOM     19  C   UNL     1      -2.891  -0.384   0.454  0.00  0.00    +0.139 C 
BRANCH  19  25
ATOM     20  C   UNL     1      -4.764   0.799   1.621  0.00  0.00    +0.009 A 
ATOM     21  C   UNL     1      -5.365   1.943   2.104  0.00  0.00    +0.046 A 
ATOM     22  C   UNL     1      -4.748   3.181   1.943  0.00  0.00    +0.124 A 
ATOM     23  C   UNL     1      -3.526   3.241   1.285  0.00  0.00    -0.002 A 
ATOM     24  C   UNL     1      -2.926   2.097   0.808  0.00  0.00    +0.012 A 
ATOM     25  C   UNL     1      -3.545   0.870   0.975  0.00  0.00    -0.030 A 
ATOM     26  C   UNL     1      -3.117   4.700   1.239  0.00  0.00    +0.080 C 
ATOM     27  C   UNL     1      -4.443   5.415   1.592  0.00  0.00    +0.234 C 
ATOM     28  O   UNL     1      -5.152   4.417   2.345  0.00  0.00    -0.491 OA
ENDBRANCH  19  25
ENDBRANCH  15  19
ENDBRANCH   1  16
BRANCH  11  29
ATOM     29  C   UNL     1      -0.332  -5.024  -3.394  0.00  0.00    +0.096 C 
BRANCH  29  30
ATOM     30  C   UNL     1       0.341  -6.384  -3.196  0.00  0.00    +0.013 C 
BRANCH  30  31
ATOM     31  C   UNL     1       1.855  -6.193  -3.086  0.00  0.00    -0.011 C 
ATOM     32  C   UNL     1       2.428  -5.724  -4.439  0.00  0.00    +0.003 C 
ATOM     33  C   UNL     1       3.795  -6.445  -4.542  0.00  0.00    +0.000 C 
ATOM     34  C   UNL     1       3.495  -7.836  -3.930  0.00  0.00    +0.000 C 
ATOM     35  C   UNL     1       2.533  -7.536  -2.762  0.00  0.00    +0.003 C 
ENDBRANCH  30  31
ENDBRANCH  29  30
ENDBRANCH  11  29
TORSDOF 6
