REMARK  Name = ZINC39930975
REMARK  5 active torsions:
REMARK  status: ('A' for Active; 'I' for Inactive)
REMARK    1  A    between atoms: C_1  and  C_2
REMARK    2  A    between atoms: C_7  and  C_8
REMARK    3  A    between atoms: C_10  and  C_28
REMARK    4  A    between atoms: C_11  and  N_27
REMARK    5  A    between atoms: C_18  and  C_21
REMARK                            x       y       z     vdW  Elec       q    Type
REMARK                         _______ _______ _______ _____ _____    ______ ____
ROOT
ATOM      1  C   UNL     1       0.243   0.048   2.493  0.00  0.00    +0.101 C 
ATOM      2  C   UNL     1       1.599  -0.202   3.091  0.00  0.00    +0.098 C 
ATOM      3  C   UNL     1       1.750  -1.079   4.113  0.00  0.00    +0.198 C 
ATOM      4  O   UNL     1       0.698  -1.747   4.614  0.00  0.00    -0.445 OA
ATOM      5  C   UNL     1      -0.554  -1.285   4.429  0.00  0.00    +0.115 C 
ATOM      6  C   UNL     1      -0.835  -0.424   3.438  0.00  0.00    +0.046 C 
ATOM      7  C   UNL     1      -2.143   0.065   3.250  0.00  0.00    +0.164 C 
ATOM      8  O   UNL     1      -2.367   0.831   2.334  0.00  0.00    -0.292 OA
ATOM      9  C   UNL     1      -3.266  -0.345   4.162  0.00  0.00    +0.088 C 
ATOM     10  C   UNL     1      -2.688  -0.682   5.541  0.00  0.00    +0.034 C 
ATOM     11  C   UNL     1      -1.635  -1.768   5.366  0.00  0.00    +0.083 C 
ENDROOT
BRANCH   1  18
ATOM     12  C   UNL     1      -0.014   1.503   0.010  0.00  0.00    +0.044 C 
ATOM     13  C   UNL     1       0.004  -0.004   0.002  0.00  0.00    -0.046 A 
ATOM     14  C   UNL     1      -0.097  -0.690  -1.194  0.00  0.00    +0.003 A 
ATOM     15  C   UNL     1      -0.080  -2.072  -1.202  0.00  0.00    +0.000 A 
ATOM     16  C   UNL     1       0.038  -2.768  -0.013  0.00  0.00    +0.000 A 
ATOM     17  C   UNL     1       0.140  -2.083   1.182  0.00  0.00    +0.005 A 
ATOM     18  C   UNL     1       0.127  -0.700   1.190  0.00  0.00    -0.032 A 
ENDBRANCH   1  18
BRANCH  10  19
ATOM     19  C   UNL     1      -3.787  -1.179   6.444  0.00  0.00    -0.043 A 
ATOM     20  C   UNL     1      -4.503  -2.311   6.104  0.00  0.00    +0.004 A 
ATOM     21  C   UNL     1      -5.511  -2.766   6.932  0.00  0.00    +0.000 A 
ATOM     22  C   UNL     1      -5.804  -2.089   8.101  0.00  0.00    +0.000 A 
ATOM     23  C   UNL     1      -5.088  -0.957   8.442  0.00  0.00    +0.000 A 
ATOM     24  C   UNL     1      -4.076  -0.504   7.615  0.00  0.00    +0.004 A 
ENDBRANCH  10  19
BRANCH   3  25
ATOM     25  N   UNL     1       2.998  -1.288   4.644  0.00  0.00    -0.328 N 
ATOM     26  H   UNL     1       3.763  -0.810   4.288  0.00  0.00    +0.145 HD
ATOM     27  H   UNL     1       3.115  -1.914   5.376  0.00  0.00    +0.145 HD
ENDBRANCH   3  25
BRANCH   2  28
ATOM     28  C   UNL     1       2.741   0.493   2.576  0.00  0.00    +0.101 C 
ATOM     29  N   UNL     1       3.647   1.044   2.168  0.00  0.00    -0.191 NA
ENDBRANCH   2  28
TORSDOF 4
