REMARK  Name = ZINC20764317
REMARK  10 active torsions:
REMARK  status: ('A' for Active; 'I' for Inactive)
REMARK    1  A    between atoms: C_1  and  C_2
REMARK    2  A    between atoms: C_2  and  O_3
REMARK    3  A    between atoms: O_3  and  C_4
REMARK    4  A    between atoms: C_7  and  C_10
REMARK    5  A    between atoms: C_12  and  C_28
REMARK    6  A    between atoms: C_15  and  C_18
REMARK    7  A    between atoms: C_22  and  O_25
REMARK    8  A    between atoms: C_23  and  O_24
REMARK    9  A    between atoms: O_25  and  C_26
REMARK   10  A    between atoms: C_26  and  C_27
REMARK                            x       y       z     vdW  Elec       q    Type
REMARK                         _______ _______ _______ _____ _____    ______ ____
ROOT
ATOM      1  C   UNL     1      -2.745  -0.181  -1.834  0.00  0.00    +0.040 C 
ATOM      2  N   UNL     1      -2.328   0.020  -0.639  0.00  0.00    -0.299 NA
ATOM      3  C   UNL     1      -1.293  -0.775   0.010  0.00  0.00    +0.081 C 
ATOM      4  N   UNL     1      -1.101  -2.050  -0.692  0.00  0.00    +0.401 N 
ATOM      5  C   UNL     1      -0.903  -1.813  -2.132  0.00  0.00    -0.028 C 
ATOM      6  C   UNL     1      -2.216  -1.279  -2.714  0.00  0.00    +0.044 C 
ATOM      7  H   UNL     1      -0.216  -2.562  -0.286  0.00  0.00    -0.081 HD
ATOM      8  H   UNL     1      -1.989  -2.683  -0.550  0.00  0.00    -0.081 HD
ENDROOT
BRANCH   3   9
ATOM      9  C   UNL     1       0.002  -0.004   0.002  0.00  0.00    -0.039 A 
ATOM     10  C   UNL     1      -0.017   1.378   0.010  0.00  0.00    +0.006 A 
ATOM     11  C   UNL     1       1.170   2.087   0.002  0.00  0.00    +0.040 A 
ATOM     12  C   UNL     1       2.379   1.411  -0.013  0.00  0.00    +0.137 A 
ATOM     13  C   UNL     1       2.397   0.026  -0.021  0.00  0.00    +0.053 A 
ATOM     14  C   UNL     1       1.208  -0.680  -0.013  0.00  0.00    +0.022 A 
ATOM     15 BR   UNL     1       4.046  -0.898  -0.041  0.00  0.00    -0.047 Br
ATOM     16  F   UNL     1       3.539   2.103  -0.021  0.00  0.00    -0.204 F 
ENDBRANCH   3   9
BRANCH   1  20
ATOM     17  C   UNL     1      -5.758   2.377  -3.381  0.00  0.00    +0.121 A 
ATOM     18  C   UNL     1      -5.285   2.567  -2.089  0.00  0.00    +0.046 A 
ATOM     19  C   UNL     1      -4.308   1.740  -1.583  0.00  0.00    +0.013 A 
ATOM     20  C   UNL     1      -3.792   0.708  -2.371  0.00  0.00    -0.004 A 
ATOM     21  C   UNL     1      -4.267   0.523  -3.672  0.00  0.00    +0.013 A 
ATOM     22  C   UNL     1      -5.248   1.353  -4.169  0.00  0.00    +0.046 A 
BRANCH  17  23
ATOM     23  O   UNL     1      -6.722   3.196  -3.877  0.00  0.00    -0.492 OA
BRANCH  23  25
ATOM     24  C   UNL     1      -8.242   3.961  -5.593  0.00  0.00    +0.048 C 
ATOM     25  C   UNL     1      -7.163   2.945  -5.212  0.00  0.00    +0.225 C 
ENDBRANCH  23  25
ENDBRANCH  17  23
ENDBRANCH   1  20
BRANCH   5  26
ATOM     26  C   UNL     1      -0.532  -3.105  -2.813  0.00  0.00    -0.016 A 
ATOM     27  C   UNL     1      -0.906  -4.313  -2.255  0.00  0.00    +0.006 A 
ATOM     28  C   UNL     1      -0.572  -5.500  -2.880  0.00  0.00    +0.004 A 
ATOM     29  C   UNL     1       0.147  -5.484  -4.061  0.00  0.00    +0.049 A 
ATOM     30  C   UNL     1       0.529  -4.277  -4.623  0.00  0.00    +0.162 A 
ATOM     31  C   UNL     1       0.188  -3.082  -3.996  0.00  0.00    +0.160 A 
BRANCH  31  32
ATOM     32  O   UNL     1       0.561  -1.894  -4.544  0.00  0.00    -0.503 OA
ATOM     33  H   UNL     1       1.133  -1.877  -5.484  0.00  0.00    +0.292 HD
ENDBRANCH  31  32
BRANCH  30  34
ATOM     34  O   UNL     1       1.237  -4.260  -5.785  0.00  0.00    -0.489 OA
BRANCH  34  35
ATOM     35  C   UNL     1       1.551  -5.524  -6.371  0.00  0.00    +0.226 C 
ATOM     36  C   UNL     1       2.344  -5.304  -7.661  0.00  0.00    +0.048 C 
ENDBRANCH  34  35
ENDBRANCH  30  34
ENDBRANCH   5  26
TORSDOF 8
