REMARK  Name = ZINC36209746
REMARK  10 active torsions:
REMARK  status: ('A' for Active; 'I' for Inactive)
REMARK    1  A    between atoms: C_1  and  C_2
REMARK    2  A    between atoms: C_7  and  C_9
REMARK    3  A    between atoms: C_7  and  C_10
REMARK    4  A    between atoms: N_13  and  C_17
REMARK    5  A    between atoms: C_17  and  C_18
REMARK    6  A    between atoms: C_18  and  O_20
REMARK    7  A    between atoms: O_20  and  C_21
REMARK    8  A    between atoms: C_21  and  C_23
REMARK    9  A    between atoms: C_21  and  C_29
REMARK   10  A    between atoms: C_29  and  C_31
REMARK                            x       y       z     vdW  Elec       q    Type
REMARK                         _______ _______ _______ _____ _____    ______ ____
ROOT
ATOM      1  C   UNL     1      -1.637  -6.024  -2.221  0.00  0.00    +0.326 C 
ATOM      2  O   UNL     1      -1.422  -6.699  -1.241  0.00  0.00    -0.249 OA
ENDROOT
BRANCH   1   3
ATOM      3  C   UNL     1      -2.181  -4.628  -2.070  0.00  0.00    +0.238 C 
BRANCH   3  15
ATOM      4  C   UNL     1      -0.561  -0.539   3.038  0.00  0.00    +0.007 C 
ATOM      5  C   UNL     1      -0.552  -1.966   2.483  0.00  0.00    -0.011 C 
ATOM      6  C   UNL     1      -1.983  -2.382   2.133  0.00  0.00    +0.038 C 
ATOM      7  C   UNL     1      -1.979  -3.782   1.535  0.00  0.00    +0.113 C 
ATOM      8  C   UNL     1      -1.288  -4.799   2.421  0.00  0.00    +0.041 C 
ATOM      9  C   UNL     1       0.030  -4.352   3.027  0.00  0.00    -0.032 C 
ATOM     10  C   UNL     1      -0.018  -2.921   3.549  0.00  0.00    +0.009 C 
ATOM     11  C   UNL     1       0.345  -5.278   4.223  0.00  0.00    +0.011 C 
ATOM     12  C   UNL     1       1.171  -4.505   2.018  0.00  0.00    +0.011 C 
ATOM     13  C   UNL     1      -1.415  -3.768   0.136  0.00  0.00    +0.247 C 
ATOM     14  O   UNL     1      -0.347  -3.332  -0.239  0.00  0.00    -0.273 OA
ATOM     15  N   UNL     1      -2.363  -4.326  -0.648  0.00  0.00    -0.213 N 
ATOM     16  C   UNL     1      -3.486  -4.566   0.038  0.00  0.00    +0.310 C 
ATOM     17  O   UNL     1      -4.487  -5.052  -0.453  0.00  0.00    -0.252 OA
ATOM     18  N   UNL     1      -3.380  -4.213   1.330  0.00  0.00    -0.285 N 
ATOM     19  H   UNL     1      -4.074  -4.231   2.005  0.00  0.00    +0.151 HD
ENDBRANCH   3  15
ENDBRANCH   1   3
BRANCH   1  20
ATOM     20  O   UNL     1      -1.389  -6.520  -3.444  0.00  0.00    -0.447 OA
BRANCH  20  21
ATOM     21  C   UNL     1      -0.874  -7.851  -3.513  0.00  0.00    +0.277 C 
BRANCH  21  22
ATOM     22  C   UNL     1      -2.017  -8.829  -3.598  0.00  0.00    +0.000 A 
ATOM     23  C   UNL     1      -3.099  -8.558  -4.415  0.00  0.00    +0.008 A 
ATOM     24  C   UNL     1      -4.148  -9.455  -4.493  0.00  0.00    +0.000 A 
ATOM     25  C   UNL     1      -4.115 -10.623  -3.754  0.00  0.00    +0.000 A 
ATOM     26  C   UNL     1      -3.033 -10.894  -2.938  0.00  0.00    +0.000 A 
ATOM     27  C   UNL     1      -1.982  -9.999  -2.863  0.00  0.00    +0.008 A 
ENDBRANCH  21  22
BRANCH  21  28
ATOM     28  C   UNL     1      -0.002  -7.989  -4.734  0.00  0.00    +0.208 C 
ATOM     29  O   UNL     1      -0.124  -7.212  -5.657  0.00  0.00    -0.288 OA
BRANCH  28  30
ATOM     30  C   UNL     1       0.996  -9.068  -4.807  0.00  0.00    +0.022 A 
ATOM     31  C   UNL     1       1.221  -9.894  -3.701  0.00  0.00    +0.011 A 
ATOM     32  C   UNL     1       2.158 -10.903  -3.778  0.00  0.00    +0.001 A 
ATOM     33  C   UNL     1       2.875 -11.099  -4.945  0.00  0.00    +0.000 A 
ATOM     34  C   UNL     1       2.659 -10.285  -6.044  0.00  0.00    +0.001 A 
ATOM     35  C   UNL     1       1.721  -9.276  -5.985  0.00  0.00    +0.011 A 
ENDBRANCH  28  30
ENDBRANCH  21  28
ENDBRANCH  20  21
ENDBRANCH   1  20
TORSDOF 7
