REMARK  Name = ZINC20483841
REMARK  6 active torsions:
REMARK  status: ('A' for Active; 'I' for Inactive)
REMARK    1  A    between atoms: C_1  and  C_2
REMARK    2  A    between atoms: C_5  and  N_20
REMARK    3  A    between atoms: C_7  and  N_8
REMARK    4  A    between atoms: C_9  and  C_11
REMARK    5  A    between atoms: C_11  and  S_12
REMARK    6  A    between atoms: S_12  and  C_13
REMARK                            x       y       z     vdW  Elec       q    Type
REMARK                         _______ _______ _______ _____ _____    ______ ____
ROOT
ATOM      1  N   UNL     1       0.025  -0.011   2.417  0.00  0.00    -0.285 N 
ATOM      2  C   UNL     1      -0.057  -0.689   3.579  0.00  0.00    +0.227 C 
ATOM      3  O   UNL     1      -0.040  -1.901   3.577  0.00  0.00    -0.275 OA
ATOM      4  H   UNL     1       0.078   0.958   2.423  0.00  0.00    +0.155 HD
ENDROOT
BRANCH   1  11
ATOM      5  C   UNL     1      -1.265   1.183   0.182  0.00  0.00    +0.045 C 
ATOM      6  C   UNL     1      -0.585  -0.158   0.085  0.00  0.00    -0.029 A 
ATOM      7  C   UNL     1      -0.572  -0.840  -1.117  0.00  0.00    +0.007 A 
ATOM      8  C   UNL     1       0.050  -2.069  -1.210  0.00  0.00    +0.023 A 
ATOM      9  C   UNL     1       0.666  -2.625  -0.095  0.00  0.00    +0.026 A 
ATOM     10  C   UNL     1       0.655  -1.942   1.113  0.00  0.00    +0.046 A 
ATOM     11  C   UNL     1       0.033  -0.705   1.202  0.00  0.00    +0.038 A 
BRANCH   9  12
ATOM     12  N   UNL     1       1.294  -3.869  -0.190  0.00  0.00    -0.358 N 
ATOM     13  H   UNL     1       1.301  -4.345  -1.035  0.00  0.00    +0.142 HD
ATOM     14  H   UNL     1       1.723  -4.256   0.589  0.00  0.00    +0.142 HD
ENDBRANCH   9  12
ENDBRANCH   1  11
BRANCH   2  15
ATOM     15  C   UNL     1      -0.168   0.061   4.882  0.00  0.00    +0.173 C 
BRANCH  15  16
ATOM     16  S   UNL     1      -0.259  -1.122   6.254  0.00  0.00    -0.078 S 
BRANCH  16  17
ATOM     17  C   UNL     1      -0.384  -0.104   7.687  0.00  0.00    +0.169 A 
ATOM     18  N   UNL     1      -0.397   1.208   7.551  0.00  0.00    -0.232 NA
ATOM     19  C   UNL     1      -0.490   2.012   8.607  0.00  0.00    +0.119 A 
ATOM     20  C   UNL     1      -0.576   1.486   9.864  0.00  0.00    +0.090 A 
ATOM     21  C   UNL     1      -0.563   0.088  10.018  0.00  0.00    +0.252 A 
ATOM     22  N   UNL     1      -0.472  -0.686   8.915  0.00  0.00    -0.302 N 
ATOM     23  O   UNL     1      -0.637  -0.415  11.127  0.00  0.00    -0.268 OA
ATOM     24  H   UNL     1      -0.466  -1.652   8.998  0.00  0.00    +0.171 HD
ENDBRANCH  16  17
ENDBRANCH  15  16
ENDBRANCH   2  15
TORSDOF 5
