REMARK  Name = ZINC35484479
REMARK  12 active torsions:
REMARK  status: ('A' for Active; 'I' for Inactive)
REMARK    1  A    between atoms: C_1  and  C_2
REMARK    2  A    between atoms: C_2  and  N_3
REMARK    3  A    between atoms: N_3  and  C_4
REMARK    4  A    between atoms: N_3  and  C_6
REMARK    5  A    between atoms: C_4  and  C_5
REMARK    6  A    between atoms: C_6  and  C_7
REMARK    7  A    between atoms: C_7  and  N_8
REMARK    8  A    between atoms: C_9  and  C_29
REMARK    9  A    between atoms: C_11  and  C_12
REMARK   10  A    between atoms: C_12  and  C_13
REMARK   11  A    between atoms: C_14  and  C_23
REMARK   12  A    between atoms: C_19  and  C_22
REMARK                            x       y       z     vdW  Elec       q    Type
REMARK                         _______ _______ _______ _____ _____    ______ ____
ROOT
ATOM      1  N   UNL     1      -1.347  -3.427   1.764  0.00  0.00    -0.285 N 
ATOM      2  C   UNL     1      -2.183  -4.206   2.685  0.00  0.00    +0.145 C 
ATOM      3  C   UNL     1      -1.645  -5.618   2.650  0.00  0.00    +0.078 C 
ATOM      4  C   UNL     1      -0.604  -5.618   1.786  0.00  0.00    +0.249 C 
ATOM      5  O   UNL     1       0.153  -6.694   1.470  0.00  0.00    -0.282 OA
ATOM      6  C   UNL     1      -0.429  -4.257   1.236  0.00  0.00    +0.288 C 
ATOM      7  O   UNL     1       0.420  -3.935   0.429  0.00  0.00    -0.266 OA
ENDROOT
BRANCH   2   8
ATOM      8  C   UNL     1      -3.618  -4.187   2.225  0.00  0.00    -0.022 A 
ATOM      9  C   UNL     1      -3.923  -4.451   0.903  0.00  0.00    +0.006 A 
ATOM     10  C   UNL     1      -5.240  -4.433   0.480  0.00  0.00    +0.000 A 
ATOM     11  C   UNL     1      -6.250  -4.152   1.380  0.00  0.00    +0.000 A 
ATOM     12  C   UNL     1      -5.945  -3.889   2.703  0.00  0.00    +0.000 A 
ATOM     13  C   UNL     1      -4.629  -3.911   3.126  0.00  0.00    +0.006 A 
ENDBRANCH   2   8
BRANCH   3  14
ATOM     14  C   UNL     1      -2.154  -6.767   3.406  0.00  0.00    +0.215 C 
ATOM     15  O   UNL     1      -3.203  -6.676   4.018  0.00  0.00    -0.285 OA
BRANCH  14  16
ATOM     16  C   UNL     1      -1.395  -8.032   3.425  0.00  0.00    +0.133 A 
ATOM     17  C   UNL     1      -1.823  -9.226   3.963  0.00  0.00    +0.051 A 
ATOM     18  N   UNL     1      -0.824 -10.130   3.768  0.00  0.00    -0.303 N 
ATOM     19  C   UNL     1      -0.705 -11.452   4.095  0.00  0.00    +0.093 A 
ATOM     20  C   UNL     1       0.413 -12.139   3.784  0.00  0.00    +0.018 A 
ATOM     21  C   UNL     1       1.475 -11.502   3.118  0.00  0.00    +0.008 A 
ATOM     22  C   UNL     1       1.372 -10.189   2.786  0.00  0.00    -0.008 A 
ATOM     23  C   UNL     1       0.196  -9.481   3.118  0.00  0.00    +0.141 A 
ATOM     24  N   UNL     1      -0.165  -8.225   2.915  0.00  0.00    -0.224 NA
ATOM     25  C   UNL     1       2.502  -9.494   2.072  0.00  0.00    +0.047 C 
ATOM     26  C   UNL     1      -3.146  -9.482   4.639  0.00  0.00    +0.066 C 
ENDBRANCH  14  16
ENDBRANCH   3  14
BRANCH   1  27
ATOM     27  C   UNL     1      -1.491  -2.000   1.468  0.00  0.00    +0.090 C 
BRANCH  27  28
ATOM     28  C   UNL     1      -2.445  -1.818   0.286  0.00  0.00    -0.060 C 
BRANCH  28  29
ATOM     29  N   UNL     1      -2.590  -0.387  -0.012  0.00  0.00    +0.380 N 
ATOM     30  H   UNL     1      -2.883   0.102   0.821  0.00  0.00    -0.082 HD
BRANCH  29  32
ATOM     31  C   UNL     1      -1.419   1.664  -0.662  0.00  0.00    -0.017 C 
ATOM     32  C   UNL     1      -1.300   0.151  -0.467  0.00  0.00    -0.082 C 
ENDBRANCH  29  32
BRANCH  29  33
ATOM     33  C   UNL     1      -3.596  -0.204  -1.066  0.00  0.00    -0.082 C 
ATOM     34  C   UNL     1      -4.965  -0.649  -0.547  0.00  0.00    -0.017 C 
ENDBRANCH  29  33
ENDBRANCH  28  29
ENDBRANCH  27  28
ENDBRANCH   1  27
TORSDOF 8
