REMARK  Name = ZINC14279111
REMARK  8 active torsions:
REMARK  status: ('A' for Active; 'I' for Inactive)
REMARK    1  A    between atoms: C_1  and  C_2
REMARK    2  A    between atoms: C_2  and  C_3
REMARK    3  A    between atoms: C_2  and  C_4
REMARK    4  A    between atoms: C_2  and  C_5
REMARK    5  A    between atoms: C_12  and  N_17
REMARK    6  A    between atoms: C_13  and  C_14
REMARK    7  A    between atoms: C_18  and  C_20
REMARK    8  A    between atoms: C_23  and  C_25
REMARK                            x       y       z     vdW  Elec       q    Type
REMARK                         _______ _______ _______ _____ _____    ______ ____
ROOT
ATOM      1  C   UNL     1     -11.732   0.989  -0.267  0.00  0.00    -0.000 C 
ATOM      2  C   UNL     1     -11.269   2.184   0.572  0.00  0.00    +0.009 C 
ATOM      3  C   UNL     1      -9.885   2.641   0.106  0.00  0.00    +0.037 C 
ATOM      4  C   UNL     1      -8.950   1.438   0.091  0.00  0.00    -0.023 A 
ATOM      5  C   UNL     1      -9.437   0.178   0.089  0.00  0.00    -0.004 A 
ATOM      6  S   UNL     1      -8.004  -0.861   0.071  0.00  0.00    -0.077 S 
ATOM      7  C   UNL     1      -6.774   0.359   0.066  0.00  0.00    +0.085 A 
ATOM      8  C   UNL     1      -7.501   1.542   0.085  0.00  0.00    +0.068 A 
ATOM      9  C   UNL     1     -10.877  -0.233   0.099  0.00  0.00    +0.046 C 
ENDROOT
BRANCH   8  10
ATOM     10  C   UNL     1      -6.831   2.845   0.093  0.00  0.00    +0.244 C 
ATOM     11  O   UNL     1      -6.562   3.398  -0.957  0.00  0.00    -0.270 OA
ATOM     12  N   UNL     1      -6.513   3.432   1.264  0.00  0.00    -0.325 N 
ATOM     13  H   UNL     1      -6.728   2.992   2.101  0.00  0.00    +0.145 HD
ATOM     14  H   UNL     1      -6.070   4.295   1.270  0.00  0.00    +0.145 HD
ENDBRANCH   8  10
BRANCH   1  16
ATOM     15  C   UNL     1     -14.050   1.919  -0.319  0.00  0.00    +0.011 C 
ATOM     16  C   UNL     1     -13.203   0.693   0.030  0.00  0.00    -0.035 C 
ATOM     17  C   UNL     1     -13.663  -0.500  -0.809  0.00  0.00    +0.011 C 
ATOM     18  C   UNL     1     -13.367   0.366   1.516  0.00  0.00    +0.011 C 
ENDBRANCH   1  16
BRANCH   7  19
ATOM     19  N   UNL     1      -5.399   0.194   0.052  0.00  0.00    -0.273 N 
ATOM     20  C   UNL     1      -4.868  -1.045   0.041  0.00  0.00    +0.284 C 
ATOM     21  O   UNL     1      -5.598  -2.019   0.043  0.00  0.00    -0.266 OA
ATOM     22  H   UNL     1      -4.817   0.971   0.051  0.00  0.00    +0.156 HD
BRANCH  20  23
ATOM     23  C   UNL     1      -3.415  -1.219   0.027  0.00  0.00    +0.190 A 
ATOM     24  C   UNL     1      -2.744  -2.423   0.014  0.00  0.00    +0.055 A 
ATOM     25  C   UNL     1      -1.378  -2.124   0.003  0.00  0.00    +0.050 A 
ATOM     26  C   UNL     1      -1.265  -0.763   0.010  0.00  0.00    +0.136 A 
ATOM     27  O   UNL     1      -2.498  -0.228   0.030  0.00  0.00    -0.450 OA
BRANCH  26  28
ATOM     28  C   UNL     1       0.002  -0.004   0.002  0.00  0.00    +0.019 A 
ATOM     29  C   UNL     1      -0.017   1.393   0.010  0.00  0.00    +0.013 A 
ATOM     30  C   UNL     1       1.169   2.096   0.002  0.00  0.00    +0.022 A 
ATOM     31  C   UNL     1       2.378   1.421  -0.013  0.00  0.00    +0.059 A 
ATOM     32  C   UNL     1       2.405   0.035  -0.021  0.00  0.00    +0.060 A 
ATOM     33  C   UNL     1       1.224  -0.680  -0.013  0.00  0.00    +0.033 A 
ATOM     34 CL   UNL     1       3.925  -0.803  -0.040  0.00  0.00    -0.082 Cl
ATOM     35 CL   UNL     1       3.867   2.313  -0.022  0.00  0.00    -0.082 Cl
ENDBRANCH  26  28
ENDBRANCH  20  23
ENDBRANCH   7  19
TORSDOF 5
