REMARK  Name = ZINC01230629
REMARK  9 active torsions:
REMARK  status: ('A' for Active; 'I' for Inactive)
REMARK    1  A    between atoms: C_1  and  C_2
REMARK    2  A    between atoms: C_4  and  C_26
REMARK    3  A    between atoms: C_5  and  N_9
REMARK    4  A    between atoms: C_6  and  C_8
REMARK    5  A    between atoms: C_10  and  C_12
REMARK    6  A    between atoms: C_12  and  S_13
REMARK    7  A    between atoms: S_13  and  C_14
REMARK    8  A    between atoms: C_19  and  C_25
REMARK    9  A    between atoms: C_20  and  C_24
REMARK                            x       y       z     vdW  Elec       q    Type
REMARK                         _______ _______ _______ _____ _____    ______ ____
ROOT
ATOM      1  C   UNL     1      -4.746   1.073  -0.559  0.00  0.00    +0.173 C 
ENDROOT
BRANCH   1   3
ATOM      2  N   UNL     1      -2.294   1.291  -0.322  0.00  0.00    -0.284 N 
ATOM      3  C   UNL     1      -3.504   1.882  -0.285  0.00  0.00    +0.228 C 
ATOM      4  O   UNL     1      -3.595   3.064  -0.031  0.00  0.00    -0.275 OA
ATOM      5  H   UNL     1      -2.226   0.331  -0.445  0.00  0.00    +0.155 HD
BRANCH   2  10
ATOM      6  C   UNL     1       2.413   4.408   0.244  0.00  0.00    +0.044 C 
ATOM      7  C   UNL     1       1.161   3.583   0.092  0.00  0.00    -0.050 A 
ATOM      8  C   UNL     1       0.190   3.615   1.076  0.00  0.00    +0.008 A 
ATOM      9  C   UNL     1      -0.958   2.859   0.940  0.00  0.00    -0.029 A 
ATOM     10  C   UNL     1      -1.134   2.062  -0.184  0.00  0.00    +0.039 A 
ATOM     11  C   UNL     1      -0.160   2.038  -1.173  0.00  0.00    -0.029 A 
ATOM     12  C   UNL     1       0.986   2.795  -1.031  0.00  0.00    +0.008 A 
ATOM     13  C   UNL     1      -0.350   1.180  -2.398  0.00  0.00    +0.045 C 
ATOM     14  C   UNL     1      -2.016   2.893   2.013  0.00  0.00    +0.045 C 
ENDBRANCH   2  10
ENDBRANCH   1   3
BRANCH   1  15
ATOM     15  S   UNL     1      -6.202   2.142  -0.435  0.00  0.00    -0.079 S 
BRANCH  15  16
ATOM     16  C   UNL     1      -7.471   0.972  -0.790  0.00  0.00    +0.168 A 
ATOM     17  N   UNL     1      -8.808   1.252  -0.831  0.00  0.00    -0.333 N 
ATOM     18  H   UNL     1      -9.232   2.143  -0.667  0.00  0.00    +0.168 HD
ATOM     19  C   UNL     1      -9.465   0.073  -1.142  0.00  0.00    +0.067 A 
ATOM     20  C   UNL     1     -10.797  -0.267  -1.320  0.00  0.00    +0.031 A 
ATOM     21  C   UNL     1     -11.139  -1.567  -1.633  0.00  0.00    -0.045 A 
ATOM     22  C   UNL     1     -10.158  -2.537  -1.771  0.00  0.00    -0.045 A 
ATOM     23  C   UNL     1      -8.829  -2.217  -1.599  0.00  0.00    +0.033 A 
ATOM     24  C   UNL     1      -8.467  -0.906  -1.281  0.00  0.00    +0.090 A 
ATOM     25  N   UNL     1      -7.273  -0.295  -1.061  0.00  0.00    -0.222 NA
ATOM     26  C   UNL     1     -10.548  -3.952  -2.113  0.00  0.00    +0.044 C 
ATOM     27  C   UNL     1     -12.588  -1.934  -1.826  0.00  0.00    +0.044 C 
ENDBRANCH  15  16
ENDBRANCH   1  15
TORSDOF 4
