REMARK  Name = ZINC12548570
REMARK  12 active torsions:
REMARK  status: ('A' for Active; 'I' for Inactive)
REMARK    1  A    between atoms: C_1  and  C_2
REMARK    2  A    between atoms: C_5  and  O_8
REMARK    3  A    between atoms: O_8  and  C_9
REMARK    4  A    between atoms: C_9  and  C_11
REMARK    5  A    between atoms: C_9  and  C_12
REMARK    6  A    between atoms: N_14  and  C_15
REMARK    7  A    between atoms: C_17  and  S_22
REMARK    8  A    between atoms: C_20  and  O_21
REMARK    9  A    between atoms: S_22  and  N_25
REMARK   10  A    between atoms: N_25  and  C_26
REMARK   11  A    between atoms: C_31  and  O_32
REMARK   12  A    between atoms: O_32  and  C_33
REMARK                            x       y       z     vdW  Elec       q    Type
REMARK                         _______ _______ _______ _____ _____    ______ ____
ROOT
ATOM      1  C   UNL     1       2.160   3.299   3.534  0.00  0.00    +0.077 A 
ATOM      2  C   UNL     1       2.091   2.439   2.448  0.00  0.00    +0.055 A 
ATOM      3  C   UNL     1       1.492   2.856   1.274  0.00  0.00    +0.110 A 
ATOM      4  C   UNL     1       0.967   4.131   1.177  0.00  0.00    +0.032 A 
ATOM      5  C   UNL     1       1.028   4.992   2.257  0.00  0.00    +0.049 A 
ATOM      6  C   UNL     1       1.626   4.582   3.437  0.00  0.00    +0.138 A 
ENDROOT
BRANCH   1   9
ATOM      7  C   UNL     1       3.825   2.045   4.686  0.00  0.00    +0.258 C 
ATOM      8  O   UNL     1       4.203   1.596   3.624  0.00  0.00    -0.271 OA
ATOM      9  N   UNL     1       2.767   2.879   4.726  0.00  0.00    -0.279 N 
ATOM     10  H   UNL     1       2.425   3.188   5.579  0.00  0.00    +0.155 HD
BRANCH   7  11
ATOM     11  C   UNL     1       4.538   1.671   5.960  0.00  0.00    +0.256 C 
ATOM     12  C   UNL     1       3.592   0.870   6.857  0.00  0.00    +0.062 C 
BRANCH  11  13
ATOM     13  O   UNL     1       5.685   0.878   5.648  0.00  0.00    -0.480 OA
BRANCH  13  18
ATOM     14  C   UNL     1       9.904   0.909   9.379  0.00  0.00    +0.044 C 
ATOM     15  C   UNL     1       8.775   0.900   8.381  0.00  0.00    -0.050 A 
ATOM     16  C   UNL     1       8.924   0.239   7.176  0.00  0.00    +0.007 A 
ATOM     17  C   UNL     1       7.891   0.230   6.259  0.00  0.00    +0.046 A 
ATOM     18  C   UNL     1       6.703   0.886   6.548  0.00  0.00    +0.122 A 
ATOM     19  C   UNL     1       6.558   1.554   7.756  0.00  0.00    +0.046 A 
ATOM     20  C   UNL     1       7.592   1.555   8.671  0.00  0.00    +0.007 A 
ENDBRANCH  13  18
ENDBRANCH  11  13
ENDBRANCH   7  11
ENDBRANCH   1   9
BRANCH   3  21
ATOM     21  S   UNL     1       1.404   1.761  -0.104  0.00  0.00    +0.073 S 
ATOM     22  O   UNL     1       2.456   0.819   0.058  0.00  0.00    -0.150 OA
ATOM     23  O   UNL     1       1.282   2.576  -1.262  0.00  0.00    -0.150 OA
BRANCH  21  24
ATOM     24  N   UNL     1      -0.013   0.916   0.031  0.00  0.00    -0.213 N 
ATOM     25  H   UNL     1       0.004  -0.051   0.105  0.00  0.00    +0.174 HD
BRANCH  24  26
ATOM     26  C   UNL     1      -1.236   1.597   0.033  0.00  0.00    +0.090 A 
ATOM     27  C   UNL     1      -1.404   2.728  -0.752  0.00  0.00    +0.028 A 
ATOM     28  C   UNL     1      -2.615   3.395  -0.752  0.00  0.00    +0.002 A 
ATOM     29  C   UNL     1      -3.657   2.944   0.036  0.00  0.00    +0.004 A 
ATOM     30  C   UNL     1      -3.495   1.821   0.826  0.00  0.00    +0.047 A 
ATOM     31  C   UNL     1      -2.287   1.143   0.828  0.00  0.00    +0.142 A 
BRANCH  31  32
ATOM     32  O   UNL     1      -2.127   0.038   1.605  0.00  0.00    -0.493 OA
ATOM     33  C   UNL     1      -3.247  -0.369   2.393  0.00  0.00    +0.277 C 
ENDBRANCH  31  32
ENDBRANCH  24  26
ENDBRANCH  21  24
ENDBRANCH   3  21
BRANCH   6  34
ATOM     34  O   UNL     1       1.691   5.429   4.498  0.00  0.00    -0.505 OA
ATOM     35  H   UNL     1       2.488   5.977   4.516  0.00  0.00    +0.292 HD
ENDBRANCH   6  34
TORSDOF 9
