REMARK  Name = ZINC65259938
REMARK  4 active torsions:
REMARK  status: ('A' for Active; 'I' for Inactive)
REMARK    1  A    between atoms: C_4  and  C_7
REMARK    2  A    between atoms: C_7  and  N_8
REMARK    3  A    between atoms: N_22  and  S_24
REMARK    4  A    between atoms: S_24  and  C_27
REMARK                            x       y       z     vdW  Elec       q    Type
REMARK                         _______ _______ _______ _____ _____    ______ ____
ROOT
ATOM      1  N   UNL     1       4.152  -0.952   1.338  0.00  0.00    -0.371 N 
ATOM      2  C   UNL     1       5.264  -1.574   1.560  0.00  0.00    +0.098 C 
ATOM      3  N   UNL     1       6.068  -2.018   0.525  0.00  0.00    -0.301 N 
ATOM      4  C   UNL     1       6.719  -3.253   0.689  0.00  0.00    +0.053 A 
ATOM      5  C   UNL     1       7.333  -3.859  -0.396  0.00  0.00    +0.025 A 
ATOM      6  C   UNL     1       7.981  -5.070  -0.235  0.00  0.00    +0.002 A 
ATOM      7  C   UNL     1       8.019  -5.679   1.006  0.00  0.00    +0.002 A 
ATOM      8  C   UNL     1       7.405  -5.083   2.093  0.00  0.00    +0.025 A 
ATOM      9  C   UNL     1       6.751  -3.870   1.938  0.00  0.00    +0.049 A 
ATOM     10  N   UNL     1       6.114  -3.276   3.039  0.00  0.00    -0.329 N 
ATOM     11  C   UNL     1       5.757  -1.849   2.965  0.00  0.00    +0.100 C 
ATOM     12  C   UNL     1       6.983  -0.987   3.259  0.00  0.00    +0.036 C 
ATOM     13  C   UNL     1       7.499  -1.294   4.667  0.00  0.00    +0.020 C 
ATOM     14  C   UNL     1       6.408  -0.963   5.689  0.00  0.00    +0.109 C 
ATOM     15  N   UNL     1       5.183  -1.690   5.329  0.00  0.00    -0.174 NA
ATOM     16  C   UNL     1       4.647  -1.538   3.968  0.00  0.00    +0.142 C 
ATOM     17  H   UNL     1       3.610  -0.648   2.082  0.00  0.00    +0.161 HD
ATOM     18  H   UNL     1       5.915  -3.796   3.833  0.00  0.00    +0.147 HD
ATOM     19  H   UNL     1       6.179  -1.496  -0.284  0.00  0.00    +0.153 HD
ENDROOT
BRANCH  15  20
ATOM     20  S   UNL     1       4.421  -2.661   6.433  0.00  0.00    +0.062 S 
ATOM     21  O   UNL     1       3.671  -3.611   5.688  0.00  0.00    -0.153 OA
ATOM     22  O   UNL     1       5.405  -3.044   7.384  0.00  0.00    -0.153 OA
BRANCH  20  23
ATOM     23  C   UNL     1       3.254  -1.658   7.291  0.00  0.00    +0.123 A 
ATOM     24  C   UNL     1       3.624  -0.982   8.444  0.00  0.00    +0.031 A 
ATOM     25  C   UNL     1       2.672  -0.205   9.086  0.00  0.00    +0.022 A 
ATOM     26  C   UNL     1       1.396  -0.130   8.560  0.00  0.00    +0.111 A 
ATOM     27  N   UNL     1       1.081  -0.788   7.462  0.00  0.00    -0.261 NA
ATOM     28  C   UNL     1       1.961  -1.531   6.821  0.00  0.00    +0.139 A 
ENDBRANCH  20  23
ENDBRANCH  15  20
BRANCH   1  29
ATOM     29  C   UNL     1       3.711  -0.707  -0.038  0.00  0.00    +0.149 C 
BRANCH  29  33
ATOM     30  C   UNL     1      -0.017   1.378   0.010  0.00  0.00    +0.000 A 
ATOM     31  C   UNL     1       1.171   2.086   0.002  0.00  0.00    +0.000 A 
ATOM     32  C   UNL     1       2.377   1.411  -0.013  0.00  0.00    +0.005 A 
ATOM     33  C   UNL     1       2.396   0.029  -0.020  0.00  0.00    -0.028 A 
ATOM     34  C   UNL     1       1.208  -0.679  -0.012  0.00  0.00    +0.005 A 
ATOM     35  C   UNL     1       0.002  -0.004   0.002  0.00  0.00    +0.000 A 
ENDBRANCH  29  33
ENDBRANCH   1  29
TORSDOF 4
