REMARK  Name = ZINC62990948
REMARK  3 active torsions:
REMARK  status: ('A' for Active; 'I' for Inactive)
REMARK    1  A    between atoms: C_3  and  N_12
REMARK    2  A    between atoms: C_4  and  C_8
REMARK    3  A    between atoms: C_13  and  C_15
REMARK                            x       y       z     vdW  Elec       q    Type
REMARK                         _______ _______ _______ _____ _____    ______ ____
ROOT
ATOM      1  C   UNL     1       0.275   0.938  -1.127  0.00  0.00    +0.017 A 
ATOM      2  C   UNL     1       1.459   1.646  -1.094  0.00  0.00    +0.029 A 
ATOM      3  C   UNL     1       2.385   1.405  -0.079  0.00  0.00    +0.077 A 
ATOM      4  C   UNL     1       2.107   0.449   0.899  0.00  0.00    +0.081 A 
ATOM      5  C   UNL     1       0.920  -0.253   0.856  0.00  0.00    +0.029 A 
ATOM      6  C   UNL     1       0.005  -0.009  -0.155  0.00  0.00    +0.019 A 
ATOM      7 BR   UNL     1      -1.620  -0.974  -0.206  0.00  0.00    -0.050 Br
ENDROOT
BRANCH   3   8
ATOM      8  N   UNL     1       3.564   2.106  -0.041  0.00  0.00    -0.237 NA
ATOM      9  C   UNL     1       3.552   3.406  -0.113  0.00  0.00    +0.096 C 
ATOM     10  N   UNL     1       2.361   4.080  -0.098  0.00  0.00    -0.346 N 
ATOM     11  H   UNL     1       1.533   3.599   0.053  0.00  0.00    +0.143 HD
ATOM     12  H   UNL     1       2.346   5.040  -0.239  0.00  0.00    +0.143 HD
BRANCH   9  13
ATOM     13  C   UNL     1       4.848   4.168  -0.212  0.00  0.00    +0.052 C 
ATOM     14  C   UNL     1       5.924   3.266  -0.820  0.00  0.00    +0.011 C 
ATOM     15  C   UNL     1       7.241   4.039  -0.920  0.00  0.00    +0.001 C 
ATOM     16  C   UNL     1       7.678   4.484   0.476  0.00  0.00    +0.000 C 
ATOM     17  C   UNL     1       6.602   5.386   1.085  0.00  0.00    +0.001 C 
ATOM     18  C   UNL     1       5.286   4.613   1.185  0.00  0.00    +0.011 C 
ENDBRANCH   9  13
ENDBRANCH   3   8
BRANCH   4  19
ATOM     19  C   UNL     1       3.102   0.182   1.999  0.00  0.00    +0.419 C 
ATOM     20  F   UNL     1       2.602  -0.810   2.849  0.00  0.00    -0.166 F 
ATOM     21  F   UNL     1       4.310  -0.248   1.440  0.00  0.00    -0.166 F 
ATOM     22  F   UNL     1       3.317   1.357   2.728  0.00  0.00    -0.166 F 
ENDBRANCH   4  19
TORSDOF 3
