REMARK  Name = ZINC33936039
REMARK  11 active torsions:
REMARK  status: ('A' for Active; 'I' for Inactive)
REMARK    1  A    between atoms: C_1  and  C_2
REMARK    2  A    between atoms: C_9  and  C_14
REMARK    3  A    between atoms: C_14  and  C_16
REMARK    4  A    between atoms: C_14  and  N_26
REMARK    5  A    between atoms: N_20  and  C_21
REMARK    6  A    between atoms: N_26  and  C_27
REMARK    7  A    between atoms: N_26  and  C_36
REMARK    8  A    between atoms: C_27  and  C_28
REMARK    9  A    between atoms: C_31  and  O_34
REMARK   10  A    between atoms: O_34  and  C_35
REMARK   11  A    between atoms: C_36  and  C_37
REMARK                            x       y       z     vdW  Elec       q    Type
REMARK                         _______ _______ _______ _____ _____    ______ ____
ROOT
ATOM      1  C   UNL     1      -0.594  -4.688   3.601  0.00  0.00    +0.163 C 
ENDROOT
BRANCH   1  10
ATOM      2  C   UNL     1      -1.778   2.655   3.050  0.00  0.00    +0.044 C 
ATOM      3  C   UNL     1      -1.440   1.327   2.422  0.00  0.00    -0.050 A 
ATOM      4  C   UNL     1      -1.193   1.255   1.058  0.00  0.00    +0.005 A 
ATOM      5  C   UNL     1      -0.882   0.052   0.462  0.00  0.00    +0.026 A 
ATOM      6  C   UNL     1      -0.813  -1.103   1.235  0.00  0.00    +0.049 A 
ATOM      7  C   UNL     1      -1.063  -1.026   2.618  0.00  0.00    -0.001 A 
ATOM      8  C   UNL     1      -1.373   0.207   3.201  0.00  0.00    +0.013 A 
ATOM      9  C   UNL     1      -0.989  -2.247   3.422  0.00  0.00    +0.021 A 
ATOM     10  C   UNL     1      -0.680  -3.413   2.802  0.00  0.00    +0.042 A 
ATOM     11  C   UNL     1      -0.437  -3.436   1.412  0.00  0.00    +0.254 A 
ATOM     12  O   UNL     1      -0.161  -4.495   0.875  0.00  0.00    -0.268 OA
ATOM     13  N   UNL     1      -0.503  -2.320   0.665  0.00  0.00    -0.322 N 
ATOM     14  H   UNL     1      -0.332  -2.372  -0.288  0.00  0.00    +0.169 HD
ENDBRANCH   1  10
BRANCH   1  15
ATOM     15  C   UNL     1      -1.679  -5.634   3.154  0.00  0.00    +0.173 A 
ATOM     16  N   UNL     1      -1.623  -6.466   2.143  0.00  0.00    -0.111 NA
ATOM     17  N   UNL     1      -2.744  -7.099   2.086  0.00  0.00    -0.023 NA
ATOM     18  N   UNL     1      -3.513  -6.693   3.035  0.00  0.00    -0.044 NA
ATOM     19  N   UNL     1      -2.890  -5.793   3.719  0.00  0.00    -0.224 N 
BRANCH  19  20
ATOM     20  C   UNL     1      -3.405  -5.077   4.888  0.00  0.00    +0.111 C 
ATOM     21  C   UNL     1      -3.838  -6.082   5.976  0.00  0.00    +0.027 C 
ATOM     22  C   UNL     1      -5.104  -5.445   6.600  0.00  0.00    +0.002 C 
ATOM     23  C   UNL     1      -5.815  -4.824   5.372  0.00  0.00    +0.002 C 
ATOM     24  C   UNL     1      -4.662  -4.277   4.505  0.00  0.00    +0.027 C 
ENDBRANCH  19  20
ENDBRANCH   1  15
BRANCH   1  25
ATOM     25  N   UNL     1       0.719  -5.312   3.389  0.00  0.00    -0.282 NA
BRANCH  25  26
ATOM     26  C   UNL     1       0.830  -6.571   4.137  0.00  0.00    +0.120 C 
BRANCH  26  27
ATOM     27  C   UNL     1       0.697  -6.292   5.612  0.00  0.00    -0.033 A 
ATOM     28  C   UNL     1       1.818  -5.976   6.358  0.00  0.00    +0.008 A 
ATOM     29  C   UNL     1       1.699  -5.721   7.710  0.00  0.00    +0.046 A 
ATOM     30  C   UNL     1       0.454  -5.781   8.320  0.00  0.00    +0.120 A 
ATOM     31  C   UNL     1      -0.669  -6.098   7.569  0.00  0.00    +0.046 A 
ATOM     32  C   UNL     1      -0.545  -6.348   6.216  0.00  0.00    +0.008 A 
BRANCH  30  33
ATOM     33  O   UNL     1       0.335  -5.530   9.650  0.00  0.00    -0.495 OA
ATOM     34  C   UNL     1      -0.978  -5.611  10.210  0.00  0.00    +0.277 C 
ENDBRANCH  30  33
ENDBRANCH  26  27
ENDBRANCH  25  26
BRANCH  25  35
ATOM     35  C   UNL     1       1.804  -4.389   3.746  0.00  0.00    +0.117 C 
BRANCH  35  36
ATOM     36  C   UNL     1       3.132  -4.934   3.217  0.00  0.00    +0.132 C 
ATOM     37  C   UNL     1       4.279  -3.968   3.585  0.00  0.00    +0.035 C 
ATOM     38  C   UNL     1       5.160  -4.001   2.306  0.00  0.00    +0.031 C 
ATOM     39  C   UNL     1       4.080  -4.167   1.208  0.00  0.00    +0.160 C 
ATOM     40  O   UNL     1       3.084  -5.027   1.788  0.00  0.00    -0.375 OA
ENDBRANCH  35  36
ENDBRANCH  25  35
ENDBRANCH   1  25
TORSDOF 9
