REMARK  Name = ZINC38753176
REMARK  5 active torsions:
REMARK  status: ('A' for Active; 'I' for Inactive)
REMARK    1  A    between atoms: C_6  and  C_7
REMARK    2  A    between atoms: C_9  and  C_12
REMARK    3  A    between atoms: C_12  and  N_13
REMARK    4  A    between atoms: C_14  and  C_16
REMARK    5  A    between atoms: C_16  and  C_17
REMARK                            x       y       z     vdW  Elec       q    Type
REMARK                         _______ _______ _______ _____ _____    ______ ____
ROOT
ATOM      1  N   UNL     1      -2.562  -4.706   4.134  0.00  0.00    -0.310 N 
ATOM      2  C   UNL     1      -3.171  -5.864   3.810  0.00  0.00    +0.215 C 
ATOM      3  O   UNL     1      -2.666  -6.922   4.117  0.00  0.00    -0.276 OA
ATOM      4  H   UNL     1      -2.966  -3.860   3.889  0.00  0.00    +0.149 HD
ENDROOT
BRANCH   1   5
ATOM      5  C   UNL     1      -1.288  -4.727   4.858  0.00  0.00    +0.163 C 
BRANCH   5   8
ATOM      6  C   UNL     1      -0.471  -1.338   6.082  0.00  0.00    +0.168 A 
ATOM      7  C   UNL     1      -1.047  -2.559   6.256  0.00  0.00    +0.077 A 
ATOM      8  C   UNL     1      -0.822  -3.314   5.096  0.00  0.00    +0.101 A 
ATOM      9  N   UNL     1      -0.141  -2.583   4.258  0.00  0.00    -0.081 NA
ATOM     10  O   UNL     1       0.090  -1.321   4.858  0.00  0.00    -0.354 OA
BRANCH   6  16
ATOM     11  C   UNL     1       0.161   0.978   6.744  0.00  0.00    +0.014 A 
ATOM     12  C   UNL     1       0.161   2.011   7.659  0.00  0.00    +0.039 A 
ATOM     13  C   UNL     1      -0.460   1.851   8.887  0.00  0.00    +0.123 A 
ATOM     14  C   UNL     1      -1.084   0.655   9.204  0.00  0.00    +0.039 A 
ATOM     15  C   UNL     1      -1.091  -0.384   8.297  0.00  0.00    +0.014 A 
ATOM     16  C   UNL     1      -0.467  -0.229   7.058  0.00  0.00    +0.020 A 
ATOM     17  F   UNL     1      -0.457   2.866   9.780  0.00  0.00    -0.205 F 
ENDBRANCH   6  16
ENDBRANCH   5   8
ENDBRANCH   1   5
BRANCH   2  18
ATOM     18  C   UNL     1      -4.481  -5.843   3.065  0.00  0.00    +0.119 C 
BRANCH  18  19
ATOM     19  C   UNL     1      -5.029  -7.267   2.956  0.00  0.00    +0.102 C 
ATOM     20  C   UNL     1      -5.287  -7.810   4.379  0.00  0.00    +0.100 C 
ATOM     21  S   UNL     1      -6.888  -8.679   4.103  0.00  0.00    -0.088 S 
ATOM     22  C   UNL     1      -7.375  -7.839   2.619  0.00  0.00    +0.159 C 
ATOM     23  N   UNL     1      -8.551  -7.769   2.082  0.00  0.00    -0.259 NA
ATOM     24  C   UNL     1      -8.724  -6.946   0.885  0.00  0.00    +0.120 C 
ATOM     25  C   UNL     1      -9.949  -7.374   0.092  0.00  0.00    +0.027 C 
ATOM     26  C   UNL     1      -9.723  -8.752  -0.533  0.00  0.00    +0.002 C 
ATOM     27  C   UNL     1      -8.499  -8.687  -1.451  0.00  0.00    +0.001 C 
ATOM     28  C   UNL     1      -7.270  -8.322  -0.619  0.00  0.00    +0.015 C 
ATOM     29  C   UNL     1      -7.474  -6.966   0.017  0.00  0.00    +0.100 C 
ATOM     30  C   UNL     1      -6.252  -6.692   0.867  0.00  0.00    +0.227 C 
ATOM     31  O   UNL     1      -5.338  -6.008   0.455  0.00  0.00    -0.275 OA
ATOM     32  N   UNL     1      -6.221  -7.245   2.123  0.00  0.00    -0.246 N 
ENDBRANCH  18  19
ENDBRANCH   2  18
TORSDOF 5
