REMARK  Name = ZINC20718587
REMARK  5 active torsions:
REMARK  status: ('A' for Active; 'I' for Inactive)
REMARK    1  A    between atoms: C_1  and  C_2
REMARK    2  A    between atoms: C_4  and  N_30
REMARK    3  A    between atoms: C_9  and  C_18
REMARK    4  A    between atoms: C_27  and  O_28
REMARK    5  A    between atoms: O_28  and  C_29
REMARK                            x       y       z     vdW  Elec       q    Type
REMARK                         _______ _______ _______ _____ _____    ______ ____
ROOT
ATOM      1  C   UNL     1      -1.080  -2.359   0.573  0.00  0.00    +0.046 C 
ATOM      2  C   UNL     1      -1.158  -0.863   0.411  0.00  0.00    -0.027 A 
ATOM      3  C   UNL     1      -2.383  -0.235   0.469  0.00  0.00    +0.038 A 
ATOM      4  C   UNL     1      -2.471   1.137   0.322  0.00  0.00    +0.127 A 
ATOM      5  C   UNL     1      -1.321   1.877   0.122  0.00  0.00    +0.038 A 
ATOM      6  C   UNL     1      -0.090   1.258   0.069  0.00  0.00    -0.017 A 
ATOM      7  C   UNL     1       0.011  -0.129   0.205  0.00  0.00    +0.034 A 
ATOM      8  N   UNL     1       1.211  -0.835   0.140  0.00  0.00    -0.336 N 
ATOM      9  C   UNL     1       2.441  -0.038   0.008  0.00  0.00    +0.109 C 
ATOM     10  C   UNL     1       2.131   1.110  -0.930  0.00  0.00    +0.029 C 
ATOM     11  C   UNL     1       1.159   2.026  -0.122  0.00  0.00    +0.049 C 
ATOM     12  C   UNL     1       1.207   3.307  -0.870  0.00  0.00    -0.023 C 
ATOM     13  C   UNL     1       2.392   3.406  -1.462  0.00  0.00    -0.030 C 
ATOM     14  C   UNL     1       3.225   2.154  -1.176  0.00  0.00    +0.033 C 
ATOM     15  H   UNL     1       1.268  -1.932   0.181  0.00  0.00    +0.147 HD
ENDROOT
BRANCH   9  16
ATOM     16  C   UNL     1       3.545  -0.888  -0.568  0.00  0.00    +0.022 A 
ATOM     17  C   UNL     1       4.815  -0.897   0.031  0.00  0.00    -0.009 A 
ATOM     18  C   UNL     1       5.085  -0.131   1.179  0.00  0.00    +0.009 A 
ATOM     19  C   UNL     1       6.326  -0.168   1.736  0.00  0.00    +0.001 A 
ATOM     20  C   UNL     1       7.335  -0.960   1.190  0.00  0.00    +0.001 A 
ATOM     21  C   UNL     1       7.108  -1.719   0.083  0.00  0.00    +0.008 A 
ATOM     22  C   UNL     1       5.839  -1.706  -0.521  0.00  0.00    -0.017 A 
ATOM     23  C   UNL     1       5.569  -2.478  -1.665  0.00  0.00    +0.012 A 
ATOM     24  C   UNL     1       4.330  -2.443  -2.224  0.00  0.00    +0.046 A 
ATOM     25  C   UNL     1       3.317  -1.649  -1.678  0.00  0.00    +0.126 A 
BRANCH  25  26
ATOM     26  O   UNL     1       2.088  -1.637  -2.259  0.00  0.00    -0.495 OA
ATOM     27  C   UNL     1       1.910  -2.454  -3.418  0.00  0.00    +0.277 C 
ENDBRANCH  25  26
ENDBRANCH   9  16
BRANCH   4  28
ATOM     28  N   UNL     1      -3.788   1.808   0.378  0.00  0.00    +0.056 N 
ATOM     29  O   UNL     1      -4.799   1.153   0.554  0.00  0.00    -0.126 OA
ATOM     30  O   UNL     1      -3.861   3.017   0.248  0.00  0.00    -0.126 OA
ENDBRANCH   4  28
TORSDOF 3
