REMARK  Name = ZINC56847241
REMARK  6 active torsions:
REMARK  status: ('A' for Active; 'I' for Inactive)
REMARK    1  A    between atoms: C_1  and  N_2
REMARK    2  A    between atoms: N_2  and  C_3
REMARK    3  A    between atoms: C_3  and  C_4
REMARK    4  A    between atoms: C_8  and  C_10
REMARK    5  A    between atoms: N_15  and  C_16
REMARK    6  A    between atoms: C_16  and  C_17
REMARK                            x       y       z     vdW  Elec       q    Type
REMARK                         _______ _______ _______ _____ _____    ______ ____
ROOT
ATOM      1  C   UNL     1      -0.816   1.435  -0.040  0.00  0.00    +0.134 C 
ATOM      2  N   UNL     1      -0.576  -0.010  -0.024  0.00  0.00    -0.284 N 
ATOM      3  C   UNL     1      -0.326  -0.665  -1.175  0.00  0.00    +0.303 C 
ATOM      4  O   UNL     1      -0.127  -1.865  -1.161  0.00  0.00    -0.253 OA
ATOM      5  N   UNL     1      -0.296   0.009  -2.341  0.00  0.00    -0.295 N 
ATOM      6  H   UNL     1      -0.455   0.966  -2.352  0.00  0.00    +0.151 HD
ENDROOT
BRANCH   2   7
ATOM      7  C   UNL     1      -0.608  -0.744   1.244  0.00  0.00    +0.144 C 
BRANCH   7   8
ATOM      8  C   UNL     1      -2.011  -1.228   1.509  0.00  0.00    -0.029 A 
ATOM      9  C   UNL     1      -2.897  -0.428   2.209  0.00  0.00    +0.005 A 
ATOM     10  C   UNL     1      -4.186  -0.865   2.455  0.00  0.00    +0.001 A 
ATOM     11  C   UNL     1      -4.596  -2.103   2.005  0.00  0.00    +0.013 A 
ATOM     12  C   UNL     1      -3.707  -2.915   1.299  0.00  0.00    +0.037 A 
ATOM     13  C   UNL     1      -2.410  -2.466   1.048  0.00  0.00    +0.018 A 
BRANCH  12  14
ATOM     14  C   UNL     1      -4.140  -4.243   0.814  0.00  0.00    +0.242 C 
ATOM     15  O   UNL     1      -3.364  -4.948   0.199  0.00  0.00    -0.270 OA
ATOM     16  N   UNL     1      -5.395  -4.672   1.053  0.00  0.00    -0.325 N 
ATOM     17  H   UNL     1      -6.014  -4.109   1.544  0.00  0.00    +0.145 HD
ATOM     18  H   UNL     1      -5.679  -5.543   0.735  0.00  0.00    +0.145 HD
ENDBRANCH  12  14
ENDBRANCH   7   8
ENDBRANCH   2   7
BRANCH   5  19
ATOM     19  C   UNL     1      -0.024  -0.702  -3.592  0.00  0.00    +0.142 C 
BRANCH  19  20
ATOM     20  C   UNL     1      -0.047   0.273  -4.740  0.00  0.00    -0.014 A 
ATOM     21  C   UNL     1      -1.233   0.535  -5.415  0.00  0.00    +0.010 A 
ATOM     22  C   UNL     1      -1.211   1.437  -6.463  0.00  0.00    +0.042 A 
ATOM     23  C   UNL     1      -0.008   2.048  -6.804  0.00  0.00    +0.099 A 
ATOM     24  N   UNL     1       1.101   1.772  -6.137  0.00  0.00    -0.349 N 
ATOM     25  C   UNL     1       1.109   0.920  -5.129  0.00  0.00    +0.089 A 
ATOM     26  N   UNL     1       0.029   2.956  -7.856  0.00  0.00    -0.317 N 
ATOM     27  C   UNL     1      -1.217   3.352  -8.474  0.00  0.00    +0.106 C 
ATOM     28  C   UNL     1      -1.554   2.381  -9.632  0.00  0.00    +0.019 C 
ATOM     29  C   UNL     1      -0.639   2.598 -10.763  0.00  0.00    +0.002 C 
ATOM     30  C   UNL     1       0.827   2.316 -10.448  0.00  0.00    +0.002 C 
ATOM     31  C   UNL     1       1.451   3.542  -9.830  0.00  0.00    +0.019 C 
ATOM     32  C   UNL     1       1.337   3.481  -8.292  0.00  0.00    +0.106 C 
ATOM     33  H   UNL     1       1.929   2.209  -6.393  0.00  0.00    +0.167 HD
ENDBRANCH  19  20
ENDBRANCH   5  19
TORSDOF 5
