REMARK  Name = ZINC10723255
REMARK  11 active torsions:
REMARK  status: ('A' for Active; 'I' for Inactive)
REMARK    1  A    between atoms: C_1  and  C_2
REMARK    2  A    between atoms: C_3  and  C_33
REMARK    3  A    between atoms: C_4  and  C_32
REMARK    4  A    between atoms: C_7  and  C_8
REMARK    5  A    between atoms: C_8  and  C_10
REMARK    6  A    between atoms: C_10  and  C_12
REMARK    7  A    between atoms: C_10  and  O_13
REMARK    8  A    between atoms: O_13  and  C_14
REMARK    9  A    between atoms: C_14  and  C_16
REMARK   10  A    between atoms: C_16  and  N_17
REMARK   11  A    between atoms: C_33  and  C_35
REMARK                            x       y       z     vdW  Elec       q    Type
REMARK                         _______ _______ _______ _____ _____    ______ ____
ROOT
ATOM      1  C   UNL     1       0.925   6.878  -1.452  0.00  0.00    +0.328 C 
ATOM      2  O   UNL     1       0.288   6.493  -2.404  0.00  0.00    -0.249 OA
ENDROOT
BRANCH   1   3
ATOM      3  O   UNL     1       2.165   7.362  -1.626  0.00  0.00    -0.452 OA
BRANCH   3   4
ATOM      4  C   UNL     1       2.676   7.394  -2.985  0.00  0.00    +0.245 C 
ATOM      5  C   UNL     1       3.397   6.080  -3.289  0.00  0.00    +0.061 C 
BRANCH   4   6
ATOM      6  C   UNL     1       3.640   8.542  -3.133  0.00  0.00    +0.219 C 
ATOM      7  O   UNL     1       4.155   9.033  -2.149  0.00  0.00    -0.287 OA
BRANCH   6  14
ATOM      8  C   UNL     1       5.592  10.895  -3.692  0.00  0.00    +0.047 C 
ATOM      9  C   UNL     1       4.806  10.089  -4.694  0.00  0.00    -0.012 A 
ATOM     10  C   UNL     1       4.810  10.255  -6.098  0.00  0.00    +0.041 A 
ATOM     11  C   UNL     1       3.948   9.304  -6.624  0.00  0.00    +0.024 A 
ATOM     12  N   UNL     1       3.439   8.582  -5.615  0.00  0.00    -0.355 N 
ATOM     13  H   UNL     1       2.812   7.849  -5.711  0.00  0.00    +0.166 HD
ATOM     14  C   UNL     1       3.946   9.049  -4.419  0.00  0.00    +0.090 A 
ATOM     15  C   UNL     1       3.639   9.109  -8.086  0.00  0.00    +0.064 C 
BRANCH  10  16
ATOM     16  C   UNL     1       5.580  11.246  -6.856  0.00  0.00    +0.162 C 
ATOM     17  O   UNL     1       5.117  12.349  -7.059  0.00  0.00    -0.292 OA
ATOM     18  C   UNL     1       6.948  10.895  -7.383  0.00  0.00    +0.091 C 
ENDBRANCH  10  16
ENDBRANCH   6  14
ENDBRANCH   4   6
ENDBRANCH   3   4
ENDBRANCH   1   3
BRANCH   1  19
ATOM     19  C   UNL     1       0.328   6.814  -0.070  0.00  0.00    +0.242 C 
BRANCH  19  20
ATOM     20  N   UNL     1      -1.022   6.252  -0.147  0.00  0.00    -0.329 N 
ATOM     21  C   UNL     1      -1.179   4.887  -0.037  0.00  0.00    +0.054 A 
ATOM     22  C   UNL     1      -0.065   4.069   0.144  0.00  0.00    +0.026 A 
ATOM     23  C   UNL     1      -0.224   2.705   0.255  0.00  0.00    +0.002 A 
ATOM     24  C   UNL     1      -1.485   2.131   0.188  0.00  0.00    +0.001 A 
ATOM     25  C   UNL     1      -2.595   2.916   0.005  0.00  0.00    +0.014 A 
ATOM     26  C   UNL     1      -2.454   4.300  -0.104  0.00  0.00    +0.046 A 
ATOM     27  C   UNL     1      -3.633   5.165  -0.295  0.00  0.00    +0.197 A 
ATOM     28  O   UNL     1      -4.755   4.697  -0.359  0.00  0.00    -0.287 OA
ATOM     29  C   UNL     1      -3.401   6.616  -0.407  0.00  0.00    +0.046 A 
ATOM     30  C   UNL     1      -2.087   7.108  -0.327  0.00  0.00    +0.054 A 
ATOM     31  C   UNL     1      -1.870   8.480  -0.433  0.00  0.00    +0.026 A 
ATOM     32  C   UNL     1      -2.935   9.335  -0.612  0.00  0.00    +0.002 A 
ATOM     33  C   UNL     1      -4.231   8.844  -0.690  0.00  0.00    +0.001 A 
ATOM     34  C   UNL     1      -4.469   7.497  -0.589  0.00  0.00    +0.014 A 
ENDBRANCH  19  20
ENDBRANCH   1  19
TORSDOF 7
