REMARK  Name = ZINC63256873
REMARK  10 active torsions:
REMARK  status: ('A' for Active; 'I' for Inactive)
REMARK    1  A    between atoms: C_1  and  O_2
REMARK    2  A    between atoms: O_2  and  C_3
REMARK    3  A    between atoms: C_6  and  C_9
REMARK    4  A    between atoms: C_15  and  C_17
REMARK    5  A    between atoms: C_17  and  O_18
REMARK    6  A    between atoms: O_18  and  C_19
REMARK    7  A    between atoms: C_19  and  C_21
REMARK    8  A    between atoms: C_21  and  C_22
REMARK    9  A    between atoms: C_22  and  C_23
REMARK   10  A    between atoms: C_23  and  C_24
REMARK                            x       y       z     vdW  Elec       q    Type
REMARK                         _______ _______ _______ _____ _____    ______ ____
ROOT
ATOM      1  C   UNL     1      -4.964  -2.620   0.035  0.00  0.00    +0.080 A 
ATOM      2  C   UNL     1      -5.024  -3.986   0.038  0.00  0.00    +0.076 A 
ATOM      3  S   UNL     1      -6.794  -4.239   0.049  0.00  0.00    -0.060 S 
ATOM      4  C   UNL     1      -7.266  -2.515   0.048  0.00  0.00    +0.165 A 
ATOM      5  N   UNL     1      -6.088  -1.920   0.044  0.00  0.00    -0.225 NA
ATOM      6  N   UNL     1      -8.536  -1.951   0.053  0.00  0.00    -0.262 N 
ATOM      7  C   UNL     1      -9.626  -2.745   0.061  0.00  0.00    +0.256 C 
ATOM      8  O   UNL     1      -9.498  -3.951   0.063  0.00  0.00    -0.272 OA
ATOM      9  H   UNL     1      -8.639  -0.987   0.051  0.00  0.00    +0.157 HD
ENDROOT
BRANCH   1  13
ATOM     10  C   UNL     1      -1.200  -0.637   0.010  0.00  0.00    +0.120 A 
ATOM     11  C   UNL     1      -2.374   0.104   0.019  0.00  0.00    +0.046 A 
ATOM     12  C   UNL     1      -3.596  -0.536   0.027  0.00  0.00    +0.013 A 
ATOM     13  C   UNL     1      -3.651  -1.929   0.026  0.00  0.00    +0.001 A 
ATOM     14  C   UNL     1      -2.471  -2.670   0.016  0.00  0.00    +0.013 A 
ATOM     15  C   UNL     1      -1.252  -2.025   0.003  0.00  0.00    +0.046 A 
BRANCH  10  17
ATOM     16  C   UNL     1      -0.017   1.425   0.010  0.00  0.00    +0.277 C 
ATOM     17  O   UNL     1       0.002  -0.004   0.002  0.00  0.00    -0.495 OA
ENDBRANCH  10  17
ENDBRANCH   1  13
BRANCH   7  18
ATOM     18  C   UNL     1     -11.003  -2.133   0.067  0.00  0.00    +0.328 C 
BRANCH  18  19
ATOM     19  O   UNL     1     -11.985  -3.171   0.075  0.00  0.00    -0.455 OA
BRANCH  19  20
ATOM     20  C   UNL     1     -13.273  -2.792   0.081  0.00  0.00    +0.308 C 
ATOM     21  O   UNL     1     -13.557  -1.618   0.079  0.00  0.00    -0.251 OA
BRANCH  20  22
ATOM     22  C   UNL     1     -14.364  -3.831   0.089  0.00  0.00    +0.121 C 
BRANCH  22  23
ATOM     23  C   UNL     1     -15.728  -3.138   0.095  0.00  0.00    +0.015 C 
BRANCH  23  24
ATOM     24  C   UNL     1     -16.836  -4.193   0.103  0.00  0.00    +0.034 C 
BRANCH  24  25
ATOM     25  C   UNL     1     -18.180  -3.510   0.109  0.00  0.00    -0.042 C 
ATOM     26  C   UNL     1     -18.956  -3.234  -0.964  0.00  0.00    -0.001 A 
ATOM     27  C   UNL     1     -18.787  -3.475  -2.402  0.00  0.00    +0.010 A 
ATOM     28  C   UNL     1     -19.759  -3.074  -3.253  0.00  0.00    +0.001 A 
ATOM     29  C   UNL     1     -20.920  -2.435  -2.797  0.00  0.00    +0.002 A 
ATOM     30  C   UNL     1     -21.146  -2.179  -1.491  0.00  0.00    +0.026 A 
ATOM     31  C   UNL     1     -20.191  -2.557  -0.508  0.00  0.00    +0.043 A 
ATOM     32  N   UNL     1     -20.179  -2.421   0.796  0.00  0.00    -0.380 N 
ATOM     33  C   UNL     1     -18.936  -3.002   1.316  0.00  0.00    +0.144 C 
ATOM     34  H   UNL     1     -20.878  -2.009   1.328  0.00  0.00    +0.160 HD
ENDBRANCH  24  25
ENDBRANCH  23  24
ENDBRANCH  22  23
ENDBRANCH  20  22
ENDBRANCH  19  20
ENDBRANCH  18  19
ENDBRANCH   7  18
TORSDOF 9
