REMARK  Name = ZINC08724755
REMARK  8 active torsions:
REMARK  status: ('A' for Active; 'I' for Inactive)
REMARK    1  A    between atoms: C_4  and  N_7
REMARK    2  A    between atoms: C_8  and  C_25
REMARK    3  A    between atoms: C_11  and  S_12
REMARK    4  A    between atoms: S_12  and  C_13
REMARK    5  A    between atoms: C_13  and  C_14
REMARK    6  A    between atoms: N_16  and  C_17
REMARK    7  A    between atoms: C_18  and  C_22
REMARK    8  A    between atoms: C_25  and  N_52
REMARK                            x       y       z     vdW  Elec       q    Type
REMARK                         _______ _______ _______ _____ _____    ______ ____
ROOT
ATOM      1  N   UNL     1      -5.387   1.501   0.036  0.00  0.00    -0.276 N 
ATOM      2  C   UNL     1      -6.081   2.682   0.045  0.00  0.00    +0.122 A 
ATOM      3  N   UNL     1      -5.205   3.647   0.046  0.00  0.00    -0.135 NA
ATOM      4  N   UNL     1      -4.014   3.163   0.044  0.00  0.00    -0.122 NA
ATOM      5  C   UNL     1      -4.064   1.851   0.031  0.00  0.00    +0.197 A 
ENDROOT
BRANCH   1   9
ATOM      6  C   UNL     1      -6.975  -2.354   0.025  0.00  0.00    +0.000 A 
ATOM      7  C   UNL     1      -6.238  -1.914   1.109  0.00  0.00    +0.002 A 
ATOM      8  C   UNL     1      -5.711  -0.637   1.115  0.00  0.00    +0.026 A 
ATOM      9  C   UNL     1      -5.921   0.204   0.032  0.00  0.00    +0.050 A 
ATOM     10  C   UNL     1      -6.665  -0.238  -1.053  0.00  0.00    +0.026 A 
ATOM     11  C   UNL     1      -7.186  -1.517  -1.056  0.00  0.00    +0.002 A 
ENDBRANCH   1   9
BRANCH   5  12
ATOM     12  S   UNL     1      -2.689   0.750   0.019  0.00  0.00    -0.076 S 
BRANCH  12  13
ATOM     13  C   UNL     1      -1.330   1.944   0.019  0.00  0.00    +0.173 C 
BRANCH  13  14
ATOM     14  C   UNL     1      -0.014   1.209   0.009  0.00  0.00    +0.228 C 
ATOM     15  O   UNL     1       0.002  -0.004   0.002  0.00  0.00    -0.275 OA
ATOM     16  N   UNL     1       1.143   1.898   0.001  0.00  0.00    -0.279 N 
ATOM     17  H   UNL     1       1.130   2.868   0.007  0.00  0.00    +0.155 HD
BRANCH  16  18
ATOM     18  C   UNL     1       2.354   1.221  -0.014  0.00  0.00    +0.084 A 
ATOM     19  C   UNL     1       3.639   1.750  -0.029  0.00  0.00    +0.065 A 
ATOM     20  C   UNL     1       4.730   0.805  -0.039  0.00  0.00    +0.022 A 
ATOM     21  C   UNL     1       4.410  -0.501  -0.044  0.00  0.00    +0.048 A 
ATOM     22  S   UNL     1       2.630  -0.488  -0.026  0.00  0.00    -0.081 S 
BRANCH  19  23
ATOM     23  C   UNL     1       3.875   3.198  -0.031  0.00  0.00    +0.244 C 
ATOM     24  O   UNL     1       2.932   3.968  -0.019  0.00  0.00    -0.270 OA
ATOM     25  N   UNL     1       5.135   3.675  -0.045  0.00  0.00    -0.325 N 
ATOM     26  H   UNL     1       5.886   3.061  -0.055  0.00  0.00    +0.145 HD
ATOM     27  H   UNL     1       5.291   4.632  -0.047  0.00  0.00    +0.145 HD
ENDBRANCH  19  23
ENDBRANCH  16  18
ENDBRANCH  13  14
ENDBRANCH  12  13
ENDBRANCH   5  12
BRANCH   2  28
ATOM     28  C   UNL     1      -7.580   2.837   0.054  0.00  0.00    -0.001 C 
BRANCH  28  33
ATOM     29  C   UNL     1      -7.329   3.909   2.226  0.00  0.00    -0.078 C 
ATOM     30  C   UNL     1      -8.274   4.180   3.423  0.00  0.00    -0.020 C 
ATOM     31  C   UNL     1      -9.678   4.099   2.781  0.00  0.00    -0.020 C 
ATOM     32  C   UNL     1      -9.486   3.269   1.498  0.00  0.00    -0.078 C 
ATOM     33  N   UNL     1      -8.072   2.893   1.464  0.00  0.00    +0.384 N 
ATOM     34  H   UNL     1      -7.947   1.972   1.900  0.00  0.00    -0.081 HD
ENDBRANCH  28  33
ENDBRANCH   2  28
TORSDOF 8
