REMARK  Name = ZINC27985839
REMARK  4 active torsions:
REMARK  status: ('A' for Active; 'I' for Inactive)
REMARK    1  A    between atoms: C_1  and  C_2
REMARK    2  A    between atoms: C_4  and  C_31
REMARK    3  A    between atoms: C_12  and  C_14
REMARK    4  A    between atoms: N_17  and  C_19
REMARK                            x       y       z     vdW  Elec       q    Type
REMARK                         _______ _______ _______ _____ _____    ______ ____
ROOT
ATOM      1  C   UNL     1       3.896   8.592   0.013  0.00  0.00    +0.151 A 
ATOM      2  C   UNL     1       3.723   9.987   0.022  0.00  0.00    +0.006 A 
ATOM      3  C   UNL     1       4.971  10.517   0.012  0.00  0.00    +0.044 A 
ATOM      4  N   UNL     1       5.839   9.492  -0.001  0.00  0.00    -0.263 N 
ATOM      5  N   UNL     1       5.200   8.373   0.005  0.00  0.00    -0.166 NA
ATOM      6  C   UNL     1       5.254  11.998   0.013  0.00  0.00    +0.055 C 
ATOM      7  C   UNL     1       3.971  12.735  -0.389  0.00  0.00    +0.006 C 
ATOM      8  C   UNL     1       2.799  12.228   0.456  0.00  0.00    +0.005 C 
ATOM      9  C   UNL     1       2.453  10.791   0.043  0.00  0.00    +0.039 C 
ENDROOT
BRANCH   1  21
ATOM     10  C   UNL     1      -2.521   0.957   0.020  0.00  0.00    +0.044 C 
ATOM     11  C   UNL     1      -1.232   1.737   0.017  0.00  0.00    -0.049 A 
ATOM     12  C   UNL     1      -0.013   1.076   0.008  0.00  0.00    +0.009 A 
ATOM     13  C   UNL     1       1.174   1.762   0.000  0.00  0.00    -0.024 A 
ATOM     14  C   UNL     1       1.191   3.176   0.008  0.00  0.00    +0.083 A 
ATOM     15  C   UNL     1      -0.069   3.815   0.023  0.00  0.00    +0.041 A 
ATOM     16  C   UNL     1      -1.253   3.120   0.030  0.00  0.00    +0.020 A 
ATOM     17  S   UNL     1       0.379   5.534   0.028  0.00  0.00    -0.052 S 
ATOM     18  C   UNL     1       2.151   5.304   0.011  0.00  0.00    +0.166 A 
ATOM     19  N   UNL     1       2.264   3.997   0.003  0.00  0.00    -0.224 NA
ATOM     20  N   UNL     1       3.151   6.262   0.007  0.00  0.00    -0.259 N 
ATOM     21  C   UNL     1       2.830   7.571   0.017  0.00  0.00    +0.270 C 
ATOM     22  O   UNL     1       1.663   7.911   0.030  0.00  0.00    -0.268 OA
ATOM     23  C   UNL     1       2.474   1.000  -0.016  0.00  0.00    +0.046 C 
ATOM     24  H   UNL     1       4.207   5.955  -0.005  0.00  0.00    +0.157 HD
ENDBRANCH   1  21
BRANCH   4  25
ATOM     25  C   UNL     1       7.297   9.627  -0.013  0.00  0.00    +0.130 C 
ATOM     26  C   UNL     1       7.873   8.932  -1.258  0.00  0.00    +0.051 C 
ATOM     27  C   UNL     1       9.408   8.788  -1.120  0.00  0.00    +0.168 C 
ATOM     28  S   UNL     1       9.643   8.706   0.702  0.00  0.00    -0.029 S 
ATOM     29  O   UNL     1      10.412   9.826   1.120  0.00  0.00    -0.174 OA
ATOM     30  O   UNL     1      10.066   7.397   1.056  0.00  0.00    -0.174 OA
ATOM     31  C   UNL     1       7.899   8.940   1.247  0.00  0.00    +0.192 C 
ENDBRANCH   4  25
TORSDOF 2
