REMARK  Name = ZINC39304062
REMARK  6 active torsions:
REMARK  status: ('A' for Active; 'I' for Inactive)
REMARK    1  A    between atoms: C_1  and  C_2
REMARK    2  A    between atoms: C_6  and  O_28
REMARK    3  A    between atoms: C_7  and  O_27
REMARK    4  A    between atoms: N_12  and  C_13
REMARK    5  A    between atoms: C_13  and  C_14
REMARK    6  A    between atoms: N_16  and  C_17
REMARK                            x       y       z     vdW  Elec       q    Type
REMARK                         _______ _______ _______ _____ _____    ______ ____
ROOT
ATOM      1  C   UNL     1      -0.017   1.501  -0.010  0.00  0.00    -0.008 C 
ATOM      2  C   UNL     1       0.007  -0.029  -0.009  0.00  0.00    -0.040 C 
ATOM      3  C   UNL     1      -1.407  -0.547  -0.011  0.00  0.00    -0.054 A 
ATOM      4  C   UNL     1      -2.343   0.089  -0.814  0.00  0.00    +0.051 A 
ATOM      5  C   UNL     1      -3.652  -0.356  -0.849  0.00  0.00    +0.158 A 
ATOM      6  C   UNL     1      -4.031  -1.449  -0.074  0.00  0.00    +0.158 A 
ATOM      7  C   UNL     1      -3.095  -2.079   0.726  0.00  0.00    +0.053 A 
ATOM      8  C   UNL     1      -1.784  -1.628   0.758  0.00  0.00    -0.044 A 
ATOM      9  C   UNL     1      -0.798  -2.340   1.649  0.00  0.00    +0.017 C 
ATOM     10  C   UNL     1       0.629  -1.965   1.247  0.00  0.00    -0.073 C 
ATOM     11  N   UNL     1       0.727  -0.500   1.179  0.00  0.00    +0.390 N 
ATOM     12  H   UNL     1       0.315  -0.094   2.006  0.00  0.00    -0.080 HD
ENDROOT
BRANCH   6  13
ATOM     13  O   UNL     1      -5.316  -1.894  -0.103  0.00  0.00    -0.503 OA
ATOM     14  H   UNL     1      -5.484  -2.566  -0.778  0.00  0.00    +0.292 HD
ENDBRANCH   6  13
BRANCH   5  15
ATOM     15  O   UNL     1      -4.565   0.271  -1.638  0.00  0.00    -0.503 OA
ATOM     16  H   UNL     1      -4.627  -0.091  -2.533  0.00  0.00    +0.292 HD
ENDBRANCH   5  15
BRANCH  11  17
ATOM     17  C   UNL     1       2.139  -0.106   1.086  0.00  0.00    +0.020 C 
BRANCH  17  18
ATOM     18  C   UNL     1       2.850  -0.482   2.360  0.00  0.00    +0.201 C 
ATOM     19  O   UNL     1       2.240  -1.025   3.257  0.00  0.00    -0.278 OA
ATOM     20  N   UNL     1       4.163  -0.215   2.503  0.00  0.00    -0.287 N 
ATOM     21  H   UNL     1       4.665   0.158   1.762  0.00  0.00    +0.155 HD
BRANCH  20  22
ATOM     22  C   UNL     1       4.802  -0.478   3.720  0.00  0.00    +0.037 A 
ATOM     23  C   UNL     1       4.418  -1.573   4.478  0.00  0.00    +0.023 A 
ATOM     24  C   UNL     1       5.049  -1.829   5.679  0.00  0.00    +0.002 A 
ATOM     25  C   UNL     1       6.055  -0.993   6.119  0.00  0.00    +0.004 A 
ATOM     26  C   UNL     1       6.443   0.107   5.364  0.00  0.00    -0.042 A 
ATOM     27  C   UNL     1       5.825   0.361   4.161  0.00  0.00    -0.023 A 
ATOM     28  C   UNL     1       6.210   1.521   3.281  0.00  0.00    +0.037 C 
ATOM     29  C   UNL     1       7.006   2.556   4.073  0.00  0.00    +0.005 C 
ATOM     30  C   UNL     1       8.150   1.836   4.797  0.00  0.00    +0.005 C 
ATOM     31  C   UNL     1       7.542   0.980   5.911  0.00  0.00    +0.035 C 
ENDBRANCH  20  22
ENDBRANCH  17  18
ENDBRANCH  11  17
TORSDOF 5
