REMARK  Name = ZINC38777235
REMARK  10 active torsions:
REMARK  status: ('A' for Active; 'I' for Inactive)
REMARK    1  A    between atoms: C_1  and  O_2
REMARK    2  A    between atoms: O_2  and  C_3
REMARK    3  A    between atoms: C_6  and  C_9
REMARK    4  A    between atoms: C_9  and  C_10
REMARK    5  A    between atoms: N_12  and  C_13
REMARK    6  A    between atoms: C_13  and  C_15
REMARK    7  A    between atoms: C_13  and  C_19
REMARK    8  A    between atoms: C_15  and  C_16
REMARK    9  A    between atoms: C_16  and  S_17
REMARK   10  A    between atoms: S_17  and  C_18
REMARK                            x       y       z     vdW  Elec       q    Type
REMARK                         _______ _______ _______ _____ _____    ______ ____
ROOT
ATOM      1  C   UNL     1       1.022  -3.654   7.624  0.00  0.00    +0.160 C 
ENDROOT
BRANCH   1   2
ATOM      2  C   UNL     1       1.828  -3.796   8.890  0.00  0.00    +0.236 C 
ATOM      3  O   UNL     1       3.031  -3.933   8.831  0.00  0.00    -0.274 OA
ATOM      4  N   UNL     1       1.210  -3.771  10.088  0.00  0.00    -0.300 N 
ATOM      5  C   UNL     1      -0.256  -3.722  10.174  0.00  0.00    +0.106 C 
ATOM      6  C   UNL     1      -0.736  -4.873  11.064  0.00  0.00    +0.009 C 
ATOM      7  C   UNL     1      -0.022  -4.802  12.414  0.00  0.00    -0.037 C 
ATOM      8  C   UNL     1       1.487  -4.943  12.211  0.00  0.00    +0.009 C 
ATOM      9  C   UNL     1       1.990  -3.799  11.333  0.00  0.00    +0.106 C 
ATOM     10  C   UNL     1      -0.526  -5.923  13.323  0.00  0.00    +0.140 C 
ATOM     11  C   UNL     1       0.132  -5.686  14.679  0.00  0.00    +0.042 C 
ATOM     12  N   UNL     1       0.751  -6.764  14.966  0.00  0.00    -0.243 NA
ATOM     13  C   UNL     1       0.683  -7.665  13.955  0.00  0.00    +0.216 C 
ATOM     14  N   UNL     1      -0.031  -7.244  12.932  0.00  0.00    -0.264 NA
ATOM     15  C   UNL     1       0.080  -4.338  15.353  0.00  0.00    +0.034 C 
ATOM     16  C   UNL     1       0.477  -3.311  14.275  0.00  0.00    -0.076 C 
ATOM     17  N   UNL     1      -0.315  -3.514  13.060  0.00  0.00    +0.385 N 
ATOM     18  H   UNL     1      -0.114  -2.769  12.410  0.00  0.00    -0.085 HD
ATOM     19  H   UNL     1      -1.295  -3.482  13.299  0.00  0.00    -0.085 HD
ENDBRANCH   1   2
BRANCH   1  22
ATOM     20  C   UNL     1       1.306  -2.413   5.547  0.00  0.00    +0.218 C 
ATOM     21  O   UNL     1       0.102  -2.273   5.500  0.00  0.00    -0.275 OA
ATOM     22  N   UNL     1       1.867  -3.090   6.569  0.00  0.00    -0.304 N 
ATOM     23  H   UNL     1       2.830  -3.202   6.606  0.00  0.00    +0.149 HD
BRANCH  20  24
ATOM     24  C   UNL     1       2.175  -1.833   4.461  0.00  0.00    +0.130 C 
BRANCH  24  28
ATOM     25  C   UNL     1      -0.280   0.153   1.581  0.00  0.00    +0.120 A 
ATOM     26  C   UNL     1       0.215   0.852   2.673  0.00  0.00    +0.046 A 
ATOM     27  C   UNL     1       1.008   0.208   3.602  0.00  0.00    +0.007 A 
ATOM     28  C   UNL     1       1.309  -1.132   3.446  0.00  0.00    -0.038 A 
ATOM     29  C   UNL     1       0.818  -1.831   2.358  0.00  0.00    +0.007 A 
ATOM     30  C   UNL     1       0.019  -1.193   1.429  0.00  0.00    +0.046 A 
BRANCH  25  32
ATOM     31  C   UNL     1      -1.327   2.171   0.886  0.00  0.00    +0.277 C 
ATOM     32  O   UNL     1      -1.061   0.785   0.666  0.00  0.00    -0.495 OA
ENDBRANCH  25  32
ENDBRANCH  24  28
ENDBRANCH  20  24
ENDBRANCH   1  22
BRANCH   1  33
ATOM     33  C   UNL     1       0.512  -5.029   7.188  0.00  0.00    +0.042 C 
BRANCH  33  34
ATOM     34  C   UNL     1      -0.423  -4.868   5.987  0.00  0.00    +0.071 C 
BRANCH  34  35
ATOM     35  S   UNL     1      -1.028  -6.498   5.470  0.00  0.00    -0.164 S 
ATOM     36  C   UNL     1      -2.107  -6.137   4.057  0.00  0.00    +0.084 C 
ENDBRANCH  34  35
ENDBRANCH  33  34
ENDBRANCH   1  33
TORSDOF 8
