REMARK  Name = ZINC06088143
REMARK  7 active torsions:
REMARK  status: ('A' for Active; 'I' for Inactive)
REMARK    1  A    between atoms: C_8  and  C_10
REMARK    2  A    between atoms: C_10  and  C_12
REMARK    3  A    between atoms: C_13  and  O_32
REMARK    4  A    between atoms: N_16  and  C_26
REMARK    5  A    between atoms: C_17  and  C_19
REMARK    6  A    between atoms: C_23  and  O_25
REMARK    7  A    between atoms: C_26  and  C_27
REMARK                            x       y       z     vdW  Elec       q    Type
REMARK                         _______ _______ _______ _____ _____    ______ ____
ROOT
ATOM      1  C   UNL     1       1.502   2.904  -0.035  0.00  0.00    +0.074 C 
ATOM      2  C   UNL     1       1.192   1.587   0.003  0.00  0.00    +0.188 C 
ATOM      3  C   UNL     1       2.438   0.796   0.052  0.00  0.00    +0.283 C 
ATOM      4  O   UNL     1       2.492  -0.417   0.098  0.00  0.00    -0.267 OA
ATOM      5  N   UNL     1       3.504   1.616   0.034  0.00  0.00    -0.276 N 
ATOM      6  C   UNL     1       3.010   2.997  -0.017  0.00  0.00    +0.145 C 
ENDROOT
BRANCH   6   7
ATOM      7  C   UNL     1       3.502   3.679  -1.268  0.00  0.00    -0.019 A 
ATOM      8  C   UNL     1       3.488   3.003  -2.474  0.00  0.00    +0.006 A 
ATOM      9  C   UNL     1       3.939   3.626  -3.623  0.00  0.00    +0.004 A 
ATOM     10  C   UNL     1       4.404   4.926  -3.569  0.00  0.00    +0.045 A 
ATOM     11  C   UNL     1       4.418   5.606  -2.360  0.00  0.00    +0.117 A 
ATOM     12  C   UNL     1       3.961   4.980  -1.209  0.00  0.00    +0.051 A 
BRANCH  11  13
ATOM     13  O   UNL     1       4.876   6.884  -2.304  0.00  0.00    -0.507 OA
ATOM     14  H   UNL     1       4.192   7.553  -2.446  0.00  0.00    +0.292 HD
ENDBRANCH  11  13
ENDBRANCH   6   7
BRANCH   1  15
ATOM     15  C   UNL     1       0.556   4.024  -0.084  0.00  0.00    +0.230 C 
ATOM     16  O   UNL     1      -0.158   4.176  -1.059  0.00  0.00    -0.284 OA
BRANCH  15  24
ATOM     17  C   UNL     1      -0.183   8.106   4.308  0.00  0.00    +0.001 A 
ATOM     18  C   UNL     1       0.888   7.419   4.863  0.00  0.00    +0.004 A 
ATOM     19  C   UNL     1       1.450   6.343   4.210  0.00  0.00    +0.047 A 
ATOM     20  C   UNL     1       0.944   5.939   2.980  0.00  0.00    +0.136 A 
ATOM     21  C   UNL     1      -0.142   6.639   2.422  0.00  0.00    +0.021 A 
ATOM     22  C   UNL     1      -0.698   7.727   3.101  0.00  0.00    +0.011 A 
ATOM     23  C   UNL     1      -0.430   5.977   1.151  0.00  0.00    +0.061 A 
ATOM     24  C   UNL     1       0.471   4.963   1.042  0.00  0.00    +0.176 A 
ATOM     25  O   UNL     1       1.271   4.947   2.129  0.00  0.00    -0.452 OA
ENDBRANCH  15  24
ENDBRANCH   1  15
BRANCH   2  26
ATOM     26  O   UNL     1      -0.062   1.076   0.001  0.00  0.00    -0.502 OA
ATOM     27  H   UNL     1      -0.015   0.078   0.034  0.00  0.00    +0.292 HD
ENDBRANCH   2  26
BRANCH   5  28
ATOM     28  C   UNL     1       4.910   1.204   0.067  0.00  0.00    +0.183 C 
BRANCH  28  29
ATOM     29  C   UNL     1       5.372   1.108   1.498  0.00  0.00    +0.122 A 
ATOM     30  C   UNL     1       5.306   0.012   2.274  0.00  0.00    +0.046 A 
ATOM     31  C   UNL     1       5.845   0.367   3.532  0.00  0.00    +0.041 A 
ATOM     32  C   UNL     1       6.208   1.660   3.449  0.00  0.00    +0.195 A 
ATOM     33  O   UNL     1       5.925   2.102   2.213  0.00  0.00    -0.466 OA
ENDBRANCH  28  29
ENDBRANCH   5  28
TORSDOF 7
