REMARK  Name = ZINC02290269
REMARK  8 active torsions:
REMARK  status: ('A' for Active; 'I' for Inactive)
REMARK    1  A    between atoms: C_1  and  N_2
REMARK    2  A    between atoms: N_2  and  C_3
REMARK    3  A    between atoms: N_2  and  C_4
REMARK    4  A    between atoms: C_7  and  N_10
REMARK    5  A    between atoms: C_11  and  N_29
REMARK    6  A    between atoms: C_12  and  C_23
REMARK    7  A    between atoms: N_25  and  C_26
REMARK    8  A    between atoms: C_26  and  C_27
REMARK                            x       y       z     vdW  Elec       q    Type
REMARK                         _______ _______ _______ _____ _____    ______ ____
ROOT
ATOM      1  N   UNL     1      -4.278  -0.223   0.753  0.00  0.00    -0.280 N 
ATOM      2  C   UNL     1      -3.149   0.439   1.134  0.00  0.00    +0.117 A 
ATOM      3  C   UNL     1      -2.443   0.876   0.018  0.00  0.00    +0.104 A 
ATOM      4  C   UNL     1      -3.205   0.432  -1.160  0.00  0.00    +0.123 A 
ATOM      5  C   UNL     1      -4.375  -0.270  -0.624  0.00  0.00    +0.166 A 
ATOM      6  N   UNL     1      -5.255  -0.787  -1.454  0.00  0.00    -0.225 NA
ATOM      7  C   UNL     1      -5.076  -0.669  -2.776  0.00  0.00    +0.092 A 
ATOM      8  C   UNL     1      -6.012  -1.219  -3.671  0.00  0.00    +0.030 A 
ATOM      9  C   UNL     1      -5.821  -1.094  -5.012  0.00  0.00    +0.002 A 
ATOM     10  C   UNL     1      -4.708  -0.427  -5.519  0.00  0.00    +0.002 A 
ATOM     11  C   UNL     1      -3.781   0.118  -4.686  0.00  0.00    +0.030 A 
ATOM     12  C   UNL     1      -3.943   0.010  -3.292  0.00  0.00    +0.090 A 
ATOM     13  N   UNL     1      -3.038   0.542  -2.462  0.00  0.00    -0.241 NA
ENDROOT
BRANCH   1  17
ATOM     14  C   UNL     1      -7.049  -1.895   3.386  0.00  0.00    +0.029 A 
ATOM     15  C   UNL     1      -5.753  -2.391   3.334  0.00  0.00    +0.025 A 
ATOM     16  C   UNL     1      -4.836  -1.838   2.462  0.00  0.00    +0.028 A 
ATOM     17  C   UNL     1      -5.210  -0.785   1.638  0.00  0.00    +0.050 A 
ATOM     18  C   UNL     1      -6.504  -0.285   1.694  0.00  0.00    +0.028 A 
ATOM     19  C   UNL     1      -7.422  -0.842   2.561  0.00  0.00    +0.025 A 
BRANCH  14  21
ATOM     20  C   UNL     1      -7.584  -3.565   5.139  0.00  0.00    +0.129 C 
ATOM     21  N   UNL     1      -7.978  -2.455   4.269  0.00  0.00    -0.336 N 
ATOM     22  C   UNL     1      -9.345  -1.931   4.324  0.00  0.00    +0.129 C 
ENDBRANCH  14  21
ENDBRANCH   1  17
BRANCH   3  23
ATOM     23  C   UNL     1      -1.187   1.624   0.017  0.00  0.00    +0.250 C 
ATOM     24  O   UNL     1      -1.204   2.841   0.023  0.00  0.00    -0.270 OA
ATOM     25  N   UNL     1      -0.011   0.966   0.007  0.00  0.00    -0.308 N 
ATOM     26  H   UNL     1       0.002  -0.004   0.002  0.00  0.00    +0.149 HD
BRANCH  25  27
ATOM     27  C   UNL     1       1.248   1.716  -0.001  0.00  0.00    +0.131 C 
BRANCH  27  28
ATOM     28  C   UNL     1       2.406   0.752  -0.017  0.00  0.00    -0.016 C 
ATOM     29  C   UNL     1       3.317   0.838  -0.955  0.00  0.00    +0.005 C 
ENDBRANCH  27  28
ENDBRANCH  25  27
ENDBRANCH   3  23
BRANCH   2  30
ATOM     30  N   UNL     1      -2.766   0.647   2.433  0.00  0.00    -0.343 N 
ATOM     31  H   UNL     1      -1.948   1.132   2.626  0.00  0.00    +0.144 HD
ATOM     32  H   UNL     1      -3.313   0.311   3.160  0.00  0.00    +0.144 HD
ENDBRANCH   2  30
TORSDOF 6
