REMARK  Name = ZINC38994449
REMARK  7 active torsions:
REMARK  status: ('A' for Active; 'I' for Inactive)
REMARK    1  A    between atoms: C_4  and  C_7
REMARK    2  A    between atoms: C_9  and  C_13
REMARK    3  A    between atoms: C_17  and  S_21
REMARK    4  A    between atoms: N_19  and  N_20
REMARK    5  A    between atoms: S_21  and  C_22
REMARK    6  A    between atoms: C_22  and  C_23
REMARK    7  A    between atoms: N_25  and  C_26
REMARK                            x       y       z     vdW  Elec       q    Type
REMARK                         _______ _______ _______ _____ _____    ______ ____
ROOT
ATOM      1  C   UNL     1       5.805  -3.019   1.135  0.00  0.00    +0.185 C 
ATOM      2  N   UNL     1       5.530  -2.234   2.366  0.00  0.00    -0.234 NA
ATOM      3  N   UNL     1       6.478  -2.756   3.354  0.00  0.00    -0.228 NA
ATOM      4  C   UNL     1       7.599  -3.350   2.599  0.00  0.00    +0.214 C 
ATOM      5  N   UNL     1       7.284  -3.174   1.161  0.00  0.00    -0.197 NA
ATOM      6  H   UNL     1       4.578  -2.365   2.674  0.00  0.00    +0.143 HD
ATOM      7  H   UNL     1       6.802  -2.023   3.967  0.00  0.00    +0.143 HD
ENDROOT
BRANCH   1  10
ATOM      8  C   UNL     1       3.721  -0.697  -0.085  0.00  0.00    +0.091 C 
ATOM      9  C   UNL     1       3.859  -2.037  -0.104  0.00  0.00    +0.034 C 
ATOM     10  C   UNL     1       5.363  -2.247  -0.110  0.00  0.00    +0.187 C 
ATOM     11  N   UNL     1       5.894  -0.874  -0.091  0.00  0.00    -0.176 NA
ATOM     12  N   UNL     1       4.939  -0.095  -0.084  0.00  0.00    -0.154 NA
BRANCH   8  16
ATOM     13  C   UNL     1      -0.001   1.358  -0.049  0.00  0.00    +0.000 A 
ATOM     14  C   UNL     1       1.181   2.075  -0.046  0.00  0.00    +0.001 A 
ATOM     15  C   UNL     1       2.393   1.413  -0.057  0.00  0.00    +0.010 A 
ATOM     16  C   UNL     1       2.422   0.020  -0.072  0.00  0.00    +0.002 A 
ATOM     17  C   UNL     1       1.228  -0.697  -0.075  0.00  0.00    +0.010 A 
ATOM     18  C   UNL     1       0.022  -0.025  -0.063  0.00  0.00    +0.001 A 
ENDBRANCH   8  16
ENDBRANCH   1  10
BRANCH   5  19
ATOM     19  N   UNL     1       7.700  -4.332   0.386  0.00  0.00    -0.264 NA
ATOM     20  H   UNL     1       8.704  -4.437   0.403  0.00  0.00    +0.137 HD
ATOM     21  H   UNL     1       7.243  -5.169   0.713  0.00  0.00    +0.137 HD
ENDBRANCH   5  19
BRANCH   4  22
ATOM     22  S   UNL     1       9.146  -2.497   3.010  0.00  0.00    -0.115 S 
BRANCH  22  23
ATOM     23  C   UNL     1       8.825  -0.768   2.565  0.00  0.00    +0.168 C 
BRANCH  23  24
ATOM     24  C   UNL     1      10.047   0.063   2.860  0.00  0.00    +0.227 C 
ATOM     25  O   UNL     1      11.038  -0.461   3.325  0.00  0.00    -0.275 OA
ATOM     26  N   UNL     1      10.040   1.387   2.607  0.00  0.00    -0.283 N 
ATOM     27  H   UNL     1       9.272   1.794   2.176  0.00  0.00    +0.155 HD
BRANCH  26  28
ATOM     28  C   UNL     1      11.140   2.174   2.967  0.00  0.00    +0.069 A 
ATOM     29  C   UNL     1      12.424   1.651   2.896  0.00  0.00    +0.026 A 
ATOM     30  C   UNL     1      13.508   2.430   3.251  0.00  0.00    +0.002 A 
ATOM     31  C   UNL     1      13.316   3.731   3.678  0.00  0.00    +0.003 A 
ATOM     32  C   UNL     1      12.040   4.257   3.752  0.00  0.00    +0.040 A 
ATOM     33  C   UNL     1      10.950   3.485   3.392  0.00  0.00    +0.144 A 
ATOM     34  F   UNL     1       9.703   4.000   3.459  0.00  0.00    -0.204 F 
ENDBRANCH  26  28
ENDBRANCH  23  24
ENDBRANCH  22  23
ENDBRANCH   4  22
TORSDOF 7
