REMARK  Name = ZINC39983538
REMARK  7 active torsions:
REMARK  status: ('A' for Active; 'I' for Inactive)
REMARK    1  A    between atoms: C_1  and  C_2
REMARK    2  A    between atoms: C_5  and  N_8
REMARK    3  A    between atoms: C_9  and  C_11
REMARK    4  A    between atoms: C_11  and  C_12
REMARK    5  A    between atoms: N_16  and  C_31
REMARK    6  A    between atoms: N_18  and  N_19
REMARK    7  A    between atoms: C_34  and  O_37
REMARK                            x       y       z     vdW  Elec       q    Type
REMARK                         _______ _______ _______ _____ _____    ______ ____
ROOT
ATOM      1  C   UNL     1       0.844  -6.828   2.095  0.00  0.00    +0.149 C 
ATOM      2  C   UNL     1       1.016  -8.339   2.061  0.00  0.00    +0.239 C 
ATOM      3  O   UNL     1       0.592  -9.039   1.166  0.00  0.00    -0.274 OA
ATOM      4  N   UNL     1       1.677  -8.814   3.107  0.00  0.00    -0.217 N 
ATOM      5  C   UNL     1       2.147  -8.005   4.104  0.00  0.00    +0.190 C 
ATOM      6  N   UNL     1       2.818  -8.379   5.190  0.00  0.00    -0.125 NA
ATOM      7  S   UNL     1       1.701  -6.440   3.675  0.00  0.00    -0.075 S 
ENDROOT
BRANCH   6   8
ATOM      8  N   UNL     1       3.198  -7.494   6.049  0.00  0.00    -0.142 NA
ATOM      9  C   UNL     1       3.866  -7.865   7.129  0.00  0.00    +0.157 C 
ATOM     10  C   UNL     1       4.372  -6.999   8.215  0.00  0.00    +0.028 A 
ATOM     11  C   UNL     1       4.322  -5.627   8.444  0.00  0.00    +0.012 A 
ATOM     12  C   UNL     1       4.902  -5.101   9.580  0.00  0.00    +0.001 A 
ATOM     13  C   UNL     1       5.533  -5.936  10.488  0.00  0.00    +0.002 A 
ATOM     14  C   UNL     1       5.588  -7.298  10.271  0.00  0.00    +0.024 A 
ATOM     15  C   UNL     1       5.009  -7.847   9.132  0.00  0.00    +0.043 A 
ATOM     16  N   UNL     1       4.923  -9.157   8.678  0.00  0.00    -0.280 N 
ATOM     17  C   UNL     1       4.258  -9.228   7.512  0.00  0.00    +0.269 C 
ATOM     18  O   UNL     1       4.025 -10.244   6.882  0.00  0.00    -0.268 OA
ATOM     19  H   UNL     1       5.291  -9.923   9.145  0.00  0.00    +0.155 HD
ENDBRANCH   6   8
BRANCH   4  20
ATOM     20  C   UNL     1       1.902 -10.195   3.195  0.00  0.00    +0.043 A 
ATOM     21  C   UNL     1       0.984 -11.008   3.845  0.00  0.00    +0.027 A 
ATOM     22  C   UNL     1       1.206 -12.368   3.931  0.00  0.00    +0.047 A 
ATOM     23  C   UNL     1       2.346 -12.922   3.369  0.00  0.00    +0.117 A 
ATOM     24  C   UNL     1       3.265 -12.110   2.719  0.00  0.00    +0.047 A 
ATOM     25  C   UNL     1       3.041 -10.751   2.627  0.00  0.00    +0.027 A 
BRANCH  23  26
ATOM     26  O   UNL     1       2.565 -14.261   3.454  0.00  0.00    -0.507 OA
ATOM     27  H   UNL     1       2.195 -14.768   2.718  0.00  0.00    +0.292 HD
ENDBRANCH  23  26
ENDBRANCH   4  20
BRANCH   1  28
ATOM     28  C   UNL     1       1.542  -6.162   0.907  0.00  0.00    +0.120 C 
BRANCH  28  30
ATOM     29  N   UNL     1       1.850  -3.876   0.016  0.00  0.00    -0.285 N 
ATOM     30  C   UNL     1       1.323  -4.672   0.967  0.00  0.00    +0.219 C 
ATOM     31  O   UNL     1       0.674  -4.190   1.871  0.00  0.00    -0.275 OA
ATOM     32  H   UNL     1       2.304  -4.266  -0.747  0.00  0.00    +0.155 HD
BRANCH  29  37
ATOM     33  C   UNL     1       1.414   1.762   0.476  0.00  0.00    +0.044 C 
ATOM     34  C   UNL     1       1.530   0.264   0.354  0.00  0.00    -0.050 A 
ATOM     35  C   UNL     1       1.657  -0.513   1.490  0.00  0.00    +0.005 A 
ATOM     36  C   UNL     1       1.764  -1.885   1.382  0.00  0.00    +0.023 A 
ATOM     37  C   UNL     1       1.742  -2.485   0.129  0.00  0.00    +0.033 A 
ATOM     38  C   UNL     1       1.613  -1.702  -1.010  0.00  0.00    +0.023 A 
ATOM     39  C   UNL     1       1.502  -0.330  -0.894  0.00  0.00    +0.005 A 
ENDBRANCH  29  37
ENDBRANCH  28  30
ENDBRANCH   1  28
TORSDOF 6
