REMARK  Name = ZINC09239646
REMARK  8 active torsions:
REMARK  status: ('A' for Active; 'I' for Inactive)
REMARK    1  A    between atoms: C_1  and  C_2
REMARK    2  A    between atoms: C_2  and  C_3
REMARK    3  A    between atoms: C_3  and  C_4
REMARK    4  A    between atoms: C_10  and  C_26
REMARK    5  A    between atoms: C_12  and  C_15
REMARK    6  A    between atoms: N_17  and  C_18
REMARK    7  A    between atoms: C_23  and  C_24
REMARK    8  A    between atoms: C_29  and  C_32
REMARK                            x       y       z     vdW  Elec       q    Type
REMARK                         _______ _______ _______ _____ _____    ______ ____
ROOT
ATOM      1  C   UNL     1       5.621   1.286  -1.978  0.00  0.00    +0.151 A 
ATOM      2  N   UNL     1       6.643   0.553  -1.630  0.00  0.00    -0.132 NA
ATOM      3  N   UNL     1       6.410  -0.025  -0.502  0.00  0.00    -0.121 NA
ATOM      4  C   UNL     1       5.223   0.311  -0.078  0.00  0.00    +0.209 A 
ATOM      5  N   UNL     1       4.680   1.164  -0.997  0.00  0.00    -0.225 N 
ATOM      6  N   UNL     1       3.463   1.765  -0.936  0.00  0.00    -0.272 N 
ATOM      7  C   UNL     1       2.510   1.075  -0.065  0.00  0.00    +0.140 C 
ATOM      8  C   UNL     1       3.048   1.003   1.370  0.00  0.00    +0.166 C 
ATOM      9  S   UNL     1       4.403  -0.209   1.396  0.00  0.00    -0.069 S 
ATOM     10  H   UNL     1       3.552   2.736  -0.677  0.00  0.00    +0.167 HD
ENDROOT
BRANCH   7  11
ATOM     11  C   UNL     1       1.201   1.823  -0.069  0.00  0.00    -0.024 A 
ATOM     12  C   UNL     1       0.007   1.126  -0.089  0.00  0.00    +0.006 A 
ATOM     13  C   UNL     1      -1.193   1.812  -0.098  0.00  0.00    +0.004 A 
ATOM     14  C   UNL     1      -1.200   3.194  -0.077  0.00  0.00    -0.050 A 
ATOM     15  C   UNL     1      -0.006   3.891  -0.056  0.00  0.00    +0.004 A 
ATOM     16  C   UNL     1       1.194   3.205  -0.052  0.00  0.00    +0.006 A 
ATOM     17  C   UNL     1      -2.508   3.942  -0.082  0.00  0.00    +0.044 C 
ENDBRANCH   7  11
BRANCH   8  18
ATOM     18  C   UNL     1       3.565   2.355   1.789  0.00  0.00    +0.233 C 
ATOM     19  O   UNL     1       4.753   2.596   1.729  0.00  0.00    -0.274 OA
ATOM     20  N   UNL     1       2.708   3.297   2.230  0.00  0.00    -0.284 N 
ATOM     21  H   UNL     1       1.772   3.079   2.359  0.00  0.00    +0.155 HD
BRANCH  20  22
ATOM     22  C   UNL     1       3.169   4.590   2.502  0.00  0.00    +0.038 A 
ATOM     23  C   UNL     1       4.191   5.140   1.738  0.00  0.00    +0.023 A 
ATOM     24  C   UNL     1       4.643   6.416   2.007  0.00  0.00    +0.003 A 
ATOM     25  C   UNL     1       4.081   7.148   3.037  0.00  0.00    +0.020 A 
ATOM     26  C   UNL     1       3.063   6.604   3.800  0.00  0.00    +0.046 A 
ATOM     27  C   UNL     1       2.602   5.329   3.531  0.00  0.00    -0.011 A 
ATOM     28  C   UNL     1       1.489   4.739   4.359  0.00  0.00    +0.047 C 
ATOM     29 CL   UNL     1       2.359   7.527   5.091  0.00  0.00    -0.083 Cl
ENDBRANCH  20  22
ENDBRANCH   8  18
BRANCH   1  30
ATOM     30  C   UNL     1       5.503   2.115  -3.231  0.00  0.00    +0.078 C 
BRANCH  30  32
ATOM     31  C   UNL     1       5.917   4.364  -4.237  0.00  0.00    +0.004 C 
ATOM     32  C   UNL     1       6.037   3.523  -2.964  0.00  0.00    +0.004 C 
ENDBRANCH  30  32
ENDBRANCH   1  30
TORSDOF 5
