REMARK  Name = ZINC12149656
REMARK  12 active torsions:
REMARK  status: ('A' for Active; 'I' for Inactive)
REMARK    1  A    between atoms: C_1  and  C_2
REMARK    2  A    between atoms: C_5  and  C_8
REMARK    3  A    between atoms: C_8  and  C_9
REMARK    4  A    between atoms: C_9  and  C_10
REMARK    5  A    between atoms: N_12  and  C_13
REMARK    6  A    between atoms: N_12  and  C_19
REMARK    7  A    between atoms: C_13  and  C_14
REMARK    8  A    between atoms: C_19  and  C_20
REMARK    9  A    between atoms: C_25  and  S_36
REMARK   10  A    between atoms: C_28  and  N_29
REMARK   11  A    between atoms: C_32  and  O_35
REMARK   12  A    between atoms: S_36  and  C_37
REMARK                            x       y       z     vdW  Elec       q    Type
REMARK                         _______ _______ _______ _____ _____    ______ ____
ROOT
ATOM      1  C   UNL     1      -0.068  -6.891  -2.319  0.00  0.00    +0.008 A 
ATOM      2  C   UNL     1      -0.431  -7.287  -1.066  0.00  0.00    +0.018 A 
ATOM      3  C   UNL     1      -1.603  -8.056  -0.921  0.00  0.00    -0.001 A 
ATOM      4  C   UNL     1      -2.031  -8.494   0.343  0.00  0.00    +0.011 A 
ATOM      5  C   UNL     1      -3.165  -9.236   0.455  0.00  0.00    +0.015 A 
ATOM      6  C   UNL     1      -3.918  -9.569  -0.678  0.00  0.00    +0.010 A 
ATOM      7  C   UNL     1      -3.523  -9.153  -1.933  0.00  0.00    +0.041 A 
ATOM      8  C   UNL     1      -2.356  -8.388  -2.074  0.00  0.00    +0.049 A 
ATOM      9  C   UNL     1      -0.858  -7.247  -3.420  0.00  0.00    +0.104 A 
ATOM     10  N   UNL     1      -1.991  -7.989  -3.342  0.00  0.00    -0.343 N 
ATOM     11  H   UNL     1      -2.541  -8.237  -4.173  0.00  0.00    +0.167 HD
ENDROOT
BRANCH   9  12
ATOM     12  N   UNL     1      -0.478  -6.832  -4.688  0.00  0.00    -0.316 N 
ATOM     13  C   UNL     1       0.341  -7.853  -5.353  0.00  0.00    +0.109 C 
ATOM     14  C   UNL     1       0.861  -7.306  -6.684  0.00  0.00    +0.050 C 
ATOM     15  C   UNL     1      -0.327  -6.921  -7.570  0.00  0.00    +0.118 C 
ATOM     16  C   UNL     1      -1.190  -5.892  -6.835  0.00  0.00    +0.050 C 
ATOM     17  C   UNL     1      -1.651  -6.481  -5.500  0.00  0.00    +0.109 C 
BRANCH  15  18
ATOM     18  O   UNL     1       0.153  -6.356  -8.792  0.00  0.00    -0.392 OA
ATOM     19  H   UNL     1       0.709  -6.955  -9.311  0.00  0.00    +0.210 HD
ENDBRANCH  15  18
ENDBRANCH   9  12
BRANCH   6  20
ATOM     20  S   UNL     1      -5.383 -10.531  -0.499  0.00  0.00    -0.129 S 
ATOM     21  C   UNL     1      -5.494 -10.835   1.286  0.00  0.00    +0.090 C 
ENDBRANCH   6  20
BRANCH   1  22
ATOM     22  C   UNL     1       1.178  -6.067  -2.518  0.00  0.00    +0.146 C 
BRANCH  22  25
ATOM     23  C   UNL     1       0.662  -3.906  -1.518  0.00  0.00    +0.217 C 
ATOM     24  O   UNL     1       0.826  -4.405  -0.425  0.00  0.00    -0.276 OA
ATOM     25  N   UNL     1       0.814  -4.652  -2.630  0.00  0.00    -0.290 N 
BRANCH  23  26
ATOM     26  C   UNL     1       0.288  -2.450  -1.633  0.00  0.00    +0.100 C 
BRANCH  26  27
ATOM     27  C   UNL     1       0.180  -1.840  -0.234  0.00  0.00    +0.044 C 
BRANCH  27  32
ATOM     28  C   UNL     1      -1.252   3.741  -0.672  0.00  0.00    +0.044 C 
ATOM     29  C   UNL     1      -0.879   2.286  -0.557  0.00  0.00    -0.050 A 
ATOM     30  C   UNL     1      -1.867   1.324  -0.467  0.00  0.00    +0.003 A 
ATOM     31  C   UNL     1      -1.524  -0.011  -0.362  0.00  0.00    +0.004 A 
ATOM     32  C   UNL     1      -0.193  -0.384  -0.349  0.00  0.00    -0.047 A 
ATOM     33  C   UNL     1       0.795   0.578  -0.440  0.00  0.00    +0.004 A 
ATOM     34  C   UNL     1       0.452   1.913  -0.545  0.00  0.00    +0.003 A 
ENDBRANCH  27  32
ENDBRANCH  26  27
ENDBRANCH  23  26
BRANCH  25  35
ATOM     35  C   UNL     1       0.617  -4.048  -3.950  0.00  0.00    +0.182 C 
BRANCH  35  36
ATOM     36  C   UNL     1       1.937  -3.545  -4.475  0.00  0.00    +0.122 A 
ATOM     37  C   UNL     1       2.783  -4.231  -5.264  0.00  0.00    +0.046 A 
ATOM     38  C   UNL     1       3.888  -3.385  -5.513  0.00  0.00    +0.041 A 
ATOM     39  C   UNL     1       3.651  -2.232  -4.861  0.00  0.00    +0.195 A 
ATOM     40  O   UNL     1       2.465  -2.333  -4.238  0.00  0.00    -0.466 OA
ENDBRANCH  35  36
ENDBRANCH  25  35
ENDBRANCH  22  25
ENDBRANCH   1  22
TORSDOF 10
