REMARK  Name = ZINC00311787
REMARK  3 active torsions:
REMARK  status: ('A' for Active; 'I' for Inactive)
REMARK    1  A    between atoms: C_3  and  O_25
REMARK    2  A    between atoms: C_4  and  C_8
REMARK    3  A    between atoms: C_11  and  C_14
REMARK                            x       y       z     vdW  Elec       q    Type
REMARK                         _______ _______ _______ _____ _____    ______ ____
ROOT
ATOM      1  C   UNL     1       3.693  -0.689  -0.038  0.00  0.00    +0.072 C 
ATOM      2  N   UNL     1       4.855  -0.132  -0.042  0.00  0.00    -0.190 NA
ATOM      3  N   UNL     1       5.918  -1.032  -0.058  0.00  0.00    -0.261 N 
ATOM      4  C   UNL     1       5.381  -2.402  -0.067  0.00  0.00    +0.128 C 
ATOM      5  C   UNL     1       3.854  -2.192  -0.048  0.00  0.00    +0.086 C 
ATOM      6  H   UNL     1       6.859  -0.794  -0.063  0.00  0.00    +0.169 HD
ENDROOT
BRANCH   4   7
ATOM      7  C   UNL     1       5.827  -3.155   1.160  0.00  0.00    +0.018 A 
ATOM      8  C   UNL     1       6.187  -2.464   2.301  0.00  0.00    +0.029 A 
ATOM      9  C   UNL     1       6.597  -3.154   3.427  0.00  0.00    +0.042 A 
ATOM     10  C   UNL     1       6.649  -4.537   3.412  0.00  0.00    +0.029 A 
ATOM     11  C   UNL     1       6.290  -5.231   2.272  0.00  0.00    +0.022 A 
ATOM     12  C   UNL     1       5.871  -4.542   1.145  0.00  0.00    +0.134 A 
ATOM     13  O   UNL     1       5.501  -5.213   0.022  0.00  0.00    -0.465 OA
ATOM     14  C   UNL     1       5.899  -6.584  -0.072  0.00  0.00    +0.394 C 
ATOM     15  O   UNL     1       5.584  -7.237   1.164  0.00  0.00    -0.339 OA
ATOM     16  C   UNL     1       6.354  -6.738   2.266  0.00  0.00    +0.202 C 
ATOM     17 CL   UNL     1       7.049  -2.285   4.860  0.00  0.00    -0.084 Cl
ENDBRANCH   4   7
BRANCH   1  21
ATOM     18  C   UNL     1      -0.017   1.381   0.010  0.00  0.00    +0.042 A 
ATOM     19  C   UNL     1       1.167   2.096   0.002  0.00  0.00    +0.049 A 
ATOM     20  C   UNL     1       2.381   1.431  -0.013  0.00  0.00    +0.126 A 
ATOM     21  C   UNL     1       2.406   0.029  -0.021  0.00  0.00    +0.042 A 
ATOM     22  C   UNL     1       1.205  -0.683  -0.013  0.00  0.00    +0.051 A 
ATOM     23  C   UNL     1       0.002  -0.004   0.002  0.00  0.00    +0.124 A 
ATOM     24  F   UNL     1      -1.160  -0.693   0.009  0.00  0.00    -0.205 F 
BRANCH  20  25
ATOM     25  O   UNL     1       3.544   2.133  -0.022  0.00  0.00    -0.506 OA
ATOM     26  H   UNL     1       3.889   2.332   0.859  0.00  0.00    +0.292 HD
ENDBRANCH  20  25
ENDBRANCH   1  21
TORSDOF 3
