REMARK  Name = ZINC37425591
REMARK  10 active torsions:
REMARK  status: ('A' for Active; 'I' for Inactive)
REMARK    1  A    between atoms: C_1  and  N_2
REMARK    2  A    between atoms: C_5  and  C_7
REMARK    3  A    between atoms: C_13  and  C_29
REMARK    4  A    between atoms: N_19  and  C_20
REMARK    5  A    between atoms: C_20  and  C_21
REMARK    6  A    between atoms: N_23  and  C_24
REMARK    7  A    between atoms: C_24  and  C_25
REMARK    8  A    between atoms: C_25  and  N_26
REMARK    9  A    between atoms: N_26  and  C_27
REMARK   10  A    between atoms: N_26  and  C_28
REMARK                            x       y       z     vdW  Elec       q    Type
REMARK                         _______ _______ _______ _____ _____    ______ ____
ROOT
ATOM      1  C   UNL     1       0.683   0.940  -1.256  0.00  0.00    +0.174 C 
ATOM      2  N   UNL     1       1.445  -0.233  -0.822  0.00  0.00    -0.252 N 
ATOM      3  C   UNL     1       2.493  -0.789  -1.471  0.00  0.00    +0.131 A 
ATOM      4  C   UNL     1       2.925  -1.847  -0.751  0.00  0.00    +0.037 A 
ATOM      5  C   UNL     1       2.109  -1.956   0.388  0.00  0.00    +0.099 A 
ATOM      6  N   UNL     1       1.224  -0.979   0.346  0.00  0.00    -0.169 NA
ATOM      7  C   UNL     1       4.087  -2.731  -1.129  0.00  0.00    +0.115 C 
ATOM      8  S   UNL     1       3.575  -3.800  -2.522  0.00  0.00    -0.138 S 
ATOM      9  C   UNL     1       2.613  -2.641  -3.551  0.00  0.00    +0.166 C 
ATOM     10  C   UNL     1       3.293  -1.307  -3.625  0.00  0.00    +0.231 C 
ATOM     11  O   UNL     1       4.050  -1.065  -4.542  0.00  0.00    -0.274 OA
ATOM     12  N   UNL     1       3.070  -0.384  -2.684  0.00  0.00    -0.246 N 
ENDROOT
BRANCH   7  13
ATOM     13  C   UNL     1       4.479  -3.583   0.050  0.00  0.00    +0.005 A 
ATOM     14  C   UNL     1       3.966  -4.860   0.181  0.00  0.00    +0.010 A 
ATOM     15  C   UNL     1       4.325  -5.643   1.261  0.00  0.00    +0.039 A 
ATOM     16  C   UNL     1       5.199  -5.149   2.215  0.00  0.00    +0.126 A 
ATOM     17  C   UNL     1       5.714  -3.871   2.085  0.00  0.00    +0.077 A 
ATOM     18  C   UNL     1       5.358  -3.089   0.999  0.00  0.00    +0.131 A 
ATOM     19  F   UNL     1       5.863  -1.843   0.869  0.00  0.00    -0.205 F 
ATOM     20  F   UNL     1       5.550  -5.915   3.271  0.00  0.00    -0.205 F 
ENDBRANCH   7  13
BRANCH   5  21
ATOM     21  C   UNL     1       2.226  -2.984   1.452  0.00  0.00    +0.002 A 
ATOM     22  C   UNL     1       2.927  -2.701   2.622  0.00  0.00    +0.010 A 
ATOM     23  C   UNL     1       3.032  -3.661   3.609  0.00  0.00    +0.001 A 
ATOM     24  C   UNL     1       2.444  -4.901   3.437  0.00  0.00    +0.000 A 
ATOM     25  C   UNL     1       1.747  -5.186   2.277  0.00  0.00    +0.001 A 
ATOM     26  C   UNL     1       1.631  -4.232   1.286  0.00  0.00    +0.010 A 
ENDBRANCH   5  21
BRANCH  12  27
ATOM     27  C   UNL     1       3.419   1.020  -2.916  0.00  0.00    +0.210 C 
BRANCH  27  28
ATOM     28  C   UNL     1       4.833   1.268  -2.458  0.00  0.00    +0.231 C 
ATOM     29  O   UNL     1       5.486   0.362  -1.985  0.00  0.00    -0.274 OA
ATOM     30  N   UNL     1       5.373   2.498  -2.574  0.00  0.00    -0.316 N 
ATOM     31  H   UNL     1       4.852   3.223  -2.952  0.00  0.00    +0.149 HD
BRANCH  30  32
ATOM     32  C   UNL     1       6.748   2.739  -2.129  0.00  0.00    +0.085 C 
BRANCH  32  33
ATOM     33  C   UNL     1       7.113   4.205  -2.370  0.00  0.00    -0.061 C 
BRANCH  33  34
ATOM     34  N   UNL     1       8.491   4.447  -1.924  0.00  0.00    +0.377 N 
ATOM     35  C   UNL     1       8.882   5.821  -2.264  0.00  0.00    -0.097 C 
ATOM     36  C   UNL     1       8.575   4.260  -0.469  0.00  0.00    -0.097 C 
ATOM     37  H   UNL     1       9.112   3.797  -2.383  0.00  0.00    -0.083 HD
ENDBRANCH  33  34
ENDBRANCH  32  33
ENDBRANCH  30  32
ENDBRANCH  27  28
ENDBRANCH  12  27
TORSDOF 7
