REMARK  Name = ZINC19599169
REMARK  7 active torsions:
REMARK  status: ('A' for Active; 'I' for Inactive)
REMARK    1  A    between atoms: C_1  and  C_2
REMARK    2  A    between atoms: C_2  and  C_3
REMARK    3  A    between atoms: C_3  and  N_4
REMARK    4  A    between atoms: N_4  and  C_5
REMARK    5  A    between atoms: C_5  and  N_7
REMARK    6  A    between atoms: N_7  and  N_8
REMARK    7  A    between atoms: C_9  and  C_11
REMARK                            x       y       z     vdW  Elec       q    Type
REMARK                         _______ _______ _______ _____ _____    ______ ____
ROOT
ATOM      1  N   UNL     1       0.002  -0.004   0.002  0.00  0.00    -0.231 N 
ATOM      2  C   UNL     1      -0.016   1.344   0.009  0.00  0.00    +0.260 C 
ATOM      3  O   UNL     1       1.028   1.966   0.003  0.00  0.00    -0.269 OA
ATOM      4  H   UNL     1      -0.943  -0.567   0.008  0.00  0.00    +0.173 HD
ENDROOT
BRANCH   2   5
ATOM      5  C   UNL     1      -1.304   2.064   0.019  0.00  0.00    +0.043 A 
ATOM      6  C   UNL     1      -1.326   3.461   0.027  0.00  0.00    +0.062 A 
ATOM      7  C   UNL     1      -2.534   4.133   0.036  0.00  0.00    +0.164 A 
ATOM      8  C   UNL     1      -3.728   3.418   0.036  0.00  0.00    +0.180 A 
ATOM      9  C   UNL     1      -3.707   2.027   0.030  0.00  0.00    +0.087 A 
ATOM     10  C   UNL     1      -2.506   1.351   0.015  0.00  0.00    +0.037 A 
ATOM     11 CL   UNL     1      -5.199   1.140   0.033  0.00  0.00    -0.080 Cl
ATOM     12  O   UNL     1      -4.925   4.064   0.040  0.00  0.00    -0.483 OA
ATOM     13  C   UNL     1      -4.911   5.442   0.426  0.00  0.00    +0.270 C 
ATOM     14  C   UNL     1      -3.764   6.138  -0.318  0.00  0.00    +0.270 C 
ATOM     15  O   UNL     1      -2.538   5.495   0.048  0.00  0.00    -0.485 OA
ENDBRANCH   2   5
BRANCH   1  16
ATOM     16  N   UNL     1       1.225  -0.688  -0.013  0.00  0.00    -0.246 N 
ATOM     17  H   UNL     1       2.170  -0.125  -0.019  0.00  0.00    +0.172 HD
BRANCH  16  18
ATOM     18  C   UNL     1       1.243  -2.036  -0.021  0.00  0.00    +0.147 C 
ATOM     19  S   UNL     1       2.737  -2.871  -0.040  0.00  0.00    -0.017 S 
BRANCH  18  20
ATOM     20  N   UNL     1       0.085  -2.725  -0.013  0.00  0.00    -0.325 N 
ATOM     21  H   UNL     1      -0.875  -2.188  -0.001  0.00  0.00    +0.148 HD
BRANCH  20  22
ATOM     22  C   UNL     1       0.105  -4.190  -0.021  0.00  0.00    +0.103 C 
BRANCH  22  24
ATOM     23  C   UNL     1      -1.310  -6.250  -0.019  0.00  0.00    +0.005 C 
ATOM     24  C   UNL     1      -1.330  -4.720  -0.011  0.00  0.00    +0.015 C 
ENDBRANCH  22  24
ENDBRANCH  20  22
ENDBRANCH  18  20
ENDBRANCH  16  18
ENDBRANCH   1  16
TORSDOF 6
