REMARK  Name = ZINC01428961
REMARK  5 active torsions:
REMARK  status: ('A' for Active; 'I' for Inactive)
REMARK    1  A    between atoms: C_1  and  C_2
REMARK    2  A    between atoms: C_4  and  C_24
REMARK    3  A    between atoms: C_4  and  C_25
REMARK    4  A    between atoms: C_9  and  C_14
REMARK    5  A    between atoms: C_14  and  C_15
REMARK                            x       y       z     vdW  Elec       q    Type
REMARK                         _______ _______ _______ _____ _____    ______ ____
ROOT
ATOM      1  C   UNL     1      -0.316   0.820   0.214  0.00  0.00    +0.078 C 
ATOM      2  C   UNL     1      -0.060  -0.670   0.451  0.00  0.00    +0.182 C 
ATOM      3  C   UNL     1      -1.314  -1.358   1.001  0.00  0.00    +0.094 C 
ATOM      4  C   UNL     1      -1.612  -0.771   2.385  0.00  0.00    +0.033 C 
ATOM      5  N   UNL     1      -0.445  -0.863   3.259  0.00  0.00    -0.321 N 
ATOM      6  C   UNL     1       0.815  -0.865   2.777  0.00  0.00    +0.137 C 
ATOM      7  S   UNL     1       2.151  -0.865   3.848  0.00  0.00    -0.019 S 
ATOM      8  N   UNL     1       1.008  -0.869   1.453  0.00  0.00    -0.261 N 
ATOM      9  C   UNL     1       2.223  -1.114   0.672  0.00  0.00    +0.192 C 
ATOM     10  C   UNL     1       1.755  -1.133  -0.773  0.00  0.00    +0.330 C 
ATOM     11  O   UNL     1       2.447  -1.021  -1.757  0.00  0.00    -0.249 OA
ATOM     12  O   UNL     1       0.413  -1.301  -0.743  0.00  0.00    -0.439 OA
ATOM     13  C   UNL     1      -2.773  -1.541   3.017  0.00  0.00    +0.031 C 
ATOM     14  C   UNL     1      -2.010   0.698   2.232  0.00  0.00    +0.031 C 
ATOM     15  H   UNL     1      -0.581  -0.924   4.217  0.00  0.00    +0.148 HD
ENDROOT
BRANCH   9  16
ATOM     16  C   UNL     1       3.235   0.012   0.893  0.00  0.00    +0.071 C 
BRANCH  16  17
ATOM     17  C   UNL     1       4.529  -0.333   0.201  0.00  0.00    -0.020 A 
ATOM     18  C   UNL     1       4.955   0.117  -1.126  0.00  0.00    +0.003 A 
ATOM     19  C   UNL     1       4.380   0.929  -2.106  0.00  0.00    +0.010 A 
ATOM     20  C   UNL     1       5.053   1.164  -3.272  0.00  0.00    +0.001 A 
ATOM     21  C   UNL     1       6.302   0.601  -3.491  0.00  0.00    +0.002 A 
ATOM     22  C   UNL     1       6.887  -0.203  -2.538  0.00  0.00    +0.026 A 
ATOM     23  C   UNL     1       6.221  -0.456  -1.343  0.00  0.00    +0.047 A 
ATOM     24  N   UNL     1       6.529  -1.196  -0.224  0.00  0.00    -0.360 N 
ATOM     25  C   UNL     1       5.513  -1.106   0.688  0.00  0.00    +0.087 A 
ATOM     26  H   UNL     1       7.347  -1.702  -0.098  0.00  0.00    +0.165 HD
ENDBRANCH  16  17
ENDBRANCH   9  16
TORSDOF 2
