REMARK  Name = ZINC39685074
REMARK  7 active torsions:
REMARK  status: ('A' for Active; 'I' for Inactive)
REMARK    1  A    between atoms: C_5  and  O_7
REMARK    2  A    between atoms: O_7  and  C_8
REMARK    3  A    between atoms: C_8  and  C_9
REMARK    4  A    between atoms: C_9  and  N_10
REMARK    5  A    between atoms: C_11  and  C_13
REMARK    6  A    between atoms: C_24  and  C_26
REMARK    7  A    between atoms: C_28  and  C_33
REMARK                            x       y       z     vdW  Elec       q    Type
REMARK                         _______ _______ _______ _____ _____    ______ ____
ROOT
ATOM      1  C   UNL     1       2.140  -6.267   3.327  0.00  0.00    +0.100 C 
ATOM      2  C   UNL     1       1.025  -5.833   4.305  0.00  0.00    +0.121 C 
ATOM      3  N   UNL     1       0.235  -7.065   4.541  0.00  0.00    -0.296 N 
ATOM      4  C   UNL     1       1.249  -8.143   4.623  0.00  0.00    +0.115 C 
ATOM      5  C   UNL     1       2.287  -7.783   3.542  0.00  0.00    -0.004 C 
ATOM      6  C   UNL     1       3.694  -8.114   4.029  0.00  0.00    -0.010 C 
ATOM      7  C   UNL     1       3.833  -9.631   4.179  0.00  0.00    -0.082 C 
ATOM      8  N   UNL     1       3.576 -10.279   2.887  0.00  0.00    +0.379 N 
ATOM      9  C   UNL     1       2.190 -10.032   2.471  0.00  0.00    -0.082 C 
ATOM     10  C   UNL     1       1.981  -8.532   2.248  0.00  0.00    -0.010 C 
ATOM     11  C   UNL     1      -1.103  -7.178   4.656  0.00  0.00    +0.247 C 
ATOM     12  O   UNL     1      -1.816  -6.218   4.439  0.00  0.00    -0.270 OA
ATOM     13  H   UNL     1       4.206  -9.904   2.193  0.00  0.00    -0.086 HD
ATOM     14  H   UNL     1       3.728 -11.272   2.974  0.00  0.00    -0.086 HD
ENDROOT
BRANCH  11  15
ATOM     15  C   UNL     1      -1.705  -8.472   5.045  0.00  0.00    +0.040 A 
ATOM     16  C   UNL     1      -0.935  -9.432   5.705  0.00  0.00    +0.025 A 
ATOM     17  C   UNL     1      -1.501 -10.637   6.066  0.00  0.00    +0.058 A 
ATOM     18  C   UNL     1      -2.829 -10.896   5.777  0.00  0.00    +0.050 A 
ATOM     19  C   UNL     1      -3.599  -9.948   5.122  0.00  0.00    +0.125 A 
ATOM     20  C   UNL     1      -3.045  -8.735   4.760  0.00  0.00    +0.051 A 
ATOM     21  F   UNL     1      -4.895 -10.208   4.842  0.00  0.00    -0.205 F 
BRANCH  17  22
ATOM     22  C   UNL     1      -0.671 -11.674   6.778  0.00  0.00    +0.418 C 
ATOM     23  F   UNL     1      -0.767 -11.480   8.160  0.00  0.00    -0.166 F 
ATOM     24  F   UNL     1      -1.140 -12.951   6.452  0.00  0.00    -0.166 F 
ATOM     25  F   UNL     1       0.665 -11.553   6.382  0.00  0.00    -0.166 F 
ENDBRANCH  17  22
ENDBRANCH  11  15
BRANCH   1  27
ATOM     26  N   UNL     1       2.676  -5.816   0.955  0.00  0.00    -0.312 N 
ATOM     27  C   UNL     1       1.734  -5.975   1.905  0.00  0.00    +0.218 C 
ATOM     28  O   UNL     1       0.559  -5.884   1.617  0.00  0.00    -0.275 OA
ATOM     29  H   UNL     1       3.615  -5.889   1.185  0.00  0.00    +0.149 HD
BRANCH  26  30
ATOM     30  C   UNL     1       2.281  -5.533  -0.428  0.00  0.00    +0.145 C 
BRANCH  30  31
ATOM     31  C   UNL     1       3.532  -5.398  -1.298  0.00  0.00    +0.248 C 
BRANCH  31  32
ATOM     32  O   UNL     1       4.214  -6.653  -1.349  0.00  0.00    -0.488 OA
BRANCH  32  37
ATOM     33  C   UNL     1       6.967  -5.630  -3.498  0.00  0.00    +0.004 A 
ATOM     34  C   UNL     1       7.676  -6.813  -3.590  0.00  0.00    +0.003 A 
ATOM     35  C   UNL     1       7.228  -7.944  -2.932  0.00  0.00    +0.042 A 
ATOM     36  C   UNL     1       6.068  -7.894  -2.181  0.00  0.00    +0.165 A 
ATOM     37  C   UNL     1       5.354  -6.706  -2.087  0.00  0.00    +0.156 A 
ATOM     38  C   UNL     1       5.807  -5.574  -2.748  0.00  0.00    +0.048 A 
ATOM     39  F   UNL     1       5.629  -8.999  -1.539  0.00  0.00    -0.202 F 
ENDBRANCH  32  37
ENDBRANCH  31  32
ENDBRANCH  30  31
ENDBRANCH  26  30
ENDBRANCH   1  27
TORSDOF 7
