REMARK  Name = ZINC16856668
REMARK  13 active torsions:
REMARK  status: ('A' for Active; 'I' for Inactive)
REMARK    1  A    between atoms: C_1  and  C_2
REMARK    2  A    between atoms: N_5  and  C_7
REMARK    3  A    between atoms: C_10  and  C_13
REMARK    4  A    between atoms: C_13  and  O_15
REMARK    5  A    between atoms: O_15  and  C_16
REMARK    6  A    between atoms: C_16  and  C_17
REMARK    7  A    between atoms: C_17  and  C_18
REMARK    8  A    between atoms: C_18  and  C_19
REMARK    9  A    between atoms: C_18  and  C_20
REMARK   10  A    between atoms: C_22  and  N_37
REMARK   11  A    between atoms: C_23  and  C_35
REMARK   12  A    between atoms: C_24  and  C_26
REMARK   13  A    between atoms: C_29  and  N_32
REMARK                            x       y       z     vdW  Elec       q    Type
REMARK                         _______ _______ _______ _____ _____    ______ ____
ROOT
ATOM      1  C   UNL     1      -1.778   1.186   3.078  0.00  0.00    +0.068 C 
ATOM      2  C   UNL     1      -1.614   2.597   2.577  0.00  0.00    +0.068 A 
ATOM      3  C   UNL     1      -1.423   2.974   1.254  0.00  0.00    +0.050 A 
ATOM      4  C   UNL     1      -1.321   4.337   1.211  0.00  0.00    +0.230 A 
ATOM      5  N   UNL     1      -1.444   4.793   2.478  0.00  0.00    -0.200 N 
ATOM      6  N   UNL     1      -1.628   3.682   3.316  0.00  0.00    -0.168 NA
ATOM      7  O   UNL     1      -1.133   5.022   0.057  0.00  0.00    -0.423 OA
ATOM      8  C   UNL     1      -1.319   4.357  -1.102  0.00  0.00    +0.200 C 
ATOM      9  C   UNL     1      -1.422   3.012  -1.189  0.00  0.00    +0.098 C 
ATOM     10  C   UNL     1      -1.332   2.114   0.020  0.00  0.00    +0.101 C 
ENDROOT
BRANCH   5  11
ATOM     11  C   UNL     1      -1.397   6.130   2.880  0.00  0.00    +0.069 A 
ATOM     12  C   UNL     1      -0.550   7.021   2.230  0.00  0.00    +0.029 A 
ATOM     13  C   UNL     1      -0.504   8.341   2.621  0.00  0.00    +0.017 A 
ATOM     14  C   UNL     1      -1.304   8.782   3.679  0.00  0.00    +0.059 A 
ATOM     15  C   UNL     1      -2.150   7.883   4.333  0.00  0.00    +0.017 A 
ATOM     16  C   UNL     1      -2.194   6.566   3.934  0.00  0.00    +0.029 A 
BRANCH  14  17
ATOM     17  C   UNL     1      -1.254  10.194   4.105  0.00  0.00    +0.339 C 
ATOM     18  O   UNL     1      -1.949  10.576   5.025  0.00  0.00    -0.245 OA
BRANCH  17  19
ATOM     19  O   UNL     1      -0.437  11.059   3.473  0.00  0.00    -0.461 OA
BRANCH  19  20
ATOM     20  C   UNL     1      -0.440  12.433   3.945  0.00  0.00    +0.233 C 
BRANCH  20  21
ATOM     21  C   UNL     1       0.542  13.260   3.112  0.00  0.00    +0.044 C 
BRANCH  21  22
ATOM     22  C   UNL     1       0.539  14.707   3.610  0.00  0.00    -0.014 C 
ATOM     23  C   UNL     1       1.609  15.505   2.862  0.00  0.00    +0.007 C 
ATOM     24  C   UNL     1      -0.834  15.331   3.354  0.00  0.00    +0.007 C 
ENDBRANCH  21  22
ENDBRANCH  20  21
ENDBRANCH  19  20
ENDBRANCH  17  19
ENDBRANCH  14  17
ENDBRANCH   5  11
BRANCH  10  25
ATOM     25  C   UNL     1      -0.017   1.378   0.010  0.00  0.00    -0.034 A 
ATOM     26  C   UNL     1       1.171   2.086   0.002  0.00  0.00    +0.007 A 
ATOM     27  C   UNL     1       2.377   1.411  -0.014  0.00  0.00    +0.033 A 
ATOM     28  C   UNL     1       2.396   0.029  -0.021  0.00  0.00    +0.126 A 
ATOM     29  C   UNL     1       1.208  -0.679  -0.014  0.00  0.00    +0.033 A 
ATOM     30  C   UNL     1       0.002  -0.004   0.002  0.00  0.00    +0.007 A 
BRANCH  28  31
ATOM     31  N   UNL     1       3.688  -0.694  -0.037  0.00  0.00    +0.056 N 
ATOM     32  O   UNL     1       3.704  -1.912  -0.044  0.00  0.00    -0.126 OA
ATOM     33  O   UNL     1       4.734  -0.071  -0.044  0.00  0.00    -0.126 OA
ENDBRANCH  28  31
ENDBRANCH  10  25
BRANCH   8  34
ATOM     34  N   UNL     1      -1.410   5.088  -2.260  0.00  0.00    -0.328 N 
ATOM     35  H   UNL     1      -1.339   6.055  -2.230  0.00  0.00    +0.145 HD
ATOM     36  H   UNL     1      -1.544   4.638  -3.109  0.00  0.00    +0.145 HD
ENDBRANCH   8  34
BRANCH   9  37
ATOM     37  C   UNL     1      -1.624   2.418  -2.476  0.00  0.00    +0.101 C 
ATOM     38  N   UNL     1      -1.784   1.946  -3.497  0.00  0.00    -0.191 NA
ENDBRANCH   9  37
TORSDOF 10
