REMARK  Name = ZINC37471665
REMARK  4 active torsions:
REMARK  status: ('A' for Active; 'I' for Inactive)
REMARK    1  A    between atoms: C_2  and  S_8
REMARK    2  A    between atoms: C_3  and  N_7
REMARK    3  A    between atoms: S_8  and  N_11
REMARK    4  A    between atoms: N_11  and  C_12
REMARK                            x       y       z     vdW  Elec       q    Type
REMARK                         _______ _______ _______ _____ _____    ______ ____
ROOT
ATOM      1  C   UNL     1      -0.013   1.076   0.008  0.00  0.00    +0.133 A 
ATOM      2  C   UNL     1       1.109   1.909   0.002  0.00  0.00    +0.166 A 
ATOM      3  C   UNL     1       0.670   3.199   0.012  0.00  0.00    +0.137 A 
ATOM      4  N   UNL     1      -0.682   3.169   0.024  0.00  0.00    -0.286 N 
ATOM      5  N   UNL     1      -1.083   1.827   0.017  0.00  0.00    -0.304 N 
ATOM      6  H   UNL     1      -1.269   3.941   0.034  0.00  0.00    +0.188 HD
ATOM      7  H   UNL     1      -2.000   1.509   0.019  0.00  0.00    +0.186 HD
ENDROOT
BRANCH   3   8
ATOM      8  N   UNL     1       1.468   4.339   0.011  0.00  0.00    -0.342 N 
ATOM      9  H   UNL     1       2.435   4.255   0.002  0.00  0.00    +0.144 HD
ATOM     10  H   UNL     1       1.058   5.218   0.019  0.00  0.00    +0.144 HD
ENDBRANCH   3   8
BRANCH   2  11
ATOM     11  S   UNL     1       2.792   1.386  -0.016  0.00  0.00    +0.098 S 
ATOM     12  O   UNL     1       3.455   2.115   1.008  0.00  0.00    -0.148 OA
ATOM     13  O   UNL     1       2.774  -0.035  -0.050  0.00  0.00    -0.148 OA
BRANCH  11  14
ATOM     14  N   UNL     1       3.445   1.886  -1.453  0.00  0.00    -0.070 NA
BRANCH  14  15
ATOM     15  C   UNL     1       4.772   1.609  -1.744  0.00  0.00    +0.202 A 
ATOM     16  N   UNL     1       5.653   0.963  -1.011  0.00  0.00    -0.229 NA
ATOM     17  C   UNL     1       6.892   0.781  -1.435  0.00  0.00    +0.136 A 
ATOM     18  C   UNL     1       7.207   1.288  -2.652  0.00  0.00    +0.076 A 
ATOM     19  S   UNL     1       5.645   2.012  -3.126  0.00  0.00    -0.042 S 
ATOM     20 BR   UNL     1       8.847   1.236  -3.592  0.00  0.00    -0.041 Br
ENDBRANCH  14  15
ENDBRANCH  11  14
ENDBRANCH   2  11
TORSDOF 4
