REMARK  Name = ZINC20738036
REMARK  10 active torsions:
REMARK  status: ('A' for Active; 'I' for Inactive)
REMARK    1  A    between atoms: C_1  and  O_2
REMARK    2  A    between atoms: O_2  and  C_3
REMARK    3  A    between atoms: C_3  and  C_5
REMARK    4  A    between atoms: C_5  and  C_6
REMARK    5  A    between atoms: C_6  and  C_7
REMARK    6  A    between atoms: C_7  and  C_9
REMARK    7  A    between atoms: C_7  and  N_13
REMARK    8  A    between atoms: C_9  and  O_11
REMARK    9  A    between atoms: O_11  and  C_12
REMARK   10  A    between atoms: C_25  and  C_27
REMARK                            x       y       z     vdW  Elec       q    Type
REMARK                         _______ _______ _______ _____ _____    ______ ____
ROOT
ATOM      1  N   UNL     1       1.171  -6.556  -1.486  0.00  0.00    -0.286 N 
ATOM      2  C   UNL     1       2.110  -5.786  -0.901  0.00  0.00    +0.304 C 
ATOM      3  O   UNL     1       2.350  -4.679  -1.343  0.00  0.00    -0.253 OA
ATOM      4  N   UNL     1       2.781  -6.242   0.175  0.00  0.00    -0.273 N 
ATOM      5  C   UNL     1       3.730  -5.378   0.893  0.00  0.00    +0.116 C 
ATOM      6  C   UNL     1       3.212  -5.139   2.317  0.00  0.00    +0.074 C 
ATOM      7  C   UNL     1       2.745  -6.452   2.890  0.00  0.00    +0.040 A 
ATOM      8  C   UNL     1       2.461  -7.554   2.163  0.00  0.00    +0.062 A 
ATOM      9  N   UNL     1       2.077  -8.518   3.003  0.00  0.00    -0.348 N 
ATOM     10  C   UNL     1       2.114  -8.059   4.227  0.00  0.00    +0.171 A 
ATOM     11  N   UNL     1       2.529  -6.771   4.197  0.00  0.00    -0.349 N 
ATOM     12  H   UNL     1       2.648  -6.186   4.961  0.00  0.00    +0.166 HD
ATOM     13  C   UNL     1       2.579  -7.618   0.663  0.00  0.00    +0.156 C 
ATOM     14  H   UNL     1       1.033  -7.467  -1.183  0.00  0.00    +0.151 HD
ATOM     15  H   UNL     1       1.812  -9.415   2.746  0.00  0.00    +0.167 HD
ENDROOT
BRANCH  13  16
ATOM     16  C   UNL     1       3.758  -8.476   0.282  0.00  0.00    -0.021 A 
ATOM     17  C   UNL     1       5.009  -8.200   0.800  0.00  0.00    +0.007 A 
ATOM     18  C   UNL     1       6.091  -8.987   0.452  0.00  0.00    +0.015 A 
ATOM     19  C   UNL     1       5.921 -10.051  -0.415  0.00  0.00    +0.018 A 
ATOM     20  C   UNL     1       4.668 -10.327  -0.934  0.00  0.00    +0.015 A 
ATOM     21  C   UNL     1       3.587  -9.543  -0.581  0.00  0.00    +0.007 A 
ATOM     22 BR   UNL     1       7.400 -11.127  -0.893  0.00  0.00    -0.050 Br
ENDBRANCH  13  16
BRANCH   1  23
ATOM     23  C   UNL     1       0.359  -6.017  -2.580  0.00  0.00    +0.184 C 
BRANCH  23  24
ATOM     24  C   UNL     1      -0.818  -5.267  -2.010  0.00  0.00    +0.327 C 
ATOM     25  O   UNL     1      -0.963  -5.191  -0.812  0.00  0.00    -0.249 OA
BRANCH  24  26
ATOM     26  O   UNL     1      -1.704  -4.684  -2.832  0.00  0.00    -0.467 OA
ATOM     27  C   UNL     1      -2.795  -3.991  -2.223  0.00  0.00    +0.280 C 
ENDBRANCH  24  26
ENDBRANCH  23  24
BRANCH  23  28
ATOM     28  C   UNL     1      -0.144  -7.166  -3.455  0.00  0.00    +0.045 C 
BRANCH  28  29
ATOM     29  C   UNL     1       1.045  -7.849  -4.133  0.00  0.00    +0.123 C 
BRANCH  29  30
ATOM     30  C   UNL     1       0.550  -8.981  -4.996  0.00  0.00    +0.307 C 
ATOM     31  O   UNL     1      -0.633  -9.217  -5.062  0.00  0.00    -0.251 OA
BRANCH  30  33
ATOM     32  C   UNL     1       0.883 -10.784  -6.488  0.00  0.00    +0.280 C 
ATOM     33  O   UNL     1       1.423  -9.727  -5.691  0.00  0.00    -0.468 OA
ENDBRANCH  30  33
ENDBRANCH  29  30
ENDBRANCH  28  29
ENDBRANCH  23  28
ENDBRANCH   1  23
TORSDOF 8
