REMARK  Name = ZINC39656009
REMARK  7 active torsions:
REMARK  status: ('A' for Active; 'I' for Inactive)
REMARK    1  A    between atoms: C_1  and  C_2
REMARK    2  A    between atoms: C_8  and  C_11
REMARK    3  A    between atoms: C_11  and  C_12
REMARK    4  A    between atoms: C_12  and  N_13
REMARK    5  A    between atoms: C_14  and  C_16
REMARK    6  A    between atoms: C_27  and  C_29
REMARK    7  A    between atoms: C_35  and  C_37
REMARK                            x       y       z     vdW  Elec       q    Type
REMARK                         _______ _______ _______ _____ _____    ______ ____
ROOT
ATOM      1  C   UNL     1       4.623  -0.116  -7.496  0.00  0.00    +0.100 C 
ATOM      2  C   UNL     1       5.647   0.305  -6.418  0.00  0.00    +0.121 C 
ATOM      3  N   UNL     1       6.099  -0.970  -5.812  0.00  0.00    -0.300 N 
ATOM      4  C   UNL     1       6.207  -1.905  -6.958  0.00  0.00    +0.115 C 
ATOM      5  C   UNL     1       4.996  -1.566  -7.850  0.00  0.00    -0.004 C 
ATOM      6  C   UNL     1       5.381  -1.668  -9.323  0.00  0.00    -0.010 C 
ATOM      7  C   UNL     1       5.691  -3.128  -9.665  0.00  0.00    -0.082 C 
ATOM      8  N   UNL     1       4.513  -3.958  -9.387  0.00  0.00    +0.379 N 
ATOM      9  C   UNL     1       4.206  -3.928  -7.952  0.00  0.00    -0.082 C 
ATOM     10  C   UNL     1       3.833  -2.502  -7.538  0.00  0.00    -0.010 C 
ATOM     11  C   UNL     1       6.354  -1.222  -4.513  0.00  0.00    +0.219 C 
ATOM     12  O   UNL     1       6.720  -2.326  -4.170  0.00  0.00    -0.275 OA
ATOM     13  H   UNL     1       3.723  -3.604  -9.906  0.00  0.00    -0.086 HD
ATOM     14  H   UNL     1       4.699  -4.909  -9.671  0.00  0.00    -0.086 HD
ENDROOT
BRANCH  11  15
ATOM     15  C   UNL     1       6.184  -0.132  -3.486  0.00  0.00    +0.078 C 
ATOM     16  C   UNL     1       7.111   1.038  -3.827  0.00  0.00    +0.032 C 
ATOM     17  C   UNL     1       6.911   2.158  -2.801  0.00  0.00    +0.108 C 
ATOM     18  N   UNL     1       7.106   1.605  -1.453  0.00  0.00    -0.302 N 
ATOM     19  C   UNL     1       6.329   0.423  -1.055  0.00  0.00    +0.108 C 
ATOM     20  C   UNL     1       6.536  -0.677  -2.101  0.00  0.00    +0.032 C 
ATOM     21  C   UNL     1       7.981   2.172  -0.599  0.00  0.00    +0.212 C 
ATOM     22  O   UNL     1       8.616   3.147  -0.940  0.00  0.00    -0.276 OA
ATOM     23  C   UNL     1       8.169   1.593   0.780  0.00  0.00    +0.109 C 
ENDBRANCH  11  15
BRANCH   1  25
ATOM     24  N   UNL     1       2.183   0.182  -7.765  0.00  0.00    -0.315 N 
ATOM     25  C   UNL     1       3.223  -0.055  -6.942  0.00  0.00    +0.218 C 
ATOM     26  O   UNL     1       3.033  -0.220  -5.756  0.00  0.00    -0.275 OA
ATOM     27  H   UNL     1       2.335   0.314  -8.714  0.00  0.00    +0.149 HD
BRANCH  24  28
ATOM     28  C   UNL     1       0.821   0.242  -7.226  0.00  0.00    +0.109 C 
BRANCH  28  29
ATOM     29  C   UNL     1      -0.165   0.522  -8.362  0.00  0.00    +0.056 C 
BRANCH  29  37
ATOM     30  C   UNL     1      -2.256   5.367  -6.134  0.00  0.00    +0.044 C 
ATOM     31  C   UNL     1      -2.687   3.945  -6.388  0.00  0.00    -0.050 A 
ATOM     32  C   UNL     1      -3.961   3.535  -6.021  0.00  0.00    +0.005 A 
ATOM     33  C   UNL     1      -4.374   2.240  -6.244  0.00  0.00    +0.026 A 
ATOM     34  C   UNL     1      -3.507   1.332  -6.844  0.00  0.00    +0.047 A 
ATOM     35  N   UNL     1      -3.617   0.005  -7.192  0.00  0.00    -0.360 N 
ATOM     36  C   UNL     1      -2.451  -0.424  -7.765  0.00  0.00    +0.087 A 
ATOM     37  C   UNL     1      -1.565   0.583  -7.808  0.00  0.00    -0.021 A 
ATOM     38  C   UNL     1      -2.217   1.753  -7.214  0.00  0.00    +0.003 A 
ATOM     39  C   UNL     1      -1.821   3.071  -6.984  0.00  0.00    +0.013 A 
ATOM     40  H   UNL     1      -4.404  -0.545  -7.051  0.00  0.00    +0.165 HD
ENDBRANCH  29  37
ENDBRANCH  28  29
ENDBRANCH  24  28
ENDBRANCH   1  25
TORSDOF 5
