REMARK  Name = ZINC14479913
REMARK  4 active torsions:
REMARK  status: ('A' for Active; 'I' for Inactive)
REMARK    1  A    between atoms: C_1  and  C_2
REMARK    2  A    between atoms: C_6  and  C_8
REMARK    3  A    between atoms: C_18  and  N_25
REMARK    4  A    between atoms: C_21  and  O_24
REMARK                            x       y       z     vdW  Elec       q    Type
REMARK                         _______ _______ _______ _____ _____    ______ ____
ROOT
ATOM      1  C   UNL     1      -0.017  -2.804   2.576  0.00  0.00    +0.105 C 
ATOM      2  C   UNL     1       1.395  -3.281   2.863  0.00  0.00    +0.029 C 
ATOM      3  C   UNL     1       2.440  -2.211   3.205  0.00  0.00    +0.033 C 
ATOM      4  C   UNL     1       3.396  -2.991   4.110  0.00  0.00    -0.030 C 
ATOM      5  C   UNL     1       2.751  -3.995   4.693  0.00  0.00    -0.023 C 
ATOM      6  C   UNL     1       1.322  -3.983   4.253  0.00  0.00    +0.051 C 
ATOM      7  C   UNL     1       0.517  -5.214   4.097  0.00  0.00    +0.014 A 
ATOM      8  C   UNL     1       0.789  -6.370   4.800  0.00  0.00    +0.132 A 
ATOM      9  C   UNL     1       0.001  -7.493   4.632  0.00  0.00    +0.037 A 
ATOM     10  C   UNL     1      -1.068  -7.462   3.755  0.00  0.00    +0.049 A 
ATOM     11  C   UNL     1      -1.347  -6.311   3.040  0.00  0.00    +0.138 A 
ATOM     12  C   UNL     1      -0.553  -5.176   3.199  0.00  0.00    +0.076 A 
ATOM     13  N   UNL     1      -0.835  -4.029   2.440  0.00  0.00    -0.334 N 
ATOM     14  H   UNL     1      -1.576  -4.040   1.814  0.00  0.00    +0.147 HD
ENDROOT
BRANCH   1  20
ATOM     15  C   UNL     1      -0.177   1.601   0.207  0.00  0.00    +0.044 C 
ATOM     16  C   UNL     1      -0.126   0.096   0.161  0.00  0.00    -0.050 A 
ATOM     17  C   UNL     1      -0.107  -0.558  -1.057  0.00  0.00    +0.003 A 
ATOM     18  C   UNL     1      -0.060  -1.939  -1.099  0.00  0.00    +0.001 A 
ATOM     19  C   UNL     1      -0.031  -2.666   0.077  0.00  0.00    +0.005 A 
ATOM     20  C   UNL     1      -0.048  -2.012   1.294  0.00  0.00    -0.027 A 
ATOM     21  C   UNL     1      -0.091  -0.630   1.336  0.00  0.00    +0.008 A 
ENDBRANCH   1  20
BRANCH   8  22
ATOM     22  N   UNL     1       1.932  -6.407   5.740  0.00  0.00    +0.057 N 
ATOM     23  O   UNL     1       2.764  -7.279   5.645  0.00  0.00    -0.126 OA
ATOM     24  O   UNL     1       2.032  -5.567   6.603  0.00  0.00    -0.126 OA
ENDBRANCH   8  22
BRANCH  11  25
ATOM     25  O   UNL     1      -2.400  -6.285   2.180  0.00  0.00    -0.505 OA
ATOM     26  H   UNL     1      -3.231  -6.001   2.584  0.00  0.00    +0.292 HD
ENDBRANCH  11  25
TORSDOF 3
