REMARK  Name = ZINC20834351
REMARK  9 active torsions:
REMARK  status: ('A' for Active; 'I' for Inactive)
REMARK    1  A    between atoms: C_1  and  C_2
REMARK    2  A    between atoms: C_2  and  O_3
REMARK    3  A    between atoms: O_3  and  C_4
REMARK    4  A    between atoms: C_14  and  C_16
REMARK    5  A    between atoms: C_16  and  S_17
REMARK    6  A    between atoms: S_17  and  C_18
REMARK    7  A    between atoms: N_23  and  N_24
REMARK    8  A    between atoms: C_25  and  C_26
REMARK    9  A    between atoms: C_25  and  C_27
REMARK                            x       y       z     vdW  Elec       q    Type
REMARK                         _______ _______ _______ _____ _____    ______ ____
ROOT
ATOM      1  C   UNL     1       1.083   1.784   0.001  0.00  0.00    +0.211 A 
ATOM      2  N   UNL     1      -0.011   0.966   0.007  0.00  0.00    -0.186 NA
ATOM      3  C   UNL     1      -1.128   1.754   0.016  0.00  0.00    +0.232 A 
ATOM      4  N   UNL     1      -0.740   3.007   0.025  0.00  0.00    -0.245 N 
ATOM      5  N   UNL     1       0.661   3.026   0.012  0.00  0.00    -0.144 NA
ATOM      6  N   UNL     1      -2.442   1.308   0.019  0.00  0.00    -0.205 N 
ATOM      7  H   UNL     1      -2.656   0.229   0.014  0.00  0.00    +0.177 HD
ATOM      8  H   UNL     1      -1.487   3.814   0.041  0.00  0.00    +0.192 HD
ENDROOT
BRANCH   6   9
ATOM      9  N   UNL     1      -3.495   2.231   0.029  0.00  0.00    -0.184 NA
ATOM     10  C   UNL     1      -4.725   1.813   0.031  0.00  0.00    +0.063 C 
ATOM     11  C   UNL     1      -5.018   0.335   0.025  0.00  0.00    +0.068 C 
BRANCH  10  12
ATOM     12  C   UNL     1      -5.834   2.784   0.041  0.00  0.00    +0.001 A 
ATOM     13  C   UNL     1      -7.157   2.337   0.044  0.00  0.00    +0.013 A 
ATOM     14  C   UNL     1      -8.193   3.247   0.054  0.00  0.00    +0.050 A 
ATOM     15  C   UNL     1      -7.926   4.609   0.060  0.00  0.00    +0.166 A 
ATOM     16  C   UNL     1      -6.607   5.062   0.057  0.00  0.00    +0.167 A 
ATOM     17  C   UNL     1      -5.564   4.155   0.053  0.00  0.00    +0.059 A 
ATOM     18  O   UNL     1      -6.616   6.428   0.064  0.00  0.00    -0.453 OA
ATOM     19  C   UNL     1      -7.941   6.801   0.484  0.00  0.00    +0.466 C 
ATOM     20  O   UNL     1      -8.758   5.691   0.069  0.00  0.00    -0.453 OA
ENDBRANCH  10  12
ENDBRANCH   6   9
BRANCH   1  21
ATOM     21  S   UNL     1       2.766   1.262  -0.017  0.00  0.00    -0.075 S 
BRANCH  21  22
ATOM     22  C   UNL     1       3.706   2.813  -0.018  0.00  0.00    +0.173 C 
BRANCH  22  33
ATOM     23  C   UNL     1      12.198   1.997  -0.105  0.00  0.00    +0.122 A 
ATOM     24  C   UNL     1      11.511   0.787  -0.104  0.00  0.00    +0.048 A 
ATOM     25  C   UNL     1      10.142   0.743  -0.091  0.00  0.00    +0.032 A 
ATOM     26  C   UNL     1       9.379   1.933  -0.076  0.00  0.00    +0.081 A 
ATOM     27  C   UNL     1      10.108   3.144  -0.077  0.00  0.00    +0.044 A 
ATOM     28  C   UNL     1      11.480   3.183  -0.091  0.00  0.00    +0.063 A 
ATOM     29  S   UNL     1       8.817   4.364  -0.065  0.00  0.00    -0.052 S 
ATOM     30  C   UNL     1       7.436   3.229  -0.051  0.00  0.00    +0.165 A 
ATOM     31  N   UNL     1       8.033   2.061  -0.063  0.00  0.00    -0.225 NA
ATOM     32  N   UNL     1       6.079   3.512  -0.037  0.00  0.00    -0.264 N 
ATOM     33  C   UNL     1       5.182   2.506  -0.033  0.00  0.00    +0.229 C 
ATOM     34  O   UNL     1       5.561   1.355  -0.043  0.00  0.00    -0.275 OA
ATOM     35  H   UNL     1       5.735   4.556  -0.028  0.00  0.00    +0.157 HD
BRANCH  23  36
ATOM     36  O   UNL     1      13.558   2.015  -0.119  0.00  0.00    -0.492 OA
BRANCH  36  38
ATOM     37  C   UNL     1      15.738   0.972  -0.147  0.00  0.00    +0.048 C 
ATOM     38  C   UNL     1      14.224   0.751  -0.132  0.00  0.00    +0.225 C 
ENDBRANCH  36  38
ENDBRANCH  23  36
ENDBRANCH  22  33
ENDBRANCH  21  22
ENDBRANCH   1  21
TORSDOF 7
