REMARK  Name = ZINC66595843
REMARK  9 active torsions:
REMARK  status: ('A' for Active; 'I' for Inactive)
REMARK    1  A    between atoms: C_1  and  C_2
REMARK    2  A    between atoms: C_5  and  C_9
REMARK    3  A    between atoms: C_6  and  C_8
REMARK    4  A    between atoms: C_9  and  C_10
REMARK    5  A    between atoms: C_10  and  C_12
REMARK    6  A    between atoms: C_10  and  N_13
REMARK    7  A    between atoms: N_16  and  N_17
REMARK    8  A    between atoms: C_18  and  C_20
REMARK    9  A    between atoms: C_21  and  C_29
REMARK                            x       y       z     vdW  Elec       q    Type
REMARK                         _______ _______ _______ _____ _____    ______ ____
ROOT
ATOM      1  N   UNL     1      -2.144  -4.462  -1.087  0.00  0.00    -0.295 N 
ATOM      2  C   UNL     1      -3.484  -4.336  -1.004  0.00  0.00    +0.316 C 
ATOM      3  O   UNL     1      -4.051  -4.554   0.049  0.00  0.00    -0.251 OA
ATOM      4  N   UNL     1      -4.194  -3.969  -2.089  0.00  0.00    -0.218 N 
ATOM      5  H   UNL     1      -1.692  -4.288  -1.928  0.00  0.00    +0.151 HD
ATOM      6  H   UNL     1      -5.158  -3.878  -2.029  0.00  0.00    +0.174 HD
ENDROOT
BRANCH   4   7
ATOM      7  N   UNL     1      -3.541  -3.718  -3.303  0.00  0.00    -0.228 N 
ATOM      8  C   UNL     1      -4.252  -3.350  -4.387  0.00  0.00    +0.279 C 
ATOM      9  O   UNL     1      -5.469  -3.328  -4.339  0.00  0.00    -0.267 OA
ATOM     10  H   UNL     1      -2.577  -3.808  -3.362  0.00  0.00    +0.173 HD
BRANCH   8  11
ATOM     11  C   UNL     1      -3.583  -2.991  -5.585  0.00  0.00    +0.133 A 
ATOM     12  C   UNL     1      -3.388  -3.791  -6.698  0.00  0.00    +0.069 A 
ATOM     13  N   UNL     1      -2.722  -3.089  -7.601  0.00  0.00    -0.232 NA
ATOM     14  C   UNL     1      -2.473  -1.868  -7.129  0.00  0.00    +0.138 A 
ATOM     15  N   UNL     1      -3.003  -1.769  -5.874  0.00  0.00    -0.295 N 
ATOM     16  C   UNL     1      -2.893  -0.615  -5.164  0.00  0.00    +0.093 A 
ATOM     17  C   UNL     1      -2.261   0.460  -5.689  0.00  0.00    +0.018 A 
ATOM     18  C   UNL     1      -1.710   0.393  -6.976  0.00  0.00    +0.005 A 
ATOM     19  C   UNL     1      -1.808  -0.763  -7.691  0.00  0.00    +0.047 A 
ATOM     20  C   UNL     1      -3.853  -5.216  -6.855  0.00  0.00    +0.068 C 
ENDBRANCH   8  11
ENDBRANCH   4   7
BRANCH   1  21
ATOM     21  C   UNL     1      -1.371  -4.861   0.092  0.00  0.00    +0.076 C 
ATOM     22  C   UNL     1      -1.361  -6.387   0.202  0.00  0.00    +0.028 C 
BRANCH  21  23
ATOM     23  C   UNL     1       0.064  -4.349  -0.043  0.00  0.00    +0.057 C 
BRANCH  23  28
ATOM     24  C   UNL     1       0.060   1.429   0.015  0.00  0.00    +0.044 C 
ATOM     25  C   UNL     1       0.061  -0.078  -0.000  0.00  0.00    -0.050 A 
ATOM     26  C   UNL     1       0.051  -0.757  -1.204  0.00  0.00    +0.003 A 
ATOM     27  C   UNL     1       0.053  -2.139  -1.218  0.00  0.00    +0.004 A 
ATOM     28  C   UNL     1       0.064  -2.842  -0.028  0.00  0.00    -0.043 A 
ATOM     29  C   UNL     1       0.075  -2.163   1.176  0.00  0.00    -0.047 A 
ATOM     30  C   UNL     1       0.078  -0.781   1.190  0.00  0.00    +0.007 A 
ATOM     31  C   UNL     1       0.086  -2.930   2.474  0.00  0.00    +0.044 C 
ENDBRANCH  23  28
ENDBRANCH  21  23
ENDBRANCH   1  21
TORSDOF 5
