REMARK  Name = ZINC08345177
REMARK  5 active torsions:
REMARK  status: ('A' for Active; 'I' for Inactive)
REMARK    1  A    between atoms: C_4  and  C_7
REMARK    2  A    between atoms: C_7  and  C_9
REMARK    3  A    between atoms: C_7  and  N_58
REMARK    4  A    between atoms: C_9  and  C_11
REMARK    5  A    between atoms: C_26  and  C_28
REMARK                            x       y       z     vdW  Elec       q    Type
REMARK                         _______ _______ _______ _____ _____    ______ ____
ROOT
ATOM      1  C   UNL     1       1.151   3.592   0.010  0.00  0.00    +0.035 C 
ENDROOT
BRANCH   1   9
ATOM      2  C   UNL     1       2.083   3.530   2.244  0.00  0.00    -0.058 C 
ATOM      3  C   UNL     1       3.304   3.928   3.079  0.00  0.00    +0.089 C 
ATOM      4  N   UNL     1       3.450   5.391   3.026  0.00  0.00    -0.303 N 
ATOM      5  C   UNL     1       3.450   6.042   1.707  0.00  0.00    +0.089 C 
ATOM      6  C   UNL     1       2.223   5.561   0.925  0.00  0.00    -0.058 C 
ATOM      7  C   UNL     1       3.579   6.115   4.155  0.00  0.00    +0.244 C 
ATOM      8  O   UNL     1       3.699   7.320   4.092  0.00  0.00    -0.273 OA
ATOM      9  N   UNL     1       2.239   4.082   0.881  0.00  0.00    +0.391 N 
ATOM     10  H   UNL     1       3.139   3.771   0.497  0.00  0.00    -0.080 HD
BRANCH   7  11
ATOM     11  C   UNL     1       3.576   5.427   5.496  0.00  0.00    +0.204 C 
ATOM     12  C   UNL     1       4.815   4.519   5.622  0.00  0.00    +0.043 C 
ATOM     13  C   UNL     1       5.553   5.057   6.872  0.00  0.00    +0.031 C 
ATOM     14  C   UNL     1       4.423   5.814   7.616  0.00  0.00    +0.161 C 
ATOM     15  O   UNL     1       3.650   6.405   6.547  0.00  0.00    -0.367 OA
ENDBRANCH   7  11
ENDBRANCH   1   9
BRANCH   1  19
ATOM     16  C   UNL     1       1.208  -0.679  -0.014  0.00  0.00    +0.000 A 
ATOM     17  C   UNL     1       0.002  -0.004   0.002  0.00  0.00    +0.000 A 
ATOM     18  C   UNL     1      -0.017   1.378   0.010  0.00  0.00    +0.002 A 
ATOM     19  C   UNL     1       1.171   2.086   0.002  0.00  0.00    -0.054 A 
ATOM     20  C   UNL     1       2.377   1.411  -0.014  0.00  0.00    +0.002 A 
ATOM     21  C   UNL     1       2.396   0.029  -0.021  0.00  0.00    +0.000 A 
ENDBRANCH   1  19
BRANCH   1  22
ATOM     22  C   UNL     1       1.377   4.105  -1.389  0.00  0.00    +0.156 C 
ATOM     23  O   UNL     1       2.478   4.496  -1.721  0.00  0.00    -0.293 OA
BRANCH  22  24
ATOM     24  C   UNL     1       0.306   4.131  -2.317  0.00  0.00    +0.041 A 
ATOM     25  C   UNL     1      -0.992   3.724  -2.094  0.00  0.00    +0.095 A 
ATOM     26  N   UNL     1      -1.720   3.901  -3.213  0.00  0.00    -0.360 N 
ATOM     27  H   UNL     1      -2.662   3.686  -3.297  0.00  0.00    +0.165 HD
ATOM     28  C   UNL     1      -0.942   4.428  -4.223  0.00  0.00    +0.047 A 
ATOM     29  C   UNL     1       0.355   4.604  -3.714  0.00  0.00    +0.010 A 
ATOM     30  C   UNL     1       1.361   5.119  -4.526  0.00  0.00    +0.011 A 
ATOM     31  C   UNL     1       1.075   5.468  -5.828  0.00  0.00    +0.001 A 
ATOM     32  C   UNL     1      -0.206   5.301  -6.332  0.00  0.00    +0.002 A 
ATOM     33  C   UNL     1      -1.210   4.787  -5.540  0.00  0.00    +0.026 A 
ENDBRANCH  22  24
ENDBRANCH   1  22
TORSDOF 5
