REMARK  Name = ZINC04454761
REMARK  6 active torsions:
REMARK  status: ('A' for Active; 'I' for Inactive)
REMARK    1  A    between atoms: C_1  and  C_2
REMARK    2  A    between atoms: C_9  and  C_17
REMARK    3  A    between atoms: C_11  and  C_15
REMARK    4  A    between atoms: C_12  and  N_14
REMARK    5  A    between atoms: C_20  and  S_23
REMARK    6  A    between atoms: S_23  and  C_24
REMARK                            x       y       z     vdW  Elec       q    Type
REMARK                         _______ _______ _______ _____ _____    ______ ____
ROOT
ATOM      1  C   UNL     1       2.342   5.508  -0.786  0.00  0.00    +0.086 C 
ATOM      2  C   UNL     1       2.334   4.057  -0.379  0.00  0.00    +0.110 A 
ATOM      3  C   UNL     1       1.166   3.389  -0.377  0.00  0.00    +0.088 A 
ATOM      4  C   UNL     1       1.143   2.028   0.002  0.00  0.00    +0.144 A 
ATOM      5  C   UNL     1       2.333   1.429   0.360  0.00  0.00    +0.092 A 
ATOM      6  C   UNL     1       3.508   2.189   0.334  0.00  0.00    +0.345 A 
ATOM      7  O   UNL     1       4.566   1.671   0.649  0.00  0.00    -0.245 OA
ATOM      8  O   UNL     1       3.488   3.478  -0.032  0.00  0.00    -0.427 OA
ATOM      9  C   UNL     1       2.372  -0.016   0.772  0.00  0.00    +0.105 C 
ATOM     10  C   UNL     1       1.104  -0.708   0.353  0.00  0.00    +0.098 C 
ATOM     11  C   UNL     1       0.002  -0.004   0.002  0.00  0.00    +0.199 C 
ATOM     12  O   UNL     1      -0.016   1.341   0.009  0.00  0.00    -0.441 OA
ENDROOT
BRANCH   9  13
ATOM     13  C   UNL     1       2.518  -0.105   2.270  0.00  0.00    -0.034 A 
ATOM     14  C   UNL     1       1.551   0.447   3.091  0.00  0.00    +0.005 A 
ATOM     15  C   UNL     1       1.679   0.364   4.463  0.00  0.00    +0.015 A 
ATOM     16  C   UNL     1       2.786  -0.267   5.019  0.00  0.00    +0.016 A 
ATOM     17  C   UNL     1       3.757  -0.816   4.191  0.00  0.00    +0.015 A 
ATOM     18  C   UNL     1       3.620  -0.733   2.820  0.00  0.00    +0.005 A 
BRANCH  16  19
ATOM     19  S   UNL     1       2.957  -0.369   6.770  0.00  0.00    -0.016 S 
BRANCH  19  20
ATOM     20  C   UNL     1       1.478   0.468   7.405  0.00  0.00    +0.448 C 
ATOM     21  F   UNL     1       0.334  -0.195   6.947  0.00  0.00    -0.160 F 
ATOM     22  F   UNL     1       1.498   0.452   8.804  0.00  0.00    -0.160 F 
ATOM     23  F   UNL     1       1.462   1.792   6.954  0.00  0.00    -0.160 F 
ENDBRANCH  19  20
ENDBRANCH  16  19
ENDBRANCH   9  13
BRANCH  11  24
ATOM     24  N   UNL     1      -1.130  -0.683  -0.372  0.00  0.00    -0.328 N 
ATOM     25  H   UNL     1      -1.928  -0.193  -0.626  0.00  0.00    +0.145 HD
ATOM     26  H   UNL     1      -1.133  -1.653  -0.383  0.00  0.00    +0.145 HD
ENDBRANCH  11  24
BRANCH  10  27
ATOM     27  C   UNL     1       1.062  -2.139   0.324  0.00  0.00    +0.101 C 
ATOM     28  N   UNL     1       1.028  -3.274   0.301  0.00  0.00    -0.191 NA
ENDBRANCH  10  27
TORSDOF 5
