REMARK  Name = ZINC13427382
REMARK  9 active torsions:
REMARK  status: ('A' for Active; 'I' for Inactive)
REMARK    1  A    between atoms: C_1  and  O_2
REMARK    2  A    between atoms: O_2  and  C_3
REMARK    3  A    between atoms: C_6  and  C_9
REMARK    4  A    between atoms: C_9  and  C_11
REMARK    5  A    between atoms: C_13  and  C_25
REMARK    6  A    between atoms: C_19  and  C_20
REMARK    7  A    between atoms: C_19  and  O_24
REMARK    8  A    between atoms: C_30  and  O_31
REMARK    9  A    between atoms: O_31  and  C_32
REMARK                            x       y       z     vdW  Elec       q    Type
REMARK                         _______ _______ _______ _____ _____    ______ ____
ROOT
ATOM      1  C   UNL     1       4.542  -0.506  -1.470  0.00  0.00    +0.144 C 
ATOM      2  C   UNL     1       3.932  -0.382  -0.070  0.00  0.00    +0.123 C 
ATOM      3  N   UNL     1       3.453  -1.696   0.363  0.00  0.00    -0.292 N 
ATOM      4  C   UNL     1       4.031  -2.826  -0.070  0.00  0.00    +0.302 C 
ATOM      5  O   UNL     1       3.601  -3.892   0.329  0.00  0.00    -0.253 OA
ATOM      6  N   UNL     1       5.064  -2.828  -0.925  0.00  0.00    -0.264 N 
ATOM      7  C   UNL     1       5.635  -1.580  -1.433  0.00  0.00    +0.243 C 
ATOM      8  H   UNL     1       2.703  -1.750   0.976  0.00  0.00    +0.151 HD
ATOM      9  H   UNL     1       5.440  -3.675  -1.214  0.00  0.00    +0.153 HD
ENDROOT
BRANCH   2  10
ATOM     10  C   UNL     1       2.778   0.587  -0.107  0.00  0.00    +0.015 A 
ATOM     11  C   UNL     1       1.480   0.115  -0.164  0.00  0.00    +0.009 A 
ATOM     12  C   UNL     1       0.422   1.003  -0.197  0.00  0.00    +0.001 A 
ATOM     13  C   UNL     1       0.658   2.366  -0.174  0.00  0.00    +0.004 A 
ATOM     14  C   UNL     1       1.953   2.842  -0.118  0.00  0.00    +0.046 A 
ATOM     15  C   UNL     1       3.018   1.953  -0.084  0.00  0.00    +0.125 A 
BRANCH  15  16
ATOM     16  O   UNL     1       4.293   2.419  -0.028  0.00  0.00    -0.495 OA
ATOM     17  C   UNL     1       4.465   3.838  -0.007  0.00  0.00    +0.277 C 
ENDBRANCH  15  16
ENDBRANCH   2  10
BRANCH   7  18
ATOM     18  C   UNL     1       6.180  -1.803  -2.845  0.00  0.00    +0.436 C 
ATOM     19  F   UNL     1       6.596  -0.580  -3.383  0.00  0.00    -0.166 F 
ATOM     20  F   UNL     1       7.267  -2.682  -2.791  0.00  0.00    -0.166 F 
ATOM     21  F   UNL     1       5.177  -2.351  -3.651  0.00  0.00    -0.166 F 
ENDBRANCH   7  18
BRANCH   1  22
ATOM     22  C   UNL     1       3.472  -0.901  -2.455  0.00  0.00    +0.173 C 
ATOM     23  O   UNL     1       2.913  -1.972  -2.346  0.00  0.00    -0.292 OA
BRANCH  22  27
ATOM     24  C   UNL     1       2.417   1.728  -5.604  0.00  0.00    +0.120 A 
ATOM     25  C   UNL     1       1.693   0.557  -5.407  0.00  0.00    +0.046 A 
ATOM     26  C   UNL     1       2.031  -0.298  -4.389  0.00  0.00    +0.015 A 
ATOM     27  C   UNL     1       3.106   0.010  -3.547  0.00  0.00    +0.018 A 
ATOM     28  C   UNL     1       3.829   1.194  -3.746  0.00  0.00    +0.015 A 
ATOM     29  C   UNL     1       3.486   2.038  -4.770  0.00  0.00    +0.046 A 
BRANCH  24  31
ATOM     30  C   UNL     1       2.864   3.755  -6.758  0.00  0.00    +0.277 C 
ATOM     31  O   UNL     1       2.079   2.570  -6.612  0.00  0.00    -0.495 OA
ENDBRANCH  24  31
ENDBRANCH  22  27
ENDBRANCH   1  22
BRANCH   7  32
ATOM     32  O   UNL     1       6.694  -1.153  -0.573  0.00  0.00    -0.364 OA
ATOM     33  H   UNL     1       7.421  -1.786  -0.502  0.00  0.00    +0.212 HD
ENDBRANCH   7  32
TORSDOF 7
