REMARK  Name = ZINC13893447
REMARK  8 active torsions:
REMARK  status: ('A' for Active; 'I' for Inactive)
REMARK    1  A    between atoms: C_1  and  C_2
REMARK    2  A    between atoms: C_2  and  C_28
REMARK    3  A    between atoms: N_3  and  N_4
REMARK    4  A    between atoms: C_5  and  C_7
REMARK    5  A    between atoms: C_7  and  S_8
REMARK    6  A    between atoms: S_8  and  C_9
REMARK    7  A    between atoms: C_12  and  C_21
REMARK    8  A    between atoms: N_13  and  C_14
REMARK                            x       y       z     vdW  Elec       q    Type
REMARK                         _______ _______ _______ _____ _____    ______ ____
ROOT
ATOM      1  C   UNL     1      10.225   4.167  -0.077  0.00  0.00    +0.197 A 
ATOM      2  N   UNL     1      10.791   2.981  -0.090  0.00  0.00    -0.122 NA
ATOM      3  N   UNL     1      12.070   3.102  -0.103  0.00  0.00    -0.128 NA
ATOM      4  C   UNL     1      12.402   4.372  -0.099  0.00  0.00    +0.169 A 
ATOM      5  N   UNL     1      11.229   5.096  -0.088  0.00  0.00    -0.270 N 
ENDROOT
BRANCH   5   6
ATOM      6  C   UNL     1      11.094   6.491  -0.085  0.00  0.00    +0.051 A 
ATOM      7  C   UNL     1      11.525   7.234  -1.177  0.00  0.00    +0.028 A 
ATOM      8  C   UNL     1      11.385   8.608  -1.174  0.00  0.00    +0.022 A 
ATOM      9  C   UNL     1      10.827   9.246  -0.080  0.00  0.00    +0.041 A 
ATOM     10  C   UNL     1      10.402   8.508   1.011  0.00  0.00    +0.022 A 
ATOM     11  C   UNL     1      10.534   7.133   1.011  0.00  0.00    +0.028 A 
ATOM     12 CL   UNL     1      10.660  10.973  -0.076  0.00  0.00    -0.084 Cl
ENDBRANCH   5   6
BRANCH   4  13
ATOM     13  C   UNL     1      13.774   4.923  -0.110  0.00  0.00    +0.020 A 
ATOM     14  C   UNL     1      13.993   6.265   0.202  0.00  0.00    +0.013 A 
ATOM     15  C   UNL     1      15.276   6.772   0.195  0.00  0.00    +0.021 A 
ATOM     16  C   UNL     1      16.344   5.953  -0.131  0.00  0.00    +0.041 A 
ATOM     17  C   UNL     1      16.133   4.622  -0.447  0.00  0.00    +0.021 A 
ATOM     18  C   UNL     1      14.855   4.103  -0.439  0.00  0.00    +0.013 A 
ATOM     19 CL   UNL     1      17.955   6.600  -0.145  0.00  0.00    -0.084 Cl
ENDBRANCH   4  13
BRANCH   1  20
ATOM     20  S   UNL     1       8.494   4.499  -0.058  0.00  0.00    -0.076 S 
BRANCH  20  21
ATOM     21  C   UNL     1       7.850   2.808  -0.061  0.00  0.00    +0.174 C 
BRANCH  21  23
ATOM     22  N   UNL     1       5.641   1.694  -0.044  0.00  0.00    -0.206 N 
ATOM     23  C   UNL     1       6.343   2.844  -0.045  0.00  0.00    +0.242 C 
ATOM     24  O   UNL     1       5.762   3.909  -0.034  0.00  0.00    -0.273 OA
ATOM     25  H   UNL     1       6.106   0.842  -0.054  0.00  0.00    +0.177 HD
BRANCH  22  28
ATOM     26  C   UNL     1       4.285  -0.706  -0.044  0.00  0.00    +0.071 C 
ATOM     27  C   UNL     1       3.563   0.617  -0.029  0.00  0.00    +0.098 C 
ATOM     28  N   UNL     1       4.241   1.728  -0.030  0.00  0.00    -0.181 NA
BRANCH  27  29
ATOM     29  C   UNL     1       2.098   0.653  -0.015  0.00  0.00    +0.150 A 
ATOM     30  C   UNL     1       1.323   1.776  -0.001  0.00  0.00    +0.051 A 
ATOM     31  C   UNL     1      -0.016   1.345   0.009  0.00  0.00    +0.042 A 
ATOM     32  C   UNL     1       0.002  -0.004   0.002  0.00  0.00    +0.196 A 
ATOM     33  O   UNL     1       1.279  -0.418  -0.012  0.00  0.00    -0.462 OA
ENDBRANCH  27  29
ENDBRANCH  22  28
ENDBRANCH  21  23
ENDBRANCH  20  21
ENDBRANCH   1  20
TORSDOF 7
