REMARK  Name = ZINC09704116
REMARK  11 active torsions:
REMARK  status: ('A' for Active; 'I' for Inactive)
REMARK    1  A    between atoms: C_1  and  C_2
REMARK    2  A    between atoms: C_5  and  S_27
REMARK    3  A    between atoms: C_7  and  C_8
REMARK    4  A    between atoms: C_8  and  O_10
REMARK    5  A    between atoms: O_10  and  C_11
REMARK    6  A    between atoms: C_11  and  C_12
REMARK    7  A    between atoms: N_17  and  C_18
REMARK    8  A    between atoms: C_24  and  C_26
REMARK    9  A    between atoms: S_27  and  N_30
REMARK   10  A    between atoms: N_30  and  C_31
REMARK   11  A    between atoms: C_31  and  C_32
REMARK                            x       y       z     vdW  Elec       q    Type
REMARK                         _______ _______ _______ _____ _____    ______ ____
ROOT
ATOM      1  C   UNL     1       2.506  -2.724   0.468  0.00  0.00    +0.340 C 
ATOM      2  O   UNL     1       2.576  -3.933   0.369  0.00  0.00    -0.245 OA
ENDROOT
BRANCH   1   9
ATOM      3  C   UNL     1       0.113  -4.284   0.009  0.00  0.00    +0.044 C 
ATOM      4  C   UNL     1       0.060  -2.778  -0.001  0.00  0.00    -0.036 A 
ATOM      5  C   UNL     1      -1.135  -2.129  -0.230  0.00  0.00    +0.006 A 
ATOM      6  C   UNL     1      -1.185  -0.746  -0.239  0.00  0.00    +0.029 A 
ATOM      7  C   UNL     1      -0.037  -0.005  -0.019  0.00  0.00    +0.106 A 
ATOM      8  C   UNL     1       1.166  -0.641   0.206  0.00  0.00    +0.043 A 
ATOM      9  C   UNL     1       1.222  -2.036   0.222  0.00  0.00    +0.064 A 
BRANCH   7  10
ATOM     10  S   UNL     1      -0.111   1.756  -0.034  0.00  0.00    +0.059 S 
ATOM     11  O   UNL     1       1.197   2.215  -0.344  0.00  0.00    -0.153 OA
ATOM     12  O   UNL     1      -1.246   2.107  -0.813  0.00  0.00    -0.153 OA
BRANCH  10  13
ATOM     13  N   UNL     1      -0.430   2.245   1.516  0.00  0.00    -0.183 NA
ATOM     14  H   UNL     1      -1.265   2.695   1.720  0.00  0.00    +0.148 HD
BRANCH  13  15
ATOM     15  C   UNL     1       0.549   1.999   2.578  0.00  0.00    +0.180 C 
BRANCH  15  16
ATOM     16  C   UNL     1       0.207   2.841   3.780  0.00  0.00    +0.120 A 
ATOM     17  C   UNL     1      -0.595   2.474   4.796  0.00  0.00    +0.046 A 
ATOM     18  C   UNL     1      -0.635   3.561   5.699  0.00  0.00    +0.041 A 
ATOM     19  C   UNL     1       0.144   4.527   5.182  0.00  0.00    +0.195 A 
ATOM     20  O   UNL     1       0.656   4.084   4.022  0.00  0.00    -0.466 OA
ENDBRANCH  15  16
ENDBRANCH  13  15
ENDBRANCH  10  13
ENDBRANCH   7  10
ENDBRANCH   1   9
BRANCH   1  21
ATOM     21  O   UNL     1       3.599  -2.011   0.802  0.00  0.00    -0.452 OA
BRANCH  21  22
ATOM     22  C   UNL     1       4.826  -2.754   1.029  0.00  0.00    +0.328 C 
BRANCH  22  23
ATOM     23  C   UNL     1       5.933  -1.797   1.389  0.00  0.00    +0.258 C 
ATOM     24  O   UNL     1       5.710  -0.607   1.449  0.00  0.00    -0.272 OA
ATOM     25  N   UNL     1       7.171  -2.264   1.645  0.00  0.00    -0.237 N 
ATOM     26  C   UNL     1       8.161  -1.408   1.967  0.00  0.00    +0.306 C 
ATOM     27  O   UNL     1       7.937  -0.214   2.027  0.00  0.00    -0.252 OA
ATOM     28  N   UNL     1       9.399  -1.875   2.223  0.00  0.00    -0.296 N 
ATOM     29  H   UNL     1       7.350  -3.216   1.597  0.00  0.00    +0.159 HD
ATOM     30  H   UNL     1       9.578  -2.827   2.175  0.00  0.00    +0.151 HD
BRANCH  28  31
ATOM     31  C   UNL     1      10.475  -0.944   2.573  0.00  0.00    +0.077 C 
ATOM     32  C   UNL     1      11.107  -0.391   1.295  0.00  0.00    +0.022 C 
ATOM     33  C   UNL     1      11.679  -1.544   0.468  0.00  0.00    +0.002 C 
ATOM     34  C   UNL     1      12.743  -2.279   1.286  0.00  0.00    +0.000 C 
ATOM     35  C   UNL     1      12.111  -2.832   2.565  0.00  0.00    +0.005 C 
ATOM     36  C   UNL     1      11.539  -1.679   3.391  0.00  0.00    +0.006 C 
ATOM     37  C   UNL     1      10.907  -2.233   4.670  0.00  0.00    +0.009 C 
ENDBRANCH  28  31
ENDBRANCH  22  23
ENDBRANCH  21  22
ENDBRANCH   1  21
TORSDOF 9
