REMARK  Name = ZINC11854677
REMARK  9 active torsions:
REMARK  status: ('A' for Active; 'I' for Inactive)
REMARK    1  A    between atoms: C_1  and  C_2
REMARK    2  A    between atoms: C_2  and  C_3
REMARK    3  A    between atoms: C_12  and  N_21
REMARK    4  A    between atoms: C_14  and  C_16
REMARK    5  A    between atoms: C_22  and  C_24
REMARK    6  A    between atoms: C_24  and  O_25
REMARK    7  A    between atoms: O_25  and  C_26
REMARK    8  A    between atoms: C_33  and  C_35
REMARK    9  A    between atoms: C_33  and  C_36
REMARK                            x       y       z     vdW  Elec       q    Type
REMARK                         _______ _______ _______ _____ _____    ______ ____
ROOT
ATOM      1  C   UNL     1       2.503  -0.655  -4.454  0.00  0.00    +0.050 A 
ATOM      2  C   UNL     1       3.024  -1.522  -5.370  0.00  0.00    +0.093 A 
ATOM      3  C   UNL     1       2.909  -2.905  -5.138  0.00  0.00    +0.253 A 
ATOM      4  O   UNL     1       3.363  -3.709  -5.935  0.00  0.00    -0.268 OA
ATOM      5  N   UNL     1       2.291  -3.325  -4.013  0.00  0.00    -0.291 N 
ATOM      6  H   UNL     1       2.204  -4.273  -3.830  0.00  0.00    +0.172 HD
ATOM      7  C   UNL     1       1.787  -2.413  -3.139  0.00  0.00    +0.234 A 
ATOM      8  N   UNL     1       1.899  -1.121  -3.362  0.00  0.00    -0.217 NA
ATOM      9  N   UNL     1       1.152  -2.851  -1.993  0.00  0.00    -0.185 N 
ATOM     10  C   UNL     1       0.604  -2.058  -1.026  0.00  0.00    +0.132 A 
ATOM     11  C   UNL     1       0.076  -2.871  -0.076  0.00  0.00    +0.074 A 
ATOM     12  C   UNL     1       0.312  -4.205  -0.471  0.00  0.00    +0.102 A 
ATOM     13  N   UNL     1       0.960  -4.186  -1.618  0.00  0.00    -0.162 NA
ENDROOT
BRANCH  12  14
ATOM     14  C   UNL     1      -0.097  -5.414   0.275  0.00  0.00    +0.039 A 
ATOM     15  C   UNL     1       0.096  -6.731  -0.045  0.00  0.00    +0.018 A 
ATOM     16  C   UNL     1      -0.379  -7.698   0.814  0.00  0.00    +0.008 A 
ATOM     17  C   UNL     1      -1.022  -7.317   1.947  0.00  0.00    +0.046 A 
ATOM     18  S   UNL     1      -0.966  -5.537   1.830  0.00  0.00    -0.095 S 
ENDBRANCH  12  14
BRANCH  10  19
ATOM     19  N   UNL     1       0.585  -0.664  -1.018  0.00  0.00    -0.267 N 
ATOM     20  C   UNL     1       0.002  -0.004   0.002  0.00  0.00    +0.256 C 
ATOM     21  O   UNL     1      -0.506  -0.623   0.913  0.00  0.00    -0.272 OA
ATOM     22  H   UNL     1       0.992  -0.170  -1.747  0.00  0.00    +0.156 HD
BRANCH  20  23
ATOM     23  C   UNL     1      -0.018   1.503   0.010  0.00  0.00    +0.325 C 
BRANCH  23  24
ATOM     24  O   UNL     1      -0.687   1.964   1.186  0.00  0.00    -0.479 OA
BRANCH  24  25
ATOM     25  C   UNL     1      -0.793   3.310   1.349  0.00  0.00    +0.163 A 
ATOM     26  C   UNL     1      -0.265   4.164   0.397  0.00  0.00    +0.049 A 
ATOM     27  C   UNL     1      -0.367   5.533   0.555  0.00  0.00    +0.004 A 
ATOM     28  C   UNL     1      -0.998   6.051   1.672  0.00  0.00    +0.007 A 
ATOM     29  C   UNL     1      -1.524   5.204   2.623  0.00  0.00    +0.002 A 
ATOM     30  C   UNL     1      -1.440   3.827   2.473  0.00  0.00    +0.166 A 
ATOM     31  O   UNL     1      -2.038   3.180   3.512  0.00  0.00    -0.482 OA
ATOM     32  C   UNL     1      -2.168   4.084   4.622  0.00  0.00    +0.109 C 
ATOM     33  C   UNL     1      -2.247   5.465   3.930  0.00  0.00    +0.086 C 
ATOM     34  C   UNL     1      -0.942   4.004   5.534  0.00  0.00    +0.056 C 
ATOM     35  C   UNL     1      -3.450   3.797   5.408  0.00  0.00    +0.056 C 
ENDBRANCH  24  25
ENDBRANCH  23  24
ENDBRANCH  20  23
ENDBRANCH  10  19
BRANCH   1  37
ATOM     36  C   UNL     1       1.333   1.342  -5.345  0.00  0.00    +0.010 C 
ATOM     37  C   UNL     1       2.612   0.831  -4.677  0.00  0.00    +0.052 C 
ENDBRANCH   1  37
TORSDOF 6
