REMARK  Name = ZINC36346203
REMARK  16 active torsions:
REMARK  status: ('A' for Active; 'I' for Inactive)
REMARK    1  A    between atoms: C_1  and  C_2
REMARK    2  A    between atoms: C_5  and  O_8
REMARK    3  A    between atoms: O_8  and  C_9
REMARK    4  A    between atoms: C_10  and  C_21
REMARK    5  A    between atoms: C_11  and  C_20
REMARK    6  A    between atoms: N_13  and  C_14
REMARK    7  A    between atoms: C_21  and  N_22
REMARK    8  A    between atoms: N_22  and  C_23
REMARK    9  A    between atoms: N_22  and  C_30
REMARK   10  A    between atoms: C_23  and  C_24
REMARK   11  A    between atoms: C_30  and  C_31
REMARK   12  A    between atoms: C_31  and  C_33
REMARK   13  A    between atoms: C_31  and  O_38
REMARK   14  A    between atoms: C_33  and  O_34
REMARK   15  A    between atoms: O_34  and  C_35
REMARK   16  A    between atoms: C_35  and  C_36
REMARK                            x       y       z     vdW  Elec       q    Type
REMARK                         _______ _______ _______ _____ _____    ______ ____
ROOT
ATOM      1  C   UNL     1       0.627  -4.801   1.470  0.00  0.00    +0.225 A 
ATOM      2  C   UNL     1       0.318  -6.120   1.589  0.00  0.00    +0.021 A 
ATOM      3  C   UNL     1       0.204  -6.413   2.951  0.00  0.00    +0.065 A 
ATOM      4  N   UNL     1       0.434  -5.319   3.631  0.00  0.00    -0.168 NA
ATOM      5  N   UNL     1       0.710  -4.286   2.726  0.00  0.00    -0.200 N 
ATOM      6  C   UNL     1      -0.129  -7.761   3.537  0.00  0.00    +0.068 C 
ENDROOT
BRANCH   5   7
ATOM      7  C   UNL     1       1.014  -2.958   3.056  0.00  0.00    +0.069 A 
ATOM      8  C   UNL     1       1.955  -2.255   2.316  0.00  0.00    +0.028 A 
ATOM      9  C   UNL     1       2.252  -0.947   2.644  0.00  0.00    +0.002 A 
ATOM     10  C   UNL     1       1.614  -0.337   3.708  0.00  0.00    +0.000 A 
ATOM     11  C   UNL     1       0.676  -1.035   4.447  0.00  0.00    +0.002 A 
ATOM     12  C   UNL     1       0.371  -2.341   4.121  0.00  0.00    +0.028 A 
ENDBRANCH   5   7
BRANCH   1  13
ATOM     13  O   UNL     1       0.824  -4.123   0.310  0.00  0.00    -0.438 OA
BRANCH  13  18
ATOM     14  C   UNL     1      -3.517  -1.251  -1.841  0.00  0.00    +0.044 C 
ATOM     15  C   UNL     1      -2.356  -2.019  -1.265  0.00  0.00    -0.050 A 
ATOM     16  C   UNL     1      -1.109  -1.932  -1.857  0.00  0.00    +0.007 A 
ATOM     17  C   UNL     1      -0.043  -2.636  -1.332  0.00  0.00    +0.046 A 
ATOM     18  C   UNL     1      -0.224  -3.430  -0.208  0.00  0.00    +0.130 A 
ATOM     19  C   UNL     1      -1.476  -3.516   0.384  0.00  0.00    +0.046 A 
ATOM     20  C   UNL     1      -2.537  -2.806  -0.142  0.00  0.00    +0.007 A 
ENDBRANCH  13  18
ENDBRANCH   1  13
BRANCH   2  21
ATOM     21  C   UNL     1       0.131  -7.092   0.453  0.00  0.00    -0.036 C 
BRANCH  21  22
ATOM     22  N   UNL     1       1.441  -7.590   0.013  0.00  0.00    +0.386 N 
ATOM     23  H   UNL     1       2.049  -6.809  -0.183  0.00  0.00    -0.081 HD
BRANCH  22  24
ATOM     24  C   UNL     1       2.032  -8.415   1.075  0.00  0.00    -0.046 C 
BRANCH  24  25
ATOM     25  C   UNL     1       1.190  -9.677   1.270  0.00  0.00    +0.102 C 
ATOM     26  C   UNL     1       1.685 -10.453   2.509  0.00  0.00    +0.032 C 
ATOM     27  C   UNL     1       1.575 -11.929   2.040  0.00  0.00    +0.030 C 
ATOM     28  C   UNL     1       1.920 -11.787   0.536  0.00  0.00    +0.160 C 
ATOM     29  O   UNL     1       1.333 -10.537   0.133  0.00  0.00    -0.378 OA
ENDBRANCH  24  25
ENDBRANCH  22  24
BRANCH  22  30
ATOM     30  C   UNL     1       1.275  -8.400  -1.201  0.00  0.00    -0.044 C 
BRANCH  30  31
ATOM     31  C   UNL     1       2.642  -8.898  -1.672  0.00  0.00    +0.124 C 
BRANCH  31  32
ATOM     32  O   UNL     1       3.491  -7.780  -1.939  0.00  0.00    -0.391 OA
ATOM     33  H   UNL     1       3.153  -7.184  -2.622  0.00  0.00    +0.210 HD
ENDBRANCH  31  32
BRANCH  31  34
ATOM     34  C   UNL     1       2.472  -9.725  -2.948  0.00  0.00    +0.189 C 
BRANCH  34  35
ATOM     35  O   UNL     1       3.731 -10.287  -3.324  0.00  0.00    -0.373 OA
BRANCH  35  36
ATOM     36  C   UNL     1       3.682 -11.082  -4.510  0.00  0.00    +0.186 C 
BRANCH  36  37
ATOM     37  C   UNL     1       5.056 -11.621  -4.811  0.00  0.00    -0.007 C 
ATOM     38  C   UNL     1       5.208 -12.878  -5.149  0.00  0.00    +0.006 C 
ENDBRANCH  36  37
ENDBRANCH  35  36
ENDBRANCH  34  35
ENDBRANCH  31  34
ENDBRANCH  30  31
ENDBRANCH  22  30
ENDBRANCH  21  22
ENDBRANCH   2  21
TORSDOF 14
