REMARK  Name = ZINC09448906
REMARK  9 active torsions:
REMARK  status: ('A' for Active; 'I' for Inactive)
REMARK    1  A    between atoms: C_1  and  C_2
REMARK    2  A    between atoms: C_5  and  N_9
REMARK    3  A    between atoms: C_6  and  C_8
REMARK    4  A    between atoms: C_10  and  C_12
REMARK    5  A    between atoms: C_12  and  S_13
REMARK    6  A    between atoms: S_13  and  C_14
REMARK    7  A    between atoms: C_17  and  C_20
REMARK    8  A    between atoms: N_18  and  N_19
REMARK    9  A    between atoms: C_22  and  C_26
REMARK                            x       y       z     vdW  Elec       q    Type
REMARK                         _______ _______ _______ _____ _____    ______ ____
ROOT
ATOM      1  C   UNL     1      -0.324  -8.700  -2.775  0.00  0.00    +0.209 A 
ATOM      2  N   UNL     1      -0.403  -9.323  -1.621  0.00  0.00    -0.120 NA
ATOM      3  N   UNL     1      -0.504 -10.590  -1.808  0.00  0.00    -0.125 NA
ATOM      4  C   UNL     1      -0.496 -10.855  -3.095  0.00  0.00    +0.199 A 
ATOM      5  N   UNL     1      -0.385  -9.651  -3.754  0.00  0.00    -0.223 N 
ENDROOT
BRANCH   4   6
ATOM      6  C   UNL     1      -0.592 -12.188  -3.715  0.00  0.00    +0.105 A 
ATOM      7  C   UNL     1      -1.010 -13.337  -3.103  0.00  0.00    +0.061 A 
ATOM      8  C   UNL     1      -0.949 -14.373  -4.049  0.00  0.00    +0.093 A 
ATOM      9  N   UNL     1      -0.512 -13.872  -5.186  0.00  0.00    -0.173 NA
ATOM     10  N   UNL     1      -0.285 -12.501  -5.009  0.00  0.00    -0.273 N 
ATOM     11  H   UNL     1       0.035 -11.884  -5.685  0.00  0.00    +0.189 HD
BRANCH   8  12
ATOM     12  C   UNL     1      -1.314 -15.791  -3.808  0.00  0.00    +0.002 A 
ATOM     13  C   UNL     1      -1.770 -16.192  -2.554  0.00  0.00    +0.013 A 
ATOM     14  C   UNL     1      -2.109 -17.512  -2.335  0.00  0.00    +0.039 A 
ATOM     15  C   UNL     1      -1.996 -18.438  -3.360  0.00  0.00    +0.123 A 
ATOM     16  C   UNL     1      -1.543 -18.043  -4.608  0.00  0.00    +0.039 A 
ATOM     17  C   UNL     1      -1.208 -16.724  -4.838  0.00  0.00    +0.013 A 
ATOM     18  F   UNL     1      -2.328 -19.729  -3.141  0.00  0.00    -0.205 F 
ENDBRANCH   8  12
ENDBRANCH   4   6
BRANCH   5  19
ATOM     19  N   UNL     1      -0.343  -9.450  -5.104  0.00  0.00    -0.295 N 
ATOM     20  H   UNL     1       0.610  -9.402  -5.433  0.00  0.00    +0.163 HD
ATOM     21  H   UNL     1      -0.858 -10.167  -5.593  0.00  0.00    +0.163 HD
ENDBRANCH   5  19
BRANCH   1  22
ATOM     22  S   UNL     1      -0.175  -6.961  -3.017  0.00  0.00    -0.075 S 
BRANCH  22  23
ATOM     23  C   UNL     1      -0.150  -6.285  -1.334  0.00  0.00    +0.173 C 
BRANCH  23  25
ATOM     24  N   UNL     1       0.015  -4.063  -0.259  0.00  0.00    -0.285 N 
ATOM     25  C   UNL     1      -0.024  -4.785  -1.397  0.00  0.00    +0.227 C 
ATOM     26  O   UNL     1       0.043  -4.226  -2.471  0.00  0.00    -0.275 OA
ATOM     27  H   UNL     1       0.031  -4.513   0.600  0.00  0.00    +0.155 HD
BRANCH  24  32
ATOM     28  C   UNL     1       0.088   1.605  -0.496  0.00  0.00    +0.044 C 
ATOM     29  C   UNL     1       0.069   0.099  -0.433  0.00  0.00    -0.050 A 
ATOM     30  C   UNL     1       0.700  -0.641  -1.416  0.00  0.00    +0.005 A 
ATOM     31  C   UNL     1       0.684  -2.021  -1.361  0.00  0.00    +0.024 A 
ATOM     32  C   UNL     1       0.034  -2.665  -0.317  0.00  0.00    +0.036 A 
ATOM     33  C   UNL     1      -0.599  -1.919   0.668  0.00  0.00    -0.029 A 
ATOM     34  C   UNL     1      -0.576  -0.539   0.610  0.00  0.00    +0.008 A 
ATOM     35  C   UNL     1      -1.306  -2.615   1.803  0.00  0.00    +0.045 C 
ENDBRANCH  24  32
ENDBRANCH  23  25
ENDBRANCH  22  23
ENDBRANCH   1  22
TORSDOF 7
