REMARK  Name = ZINC25182340
REMARK  9 active torsions:
REMARK  status: ('A' for Active; 'I' for Inactive)
REMARK    1  A    between atoms: C_3  and  C_26
REMARK    2  A    between atoms: C_6  and  C_7
REMARK    3  A    between atoms: C_7  and  N_8
REMARK    4  A    between atoms: N_8  and  C_9
REMARK    5  A    between atoms: N_8  and  C_23
REMARK    6  A    between atoms: C_9  and  C_10
REMARK    7  A    between atoms: N_12  and  C_13
REMARK    8  A    between atoms: C_16  and  N_20
REMARK    9  A    between atoms: N_28  and  C_29
REMARK                            x       y       z     vdW  Elec       q    Type
REMARK                         _______ _______ _______ _____ _____    ______ ____
ROOT
ATOM      1  N   UNL     1      -0.158   1.334   0.075  0.00  0.00    +0.390 N 
ATOM      2  H   UNL     1      -0.582   1.660   1.036  0.00  0.00    -0.080 HD
ENDROOT
BRANCH   1   3
ATOM      3  C   UNL     1      -1.064   1.781  -0.992  0.00  0.00    -0.068 C 
ATOM      4  C   UNL     1      -0.447   2.526  -2.177  0.00  0.00    -0.017 C 
ATOM      5  C   UNL     1      -1.284   3.287  -1.147  0.00  0.00    -0.017 C 
ENDBRANCH   1   3
BRANCH   1   6
ATOM      6  C   UNL     1      -0.056  -0.131   0.100  0.00  0.00    -0.042 C 
BRANCH   6  12
ATOM      7  C   UNL     1      -1.674  -0.954   1.822  0.00  0.00    +0.002 A 
ATOM      8  C   UNL     1      -2.892  -1.489   2.186  0.00  0.00    +0.013 A 
ATOM      9  C   UNL     1      -3.833  -1.805   1.204  0.00  0.00    +0.037 A 
ATOM     10  C   UNL     1      -3.536  -1.572  -0.139  0.00  0.00    +0.013 A 
ATOM     11  C   UNL     1      -2.315  -1.032  -0.489  0.00  0.00    +0.002 A 
ATOM     12  C   UNL     1      -1.387  -0.721   0.489  0.00  0.00    -0.064 A 
BRANCH   9  13
ATOM     13  C   UNL     1      -5.139  -2.383   1.586  0.00  0.00    +0.244 C 
ATOM     14  O   UNL     1      -5.957  -2.657   0.729  0.00  0.00    -0.270 OA
ATOM     15  N   UNL     1      -5.423  -2.607   2.885  0.00  0.00    -0.308 N 
ATOM     16  H   UNL     1      -4.683  -2.359   3.660  0.00  0.00    +0.149 HD
BRANCH  15  17
ATOM     17  C   UNL     1      -6.717  -3.180   3.263  0.00  0.00    +0.073 C 
ATOM     18  C   UNL     1      -7.440  -2.561   4.461  0.00  0.00    +0.024 C 
ATOM     19  C   UNL     1      -6.792  -3.942   4.588  0.00  0.00    +0.024 C 
ENDBRANCH  15  17
ENDBRANCH   9  13
ENDBRANCH   6  12
ENDBRANCH   1   6
BRANCH   1  20
ATOM     20  C   UNL     1       1.167   1.952  -0.067  0.00  0.00    +0.020 C 
BRANCH  20  21
ATOM     21  C   UNL     1       1.901   1.872   1.247  0.00  0.00    +0.201 C 
ATOM     22  O   UNL     1       1.409   1.277   2.182  0.00  0.00    -0.278 OA
ATOM     23  N   UNL     1       3.105   2.463   1.383  0.00  0.00    -0.286 N 
ATOM     24  H   UNL     1       3.584   2.942   0.516  0.00  0.00    +0.155 HD
BRANCH  23  25
ATOM     25  C   UNL     1       3.746   2.466   2.627  0.00  0.00    +0.052 A 
ATOM     26  C   UNL     1       3.612   1.380   3.482  0.00  0.00    +0.027 A 
ATOM     27  C   UNL     1       4.246   1.387   4.709  0.00  0.00    +0.034 A 
ATOM     28  C   UNL     1       5.014   2.473   5.088  0.00  0.00    +0.128 A 
ATOM     29  C   UNL     1       5.150   3.557   4.239  0.00  0.00    +0.054 A 
ATOM     30  C   UNL     1       4.523   3.554   3.007  0.00  0.00    +0.064 A 
ATOM     31 CL   UNL     1       4.699   4.912   1.940  0.00  0.00    -0.082 Cl
BRANCH  28  32
ATOM     32  N   UNL     1       5.692   2.476   6.403  0.00  0.00    +0.056 N 
ATOM     33  O   UNL     1       5.574   1.522   7.152  0.00  0.00    -0.126 OA
ATOM     34  O   UNL     1       6.368   3.432   6.738  0.00  0.00    -0.126 OA
ENDBRANCH  28  32
ENDBRANCH  23  25
ENDBRANCH  20  21
ENDBRANCH   1  20
TORSDOF 9
