REMARK  Name = ZINC08454501
REMARK  10 active torsions:
REMARK  status: ('A' for Active; 'I' for Inactive)
REMARK    1  A    between atoms: C_1  and  C_2
REMARK    2  A    between atoms: C_2  and  C_3
REMARK    3  A    between atoms: C_10  and  N_17
REMARK    4  A    between atoms: C_11  and  C_12
REMARK    5  A    between atoms: C_12  and  O_14
REMARK    6  A    between atoms: O_14  and  C_15
REMARK    7  A    between atoms: C_15  and  C_16
REMARK    8  A    between atoms: C_18  and  C_20
REMARK    9  A    between atoms: C_21  and  N_35
REMARK   10  A    between atoms: N_23  and  C_25
REMARK                            x       y       z     vdW  Elec       q    Type
REMARK                         _______ _______ _______ _____ _____    ______ ____
ROOT
ATOM      1  N   UNL     1      -1.071  -0.879   0.008  0.00  0.00    -0.274 N 
ATOM      2  C   UNL     1      -2.331  -0.401   0.023  0.00  0.00    +0.271 C 
ATOM      3  O   UNL     1      -2.525   0.799   0.031  0.00  0.00    -0.268 OA
ATOM      4  H   UNL     1      -0.916  -1.837   0.002  0.00  0.00    +0.156 HD
ENDROOT
BRANCH   1  11
ATOM      5  C   UNL     1       3.891   3.129  -0.398  0.00  0.00    -0.006 C 
ATOM      6  C   UNL     1       4.445   1.964   0.428  0.00  0.00    +0.008 C 
ATOM      7  C   UNL     1       3.806   0.652  -0.030  0.00  0.00    +0.037 C 
ATOM      8  C   UNL     1       2.290   0.814  -0.015  0.00  0.00    -0.021 A 
ATOM      9  C   UNL     1       1.722   2.038  -0.003  0.00  0.00    -0.004 A 
ATOM     10  S   UNL     1      -0.021   1.728   0.011  0.00  0.00    -0.077 S 
ATOM     11  C   UNL     1       0.002  -0.004   0.002  0.00  0.00    +0.087 A 
ATOM     12  C   UNL     1       1.359  -0.302  -0.012  0.00  0.00    +0.091 A 
ATOM     13  C   UNL     1       2.424   3.361  -0.004  0.00  0.00    +0.046 C 
BRANCH   5  15
ATOM     14  C   UNL     1       4.232   5.522  -1.030  0.00  0.00    +0.004 C 
ATOM     15  C   UNL     1       4.706   4.392  -0.114  0.00  0.00    +0.000 C 
ENDBRANCH   5  15
BRANCH  12  16
ATOM     16  C   UNL     1       1.832  -1.687  -0.025  0.00  0.00    +0.342 C 
ATOM     17  O   UNL     1       2.019  -2.257  -1.083  0.00  0.00    -0.245 OA
BRANCH  16  18
ATOM     18  O   UNL     1       2.062  -2.332   1.137  0.00  0.00    -0.461 OA
BRANCH  18  19
ATOM     19  C   UNL     1       2.530  -3.704   1.049  0.00  0.00    +0.229 C 
ATOM     20  C   UNL     1       2.733  -4.265   2.458  0.00  0.00    +0.048 C 
ENDBRANCH  18  19
ENDBRANCH  16  18
ENDBRANCH  12  16
ENDBRANCH   1  11
BRANCH   2  21
ATOM     21  C   UNL     1      -3.475  -1.334   0.029  0.00  0.00    +0.177 A 
ATOM     22  C   UNL     1      -4.847  -0.985   0.050  0.00  0.00    +0.176 A 
ATOM     23  C   UNL     1      -5.519  -2.160   0.045  0.00  0.00    +0.142 A 
ATOM     24  N   UNL     1      -4.598  -3.148   0.032  0.00  0.00    -0.262 N 
ATOM     25  N   UNL     1      -3.414  -2.651   0.023  0.00  0.00    -0.164 NA
BRANCH  24  26
ATOM     26  C   UNL     1      -4.906  -4.580   0.028  0.00  0.00    +0.064 C 
ATOM     27  C   UNL     1      -6.020  -4.859  -0.983  0.00  0.00    +0.033 C 
ATOM     28  C   UNL     1      -6.342  -6.355  -0.987  0.00  0.00    -0.008 C 
ATOM     29  C   UNL     1      -5.090  -7.145  -1.376  0.00  0.00    +0.007 C 
ATOM     30  C   UNL     1      -3.977  -6.865  -0.365  0.00  0.00    -0.008 C 
ATOM     31  C   UNL     1      -3.655  -5.370  -0.361  0.00  0.00    +0.033 C 
ATOM     32  C   UNL     1      -4.436  -7.292   1.031  0.00  0.00    +0.007 C 
ATOM     33  C   UNL     1      -5.688  -6.502   1.419  0.00  0.00    -0.008 C 
ATOM     34  C   UNL     1      -6.801  -6.782   0.408  0.00  0.00    +0.007 C 
ATOM     35  C   UNL     1      -5.366  -5.006   1.423  0.00  0.00    +0.033 C 
ENDBRANCH  24  26
BRANCH  22  36
ATOM     36  N   UNL     1      -5.424   0.378   0.071  0.00  0.00    +0.060 N 
ATOM     37  O   UNL     1      -6.633   0.527   0.088  0.00  0.00    -0.126 OA
ATOM     38  O   UNL     1      -4.691   1.350   0.070  0.00  0.00    -0.126 OA
ENDBRANCH  22  36
ENDBRANCH   2  21
TORSDOF 8
