REMARK  Name = ZINC60242072
REMARK  6 active torsions:
REMARK  status: ('A' for Active; 'I' for Inactive)
REMARK    1  A    between atoms: C_1  and  C_2
REMARK    2  A    between atoms: C_7  and  N_12
REMARK    3  A    between atoms: C_9  and  C_11
REMARK    4  A    between atoms: C_13  and  C_15
REMARK    5  A    between atoms: C_15  and  N_16
REMARK    6  A    between atoms: C_24  and  C_26
REMARK                            x       y       z     vdW  Elec       q    Type
REMARK                         _______ _______ _______ _____ _____    ______ ____
ROOT
ATOM      1  N   UNL     1       0.936  -4.992   4.348  0.00  0.00    -0.309 N 
ATOM      2  C   UNL     1       1.874  -5.814   3.722  0.00  0.00    +0.034 A 
ATOM      3  C   UNL     1       2.776  -5.510   2.700  0.00  0.00    +0.023 A 
ATOM      4  C   UNL     1       3.630  -6.478   2.215  0.00  0.00    +0.002 A 
ATOM      5  C   UNL     1       3.599  -7.758   2.737  0.00  0.00    +0.000 A 
ATOM      6  C   UNL     1       2.709  -8.067   3.749  0.00  0.00    +0.005 A 
ATOM      7  C   UNL     1       1.852  -7.101   4.238  0.00  0.00    -0.024 A 
ATOM      8  C   UNL     1       0.798  -7.166   5.321  0.00  0.00    +0.069 C 
ATOM      9  C   UNL     1       0.211  -5.746   5.374  0.00  0.00    +0.164 C 
ENDROOT
BRANCH   9  10
ATOM     10  C   UNL     1       0.439  -5.133   6.732  0.00  0.00    +0.231 C 
ATOM     11  O   UNL     1       1.453  -4.504   6.951  0.00  0.00    -0.274 OA
ATOM     12  N   UNL     1      -0.483  -5.285   7.703  0.00  0.00    -0.328 N 
ATOM     13  H   UNL     1      -1.293  -5.788   7.528  0.00  0.00    +0.145 HD
ATOM     14  H   UNL     1      -0.336  -4.890   8.577  0.00  0.00    +0.145 HD
ENDBRANCH   9  10
BRANCH   1  15
ATOM     15  C   UNL     1       0.713  -3.579   4.030  0.00  0.00    +0.201 C 
BRANCH  15  17
ATOM     16  N   UNL     1      -0.846  -2.246   2.648  0.00  0.00    -0.311 N 
ATOM     17  C   UNL     1      -0.395  -3.462   3.015  0.00  0.00    +0.231 C 
ATOM     18  O   UNL     1      -0.881  -4.461   2.530  0.00  0.00    -0.274 OA
ATOM     19  H   UNL     1      -0.457  -1.447   3.036  0.00  0.00    +0.149 HD
BRANCH  16  25
ATOM     20  C   UNL     1      -4.524   0.638   1.036  0.00  0.00    +0.008 C 
ATOM     21  C   UNL     1      -3.786  -0.687   0.834  0.00  0.00    -0.009 C 
ATOM     22  C   UNL     1      -3.194  -0.732  -0.576  0.00  0.00    +0.003 C 
ATOM     23  C   UNL     1      -2.456  -2.057  -0.778  0.00  0.00    +0.002 C 
ATOM     24  C   UNL     1      -1.331  -2.176   0.252  0.00  0.00    +0.022 C 
ATOM     25  C   UNL     1      -1.923  -2.132   1.662  0.00  0.00    +0.076 C 
ATOM     26  C   UNL     1      -2.661  -0.807   1.864  0.00  0.00    +0.009 C 
ATOM     27  C   UNL     1      -3.253  -0.762   3.274  0.00  0.00    +0.009 C 
ENDBRANCH  16  25
ENDBRANCH  15  17
ENDBRANCH   1  15
TORSDOF 4
