REMARK  Name = ZINC13500165
REMARK  14 active torsions:
REMARK  status: ('A' for Active; 'I' for Inactive)
REMARK    1  A    between atoms: C_1  and  C_2
REMARK    2  A    between atoms: C_2  and  C_3
REMARK    3  A    between atoms: C_3  and  C_4
REMARK    4  A    between atoms: C_4  and  C_6
REMARK    5  A    between atoms: C_4  and  N_71
REMARK    6  A    between atoms: N_10  and  C_11
REMARK    7  A    between atoms: C_11  and  C_12
REMARK    8  A    between atoms: C_12  and  O_14
REMARK    9  A    between atoms: O_14  and  C_15
REMARK   10  A    between atoms: C_15  and  C_16
REMARK   11  A    between atoms: C_17  and  C_18
REMARK   12  A    between atoms: C_17  and  N_71
REMARK   13  A    between atoms: C_22  and  C_30
REMARK   14  A    between atoms: C_31  and  N_71
REMARK                            x       y       z     vdW  Elec       q    Type
REMARK                         _______ _______ _______ _____ _____    ______ ____
ROOT
ATOM      1  N   UNL     1       1.710   4.167  -0.751  0.00  0.00    +0.391 N 
ATOM      2  H   UNL     1       1.354   4.622  -1.600  0.00  0.00    -0.080 HD
ENDROOT
BRANCH   1   3
ATOM      3  C   UNL     1       2.095   2.778  -1.075  0.00  0.00    -0.067 C 
ATOM      4  C   UNL     1       1.113   2.228  -2.112  0.00  0.00    -0.015 C 
ATOM      5  C   UNL     1       1.504   0.794  -2.475  0.00  0.00    -0.002 C 
ATOM      6  C   UNL     1       2.919   0.783  -3.056  0.00  0.00    -0.000 C 
ATOM      7  C   UNL     1       3.901   1.332  -2.019  0.00  0.00    -0.002 C 
ATOM      8  C   UNL     1       3.510   2.766  -1.656  0.00  0.00    -0.015 C 
ENDBRANCH   1   3
BRANCH   1   9
ATOM      9  C   UNL     1       2.887   4.917  -0.263  0.00  0.00    +0.003 C 
BRANCH   9  10
ATOM     10  C   UNL     1       2.638   6.389  -0.465  0.00  0.00    +0.139 A 
ATOM     11  N   UNL     1       1.549   7.049  -0.151  0.00  0.00    -0.115 NA
ATOM     12  N   UNL     1       1.724   8.283  -0.478  0.00  0.00    -0.023 NA
ATOM     13  N   UNL     1       2.895   8.427  -0.993  0.00  0.00    -0.043 NA
ATOM     14  N   UNL     1       3.491   7.283  -0.997  0.00  0.00    -0.220 N 
BRANCH  14  15
ATOM     15  C   UNL     1       4.843   7.008  -1.491  0.00  0.00    +0.267 C 
BRANCH  15  16
ATOM     16  C   UNL     1       4.779   6.648  -2.953  0.00  0.00    +0.329 C 
ATOM     17  O   UNL     1       3.714   6.623  -3.524  0.00  0.00    -0.249 OA
BRANCH  16  18
ATOM     18  O   UNL     1       5.905   6.354  -3.622  0.00  0.00    -0.464 OA
BRANCH  18  19
ATOM     19  C   UNL     1       5.769   6.016  -5.027  0.00  0.00    +0.229 C 
ATOM     20  C   UNL     1       7.148   5.715  -5.616  0.00  0.00    +0.048 C 
ENDBRANCH  18  19
ENDBRANCH  16  18
ENDBRANCH  15  16
ENDBRANCH  14  15
ENDBRANCH   9  10
BRANCH   9  21
ATOM     21  C   UNL     1       3.120   4.638   1.223  0.00  0.00    -0.008 C 
BRANCH  21  23
ATOM     22  C   UNL     1       3.978   2.962   2.866  0.00  0.00    +0.004 C 
ATOM     23  C   UNL     1       3.590   3.193   1.404  0.00  0.00    -0.005 C 
ENDBRANCH  21  23
ENDBRANCH   9  21
ENDBRANCH   1   9
BRANCH   1  24
ATOM     24  C   UNL     1       0.648   4.170   0.277  0.00  0.00    -0.036 C 
BRANCH  24  25
ATOM     25  C   UNL     1      -0.666   3.845  -0.386  0.00  0.00    +0.001 A 
ATOM     26  C   UNL     1      -1.200   2.605  -0.255  0.00  0.00    +0.017 A 
ATOM     27  C   UNL     1      -2.477   2.321  -0.911  0.00  0.00    -0.001 A 
ATOM     28  C   UNL     1      -3.077   1.061  -0.812  0.00  0.00    +0.013 A 
ATOM     29  C   UNL     1      -4.270   0.828  -1.436  0.00  0.00    -0.050 A 
ATOM     30  C   UNL     1      -4.892   1.831  -2.168  0.00  0.00    +0.005 A 
ATOM     31  C   UNL     1      -4.320   3.079  -2.279  0.00  0.00    +0.026 A 
ATOM     32  C   UNL     1      -3.105   3.340  -1.652  0.00  0.00    +0.049 A 
ATOM     33  N   UNL     1      -2.510   4.580  -1.746  0.00  0.00    -0.322 N 
ATOM     34  H   UNL     1      -2.944   5.281  -2.257  0.00  0.00    +0.169 HD
ATOM     35  C   UNL     1      -1.339   4.833  -1.135  0.00  0.00    +0.251 A 
ATOM     36  O   UNL     1      -0.844   5.942  -1.236  0.00  0.00    -0.268 OA
ATOM     37  C   UNL     1      -4.916  -0.529  -1.329  0.00  0.00    +0.044 C 
ENDBRANCH  24  25
ENDBRANCH   1  24
TORSDOF 11
