REMARK  Name = ZINC63448262
REMARK  10 active torsions:
REMARK  status: ('A' for Active; 'I' for Inactive)
REMARK    1  A    between atoms: C_1  and  C_2
REMARK    2  A    between atoms: C_4  and  N_8
REMARK    3  A    between atoms: C_9  and  C_11
REMARK    4  A    between atoms: C_11  and  N_12
REMARK    5  A    between atoms: N_22  and  C_25
REMARK    6  A    between atoms: C_25  and  C_26
REMARK    7  A    between atoms: C_26  and  C_27
REMARK    8  A    between atoms: N_29  and  C_30
REMARK    9  A    between atoms: C_30  and  C_31
REMARK   10  A    between atoms: C_31  and  C_32
REMARK                            x       y       z     vdW  Elec       q    Type
REMARK                         _______ _______ _______ _____ _____    ______ ____
ROOT
ATOM      1  N   UNL     1      -2.281  -6.274   1.955  0.00  0.00    -0.268 N 
ATOM      2  C   UNL     1      -3.691  -6.450   1.631  0.00  0.00    +0.124 C 
ATOM      3  C   UNL     1      -4.504  -5.571   2.548  0.00  0.00    +0.004 C 
ATOM      4  C   UNL     1      -5.029  -6.094   3.644  0.00  0.00    +0.039 C 
ATOM      5  S   UNL     1      -4.561  -7.820   3.618  0.00  0.00    -0.118 S 
ATOM      6  C   UNL     1      -4.134  -7.918   1.842  0.00  0.00    +0.161 C 
ATOM      7  C   UNL     1      -3.016  -8.882   1.649  0.00  0.00    +0.238 C 
ATOM      8  O   UNL     1      -3.287 -10.035   1.387  0.00  0.00    -0.274 OA
ATOM      9  N   UNL     1      -1.725  -8.536   1.751  0.00  0.00    -0.224 N 
ATOM     10  C   UNL     1      -1.374  -7.251   1.928  0.00  0.00    +0.312 C 
ATOM     11  O   UNL     1      -0.202  -6.974   2.092  0.00  0.00    -0.252 OA
ENDROOT
BRANCH   1  12
ATOM     12  C   UNL     1      -1.828  -4.931   2.329  0.00  0.00    +0.205 C 
BRANCH  12  14
ATOM     13  N   UNL     1      -0.946  -2.918   1.194  0.00  0.00    -0.288 N 
ATOM     14  C   UNL     1      -1.402  -4.182   1.093  0.00  0.00    +0.232 C 
ATOM     15  O   UNL     1      -1.470  -4.717   0.006  0.00  0.00    -0.274 OA
ATOM     16  H   UNL     1      -0.891  -2.491   2.063  0.00  0.00    +0.151 HD
BRANCH  13  20
ATOM     17  C   UNL     1      -0.018   1.503   0.010  0.00  0.00    +0.067 C 
ATOM     18  C   UNL     1       0.002  -0.004   0.002  0.00  0.00    +0.060 C 
ATOM     19  C   UNL     1      -1.086  -0.777   0.003  0.00  0.00    +0.045 C 
ATOM     20  C   UNL     1      -0.531  -2.190  -0.007  0.00  0.00    +0.239 C 
ATOM     21  N   UNL     1       0.926  -1.973  -0.013  0.00  0.00    -0.160 NA
ATOM     22  N   UNL     1       1.125  -0.756  -0.013  0.00  0.00    -0.157 NA
ENDBRANCH  13  20
ENDBRANCH  12  14
ENDBRANCH   1  12
BRANCH   9  23
ATOM     23  C   UNL     1      -0.687  -9.565   1.654  0.00  0.00    +0.127 C 
BRANCH  23  24
ATOM     24  C   UNL     1      -0.265  -9.727   0.193  0.00  0.00    +0.115 C 
BRANCH  24  25
ATOM     25  C   UNL     1       0.803 -10.786   0.093  0.00  0.00    +0.215 C 
ATOM     26  O   UNL     1       1.189 -11.354   1.092  0.00  0.00    -0.276 OA
ATOM     27  N   UNL     1       1.330 -11.100  -1.107  0.00  0.00    -0.315 N 
ATOM     28  H   UNL     1       1.022 -10.645  -1.907  0.00  0.00    +0.149 HD
BRANCH  27  29
ATOM     29  C   UNL     1       2.369 -12.129  -1.204  0.00  0.00    +0.109 C 
BRANCH  29  30
ATOM     30  C   UNL     1       2.791 -12.291  -2.666  0.00  0.00    +0.054 C 
BRANCH  30  31
ATOM     31  C   UNL     1       3.859 -13.349  -2.766  0.00  0.00    -0.046 A 
ATOM     32  C   UNL     1       5.192 -12.999  -2.655  0.00  0.00    +0.005 A 
ATOM     33  C   UNL     1       6.172 -13.969  -2.747  0.00  0.00    +0.020 A 
ATOM     34  C   UNL     1       5.819 -15.291  -2.949  0.00  0.00    +0.041 A 
ATOM     35  C   UNL     1       4.485 -15.642  -3.060  0.00  0.00    +0.020 A 
ATOM     36  C   UNL     1       3.506 -14.671  -2.963  0.00  0.00    +0.005 A 
ATOM     37 CL   UNL     1       7.049 -16.511  -3.065  0.00  0.00    -0.084 Cl
ENDBRANCH  30  31
ENDBRANCH  29  30
ENDBRANCH  27  29
ENDBRANCH  24  25
ENDBRANCH  23  24
ENDBRANCH   9  23
TORSDOF 9
