REMARK  Name = ZINC58929677
REMARK  8 active torsions:
REMARK  status: ('A' for Active; 'I' for Inactive)
REMARK    1  A    between atoms: C_1  and  N_2
REMARK    2  A    between atoms: N_2  and  C_3
REMARK    3  A    between atoms: N_2  and  C_4
REMARK    4  A    between atoms: C_7  and  C_10
REMARK    5  A    between atoms: C_15  and  C_23
REMARK    6  A    between atoms: C_17  and  C_21
REMARK    7  A    between atoms: C_18  and  N_20
REMARK    8  A    between atoms: C_27  and  N_29
REMARK                            x       y       z     vdW  Elec       q    Type
REMARK                         _______ _______ _______ _____ _____    ______ ____
ROOT
ATOM      1  C   UNL     1      -0.006  -2.813  -4.924  0.00  0.00    +0.034 C 
ATOM      2  C   UNL     1      -1.258  -2.446  -5.723  0.00  0.00    +0.083 C 
ATOM      3  C   UNL     1      -1.239  -3.161  -7.054  0.00  0.00    +0.115 C 
ATOM      4  C   UNL     1      -0.075  -3.447  -7.665  0.00  0.00    +0.046 C 
ATOM      5  C   UNL     1      -0.059  -4.155  -8.997  0.00  0.00    +0.101 C 
ATOM      6  C   UNL     1      -1.379  -4.830  -9.243  0.00  0.00    +0.098 C 
ATOM      7  C   UNL     1      -2.479  -4.468  -8.538  0.00  0.00    +0.198 C 
ATOM      8  O   UNL     1      -2.419  -3.500  -7.608  0.00  0.00    -0.445 OA
ATOM      9  C   UNL     1       1.160  -3.100  -7.083  0.00  0.00    +0.164 C 
ATOM     10  O   UNL     1       2.190  -3.357  -7.673  0.00  0.00    -0.292 OA
ATOM     11  C   UNL     1       1.229  -2.421  -5.742  0.00  0.00    +0.088 C 
ENDROOT
BRANCH   1  15
ATOM     12  C   UNL     1       0.000  -0.696  -1.211  0.00  0.00    +0.029 A 
ATOM     13  C   UNL     1       0.013  -2.085  -1.221  0.00  0.00    +0.023 A 
ATOM     14  C   UNL     1       0.010  -2.766  -2.422  0.00  0.00    +0.006 A 
ATOM     15  C   UNL     1      -0.005  -2.066  -3.615  0.00  0.00    -0.043 A 
ATOM     16  C   UNL     1      -0.018  -0.684  -3.609  0.00  0.00    +0.006 A 
ATOM     17  C   UNL     1      -0.021   0.004  -2.411  0.00  0.00    +0.023 A 
BRANCH  12  19
ATOM     18  C   UNL     1      -0.018   1.461   0.010  0.00  0.00    +0.129 C 
ATOM     19  N   UNL     1       0.002  -0.004   0.002  0.00  0.00    -0.336 N 
ATOM     20  C   UNL     1       0.024  -0.743   1.267  0.00  0.00    +0.129 C 
ENDBRANCH  12  19
ENDBRANCH   1  15
BRANCH   5  21
ATOM     21  C   UNL     1       0.196  -3.152 -10.093  0.00  0.00    -0.032 A 
ATOM     22  C   UNL     1      -0.676  -2.095 -10.279  0.00  0.00    +0.005 A 
ATOM     23  C   UNL     1      -0.442  -1.175 -11.284  0.00  0.00    +0.003 A 
ATOM     24  C   UNL     1       0.664  -1.312 -12.102  0.00  0.00    +0.033 A 
ATOM     25  C   UNL     1       1.536  -2.368 -11.916  0.00  0.00    +0.126 A 
ATOM     26  C   UNL     1       1.304  -3.286 -10.908  0.00  0.00    +0.037 A 
BRANCH  25  27
ATOM     27  N   UNL     1       2.719  -2.515 -12.792  0.00  0.00    +0.056 N 
ATOM     28  O   UNL     1       2.924  -1.711 -13.672  0.00  0.00    -0.126 OA
ATOM     29  O   UNL     1       3.482  -3.439 -12.629  0.00  0.00    -0.126 OA
ENDBRANCH  25  27
ENDBRANCH   5  21
BRANCH   7  30
ATOM     30  N   UNL     1      -3.673  -5.101  -8.778  0.00  0.00    -0.328 N 
ATOM     31  H   UNL     1      -3.726  -5.801  -9.447  0.00  0.00    +0.145 HD
ATOM     32  H   UNL     1      -4.465  -4.848  -8.278  0.00  0.00    +0.145 HD
ENDBRANCH   7  30
BRANCH   6  33
ATOM     33  C   UNL     1      -1.476  -5.864 -10.229  0.00  0.00    +0.101 C 
ATOM     34  N   UNL     1      -1.553  -6.684 -11.012  0.00  0.00    -0.191 NA
ENDBRANCH   6  33
TORSDOF 6
