REMARK  Name = ZINC28817472
REMARK  13 active torsions:
REMARK  status: ('A' for Active; 'I' for Inactive)
REMARK    1  A    between atoms: C_1  and  C_2
REMARK    2  A    between atoms: C_2  and  C_3
REMARK    3  A    between atoms: C_6  and  C_9
REMARK    4  A    between atoms: C_9  and  C_11
REMARK    5  A    between atoms: C_9  and  N_33
REMARK    6  A    between atoms: C_11  and  N_12
REMARK    7  A    between atoms: C_13  and  C_15
REMARK    8  A    between atoms: N_18  and  S_21
REMARK    9  A    between atoms: S_21  and  C_24
REMARK   10  A    between atoms: C_26  and  C_30
REMARK   11  A    between atoms: N_27  and  C_29
REMARK   12  A    between atoms: N_33  and  C_34
REMARK   13  A    between atoms: N_33  and  C_35
REMARK                            x       y       z     vdW  Elec       q    Type
REMARK                         _______ _______ _______ _____ _____    ______ ____
ROOT
ATOM      1  C   UNL     1      -4.060   1.062  -6.176  0.00  0.00    +0.077 C 
ATOM      2  C   UNL     1      -3.443   1.746  -4.954  0.00  0.00    +0.030 C 
ATOM      3  C   UNL     1      -4.156   1.262  -3.688  0.00  0.00    +0.110 C 
ATOM      4  N   UNL     1      -4.105  -0.206  -3.647  0.00  0.00    -0.176 NA
ATOM      5  C   UNL     1      -4.585  -0.962  -4.812  0.00  0.00    +0.110 C 
ATOM      6  C   UNL     1      -3.871  -0.453  -6.064  0.00  0.00    +0.030 C 
ENDROOT
BRANCH   1   8
ATOM      7  N   UNL     1      -3.765   1.094  -8.631  0.00  0.00    -0.316 N 
ATOM      8  C   UNL     1      -3.383   1.561  -7.426  0.00  0.00    +0.216 C 
ATOM      9  O   UNL     1      -2.495   2.383  -7.348  0.00  0.00    -0.276 OA
ATOM     10  H   UNL     1      -4.571   0.348  -8.702  0.00  0.00    +0.149 HD
BRANCH   7  11
ATOM     11  C   UNL     1      -3.107   1.579  -9.847  0.00  0.00    +0.093 C 
BRANCH  11  12
ATOM     12  C   UNL     1      -3.639   0.809 -11.057  0.00  0.00    -0.021 C 
BRANCH  12  16
ATOM     13  C   UNL     1      -1.931   2.411 -14.629  0.00  0.00    -0.048 A 
ATOM     14  C   UNL     1      -1.957   1.044 -14.429  0.00  0.00    +0.004 A 
ATOM     15  C   UNL     1      -2.510   0.525 -13.273  0.00  0.00    +0.002 A 
ATOM     16  C   UNL     1      -3.036   1.374 -12.317  0.00  0.00    -0.059 A 
ATOM     17  C   UNL     1      -3.015   2.741 -12.520  0.00  0.00    +0.002 A 
ATOM     18  C   UNL     1      -2.457   3.260 -13.674  0.00  0.00    +0.004 A 
BRANCH  13  20
ATOM     19  C   UNL     1      -2.412   3.097 -16.963  0.00  0.00    +0.009 C 
ATOM     20  C   UNL     1      -1.328   2.976 -15.890  0.00  0.00    +0.032 C 
ENDBRANCH  13  20
ENDBRANCH  12  16
BRANCH  12  21
ATOM     21  N   UNL     1      -5.102   0.937 -11.114  0.00  0.00    +0.382 N 
ATOM     22  C   UNL     1      -5.498   2.319 -11.415  0.00  0.00    -0.096 C 
ATOM     23  C   UNL     1      -5.674   0.001 -12.091  0.00  0.00    -0.096 C 
ATOM     24  H   UNL     1      -5.503   0.678 -10.123  0.00  0.00    -0.082 HD
ENDBRANCH  12  21
ENDBRANCH  11  12
ENDBRANCH   7  11
ENDBRANCH   1   8
BRANCH   4  25
ATOM     25  S   UNL     1      -3.511  -0.993  -2.317  0.00  0.00    +0.062 S 
ATOM     26  O   UNL     1      -3.074  -2.269  -2.762  0.00  0.00    -0.153 OA
ATOM     27  O   UNL     1      -2.646  -0.079  -1.657  0.00  0.00    -0.153 OA
BRANCH  25  28
ATOM     28  C   UNL     1      -4.869  -1.276  -1.230  0.00  0.00    +0.124 A 
ATOM     29  C   UNL     1      -5.697  -2.403  -1.224  0.00  0.00    +0.061 A 
ATOM     30  C   UNL     1      -6.624  -2.218  -0.221  0.00  0.00    +0.106 A 
ATOM     31  N   UNL     1      -6.362  -1.002   0.368  0.00  0.00    -0.344 N 
ATOM     32  C   UNL     1      -5.292  -0.444  -0.249  0.00  0.00    +0.114 A 
ATOM     33  C   UNL     1      -7.110  -0.412   1.481  0.00  0.00    +0.149 C 
BRANCH  30  34
ATOM     34  C   UNL     1      -7.696  -3.148   0.151  0.00  0.00    +0.258 C 
ATOM     35  O   UNL     1      -8.510  -2.831   0.998  0.00  0.00    -0.269 OA
ATOM     36  N   UNL     1      -7.780  -4.353  -0.446  0.00  0.00    -0.324 N 
ATOM     37  H   UNL     1      -8.584  -5.051  -0.168  0.00  0.00    +0.145 HD
ATOM     38  H   UNL     1      -7.044  -4.640  -1.212  0.00  0.00    +0.145 HD
ENDBRANCH  30  34
ENDBRANCH  25  28
ENDBRANCH   4  25
TORSDOF 9
