REMARK  Name = ZINC02569067
REMARK  10 active torsions:
REMARK  status: ('A' for Active; 'I' for Inactive)
REMARK    1  A    between atoms: C_1  and  C_2
REMARK    2  A    between atoms: C_2  and  C_3
REMARK    3  A    between atoms: C_10  and  C_17
REMARK    4  A    between atoms: C_12  and  C_13
REMARK    5  A    between atoms: N_15  and  N_16
REMARK    6  A    between atoms: C_20  and  O_23
REMARK    7  A    between atoms: O_23  and  C_24
REMARK    8  A    between atoms: C_24  and  C_25
REMARK    9  A    between atoms: C_25  and  C_26
REMARK   10  A    between atoms: C_25  and  C_27
REMARK                            x       y       z     vdW  Elec       q    Type
REMARK                         _______ _______ _______ _____ _____    ______ ____
ROOT
ATOM      1  C   UNL     1      -2.329  -2.952   0.217  0.00  0.00    -0.022 A 
ATOM      2  C   UNL     1      -3.526  -2.316   0.336  0.00  0.00    +0.006 A 
ATOM      3  C   UNL     1      -3.604  -0.925   0.348  0.00  0.00    +0.001 A 
ATOM      4  C   UNL     1      -2.479  -0.162   0.243  0.00  0.00    +0.011 A 
ATOM      5  C   UNL     1      -1.231  -0.782   0.125  0.00  0.00    +0.013 A 
ATOM      6  C   UNL     1      -1.146  -2.198   0.105  0.00  0.00    +0.076 A 
ATOM      7  N   UNL     1       0.042  -2.793  -0.013  0.00  0.00    -0.246 NA
ATOM      8  C   UNL     1       1.163  -2.112  -0.119  0.00  0.00    +0.072 A 
ATOM      9  C   UNL     1       1.191  -0.709  -0.116  0.00  0.00    +0.042 A 
ATOM     10  C   UNL     1       0.002  -0.004   0.002  0.00  0.00    +0.049 A 
ENDROOT
BRANCH   8  11
ATOM     11  C   UNL     1       2.440  -2.853  -0.247  0.00  0.00    +0.001 A 
ATOM     12  C   UNL     1       3.643  -2.156  -0.367  0.00  0.00    +0.013 A 
ATOM     13  C   UNL     1       4.830  -2.848  -0.481  0.00  0.00    +0.046 A 
ATOM     14  C   UNL     1       4.828  -4.237  -0.486  0.00  0.00    +0.121 A 
ATOM     15  C   UNL     1       3.632  -4.933  -0.371  0.00  0.00    +0.046 A 
ATOM     16  C   UNL     1       2.442  -4.247  -0.252  0.00  0.00    +0.013 A 
BRANCH  14  17
ATOM     17  O   UNL     1       5.998  -4.916  -0.604  0.00  0.00    -0.492 OA
BRANCH  17  18
ATOM     18  C   UNL     1       7.191  -4.137  -0.718  0.00  0.00    +0.232 C 
BRANCH  18  19
ATOM     19  C   UNL     1       8.399  -5.069  -0.841  0.00  0.00    +0.020 C 
ATOM     20  C   UNL     1       8.304  -5.857  -2.148  0.00  0.00    +0.010 C 
ATOM     21  C   UNL     1       9.685  -4.240  -0.837  0.00  0.00    +0.010 C 
ENDBRANCH  18  19
ENDBRANCH  17  18
ENDBRANCH  14  17
ENDBRANCH   8  11
BRANCH  10  22
ATOM     22  C   UNL     1      -0.018   1.475   0.010  0.00  0.00    +0.258 C 
ATOM     23  O   UNL     1      -1.079   2.068   0.011  0.00  0.00    -0.269 OA
ATOM     24  N   UNL     1       1.140   2.165   0.011  0.00  0.00    -0.250 N 
ATOM     25  H   UNL     1       1.986   1.691   0.007  0.00  0.00    +0.169 HD
BRANCH  24  26
ATOM     26  N   UNL     1       1.121   3.530   0.019  0.00  0.00    -0.254 NA
ATOM     27  H   UNL     1       2.058   3.905   0.019  0.00  0.00    +0.140 HD
ATOM     28  H   UNL     1       0.589   3.889  -0.759  0.00  0.00    +0.140 HD
ENDBRANCH  24  26
ENDBRANCH  10  22
BRANCH   1  30
ATOM     29  C   UNL     1      -1.986  -4.967   1.620  0.00  0.00    +0.009 C 
ATOM     30  C   UNL     1      -2.270  -4.458   0.206  0.00  0.00    +0.034 C 
ENDBRANCH   1  30
TORSDOF 7
