REMARK  Name = ZINC39673859
REMARK  12 active torsions:
REMARK  status: ('A' for Active; 'I' for Inactive)
REMARK    1  A    between atoms: C_1  and  C_2
REMARK    2  A    between atoms: C_2  and  C_3
REMARK    3  A    between atoms: C_3  and  C_4
REMARK    4  A    between atoms: C_4  and  C_6
REMARK    5  A    between atoms: C_4  and  N_7
REMARK    6  A    between atoms: C_8  and  C_10
REMARK    7  A    between atoms: C_21  and  C_23
REMARK    8  A    between atoms: C_23  and  C_25
REMARK    9  A    between atoms: C_23  and  O_28
REMARK   10  A    between atoms: C_25  and  C_26
REMARK   11  A    between atoms: C_25  and  C_27
REMARK   12  A    between atoms: O_28  and  C_29
REMARK                            x       y       z     vdW  Elec       q    Type
REMARK                         _______ _______ _______ _____ _____    ______ ____
ROOT
ATOM      1  C   UNL     1      -2.632  -4.688  -1.489  0.00  0.00    +0.100 C 
ATOM      2  C   UNL     1      -3.398  -3.647  -0.642  0.00  0.00    +0.121 C 
ATOM      3  N   UNL     1      -4.119  -4.448   0.375  0.00  0.00    -0.297 N 
ATOM      4  C   UNL     1      -3.156  -5.509   0.757  0.00  0.00    +0.115 C 
ATOM      5  C   UNL     1      -2.475  -5.909  -0.567  0.00  0.00    -0.004 C 
ATOM      6  C   UNL     1      -0.997  -6.205  -0.330  0.00  0.00    -0.010 C 
ATOM      7  C   UNL     1      -0.866  -7.457   0.541  0.00  0.00    -0.082 C 
ATOM      8  N   UNL     1      -1.512  -8.592  -0.128  0.00  0.00    +0.379 N 
ATOM      9  C   UNL     1      -2.951  -8.338  -0.268  0.00  0.00    -0.082 C 
ATOM     10  C   UNL     1      -3.171  -7.123  -1.174  0.00  0.00    -0.010 C 
ATOM     11  C   UNL     1      -5.367  -4.256   0.845  0.00  0.00    +0.257 C 
ATOM     12  O   UNL     1      -5.784  -4.942   1.754  0.00  0.00    -0.272 OA
ATOM     13  H   UNL     1      -1.104  -8.719  -1.042  0.00  0.00    -0.086 HD
ATOM     14  H   UNL     1      -1.372  -9.428   0.419  0.00  0.00    -0.086 HD
ENDROOT
BRANCH   1  16
ATOM     15  N   UNL     1      -0.636  -4.667  -2.949  0.00  0.00    -0.312 N 
ATOM     16  C   UNL     1      -1.280  -4.151  -1.884  0.00  0.00    +0.218 C 
ATOM     17  O   UNL     1      -0.773  -3.255  -1.244  0.00  0.00    -0.275 OA
ATOM     18  H   UNL     1      -1.041  -5.384  -3.461  0.00  0.00    +0.149 HD
BRANCH  15  19
ATOM     19  C   UNL     1       0.678  -4.145  -3.333  0.00  0.00    +0.070 C 
ATOM     20  C   UNL     1       1.765  -4.850  -2.519  0.00  0.00    +0.028 C 
BRANCH  19  21
ATOM     21  C   UNL     1       0.912  -4.400  -4.824  0.00  0.00    +0.022 C 
BRANCH  21  23
ATOM     22  C   UNL     1       0.136  -3.850  -7.134  0.00  0.00    +0.004 C 
ATOM     23  C   UNL     1      -0.098  -3.595  -5.643  0.00  0.00    -0.002 C 
ENDBRANCH  21  23
ENDBRANCH  19  21
ENDBRANCH  15  19
ENDBRANCH   1  16
BRANCH  11  24
ATOM     24  C   UNL     1      -6.244  -3.189   0.242  0.00  0.00    +0.261 C 
BRANCH  24  25
ATOM     25  C   UNL     1      -7.013  -3.772  -0.945  0.00  0.00    +0.033 C 
ATOM     26  C   UNL     1      -8.002  -2.731  -1.473  0.00  0.00    +0.011 C 
ATOM     27  C   UNL     1      -6.029  -4.148  -2.055  0.00  0.00    +0.011 C 
ENDBRANCH  24  25
BRANCH  24  28
ATOM     28  O   UNL     1      -7.169  -2.721   1.225  0.00  0.00    -0.479 OA
BRANCH  28  29
ATOM     29  C   UNL     1      -7.492  -1.402   1.189  0.00  0.00    +0.122 A 
ATOM     30  C   UNL     1      -8.396  -0.882   2.106  0.00  0.00    +0.045 A 
ATOM     31  C   UNL     1      -8.723   0.459   2.067  0.00  0.00    +0.004 A 
ATOM     32  C   UNL     1      -8.151   1.284   1.116  0.00  0.00    +0.000 A 
ATOM     33  C   UNL     1      -7.251   0.769   0.201  0.00  0.00    +0.004 A 
ATOM     34  C   UNL     1      -6.916  -0.571   0.240  0.00  0.00    +0.045 A 
ENDBRANCH  28  29
ENDBRANCH  24  28
ENDBRANCH  11  24
TORSDOF 8
