REMARK  Name = ZINC25571666
REMARK  10 active torsions:
REMARK  status: ('A' for Active; 'I' for Inactive)
REMARK    1  A    between atoms: C_1  and  C_2
REMARK    2  A    between atoms: C_2  and  C_3
REMARK    3  A    between atoms: C_3  and  C_4
REMARK    4  A    between atoms: C_4  and  N_5
REMARK    5  A    between atoms: N_7  and  C_18
REMARK    6  A    between atoms: C_18  and  C_19
REMARK    7  A    between atoms: C_19  and  C_20
REMARK    8  A    between atoms: C_20  and  N_21
REMARK    9  A    between atoms: N_21  and  C_22
REMARK   10  A    between atoms: N_21  and  C_23
REMARK                            x       y       z     vdW  Elec       q    Type
REMARK                         _______ _______ _______ _____ _____    ______ ____
ROOT
ATOM      1  N   UNL     1      -5.265   8.063   4.311  0.00  0.00    -0.289 N 
ATOM      2  C   UNL     1      -4.676   8.091   2.963  0.00  0.00    +0.196 C 
ATOM      3  N   UNL     1      -3.528   7.175   2.901  0.00  0.00    -0.269 NA
ATOM      4  C   UNL     1      -2.406   7.693   3.707  0.00  0.00    +0.213 C 
ATOM      5  N   UNL     1      -2.942   8.091   5.014  0.00  0.00    -0.300 N 
ATOM      6  C   UNL     1      -4.284   8.254   5.266  0.00  0.00    +0.179 A 
ATOM      7  N   UNL     1      -4.458   8.607   6.517  0.00  0.00    -0.327 N 
ATOM      8  C   UNL     1      -3.262   8.692   7.131  0.00  0.00    +0.066 A 
ATOM      9  C   UNL     1      -2.271   8.363   6.173  0.00  0.00    +0.069 A 
ATOM     10  C   UNL     1      -0.923   8.361   6.506  0.00  0.00    +0.028 A 
ATOM     11  C   UNL     1      -0.595   8.693   7.811  0.00  0.00    +0.002 A 
ATOM     12  C   UNL     1      -1.558   9.014   8.751  0.00  0.00    +0.002 A 
ATOM     13  C   UNL     1      -2.908   9.024   8.443  0.00  0.00    +0.028 A 
ATOM     14  H   UNL     1      -5.473   8.782   6.902  0.00  0.00    +0.169 HD
ENDROOT
BRANCH   1  15
ATOM     15  C   UNL     1      -6.329   9.068   4.441  0.00  0.00    +0.109 C 
BRANCH  15  16
ATOM     16  C   UNL     1      -7.081   8.848   5.755  0.00  0.00    +0.019 C 
BRANCH  16  18
ATOM     17  C   UNL     1      -8.941   9.673   7.205  0.00  0.00    +0.004 C 
ATOM     18  C   UNL     1      -8.189   9.894   5.891  0.00  0.00    -0.002 C 
ENDBRANCH  16  18
ENDBRANCH  15  16
ENDBRANCH   1  15
BRANCH   3  19
ATOM     19  C   UNL     1      -3.114   6.943   1.511  0.00  0.00    +0.089 C 
BRANCH  19  20
ATOM     20  C   UNL     1      -1.779   6.196   1.494  0.00  0.00    +0.034 C 
BRANCH  20  21
ATOM     21  C   UNL     1      -1.347   5.954   0.046  0.00  0.00    +0.106 C 
BRANCH  21  22
ATOM     22  N   UNL     1      -0.069   5.239   0.030  0.00  0.00    -0.333 N 
ATOM     23  C   UNL     1       1.190   5.989   0.022  0.00  0.00    +0.129 C 
BRANCH  22  24
ATOM     24  C   UNL     1      -0.050   3.842   0.023  0.00  0.00    +0.029 A 
ATOM     25  C   UNL     1       1.161   3.163   0.008  0.00  0.00    +0.023 A 
ATOM     26  C   UNL     1       1.176   1.782   0.000  0.00  0.00    +0.002 A 
ATOM     27  C   UNL     1      -0.013   1.076   0.008  0.00  0.00    +0.000 A 
ATOM     28  C   UNL     1      -1.220   1.749   0.017  0.00  0.00    +0.002 A 
ATOM     29  C   UNL     1      -1.243   3.130   0.031  0.00  0.00    +0.023 A 
ENDBRANCH  22  24
ENDBRANCH  21  22
ENDBRANCH  20  21
ENDBRANCH  19  20
ENDBRANCH   3  19
TORSDOF 8
