REMARK  Name = ZINC39674340
REMARK  10 active torsions:
REMARK  status: ('A' for Active; 'I' for Inactive)
REMARK    1  A    between atoms: C_1  and  C_2
REMARK    2  A    between atoms: C_2  and  O_3
REMARK    3  A    between atoms: O_3  and  C_4
REMARK    4  A    between atoms: C_9  and  C_10
REMARK    5  A    between atoms: C_14  and  C_23
REMARK    6  A    between atoms: N_25  and  C_26
REMARK    7  A    between atoms: C_26  and  C_28
REMARK    8  A    between atoms: C_26  and  C_29
REMARK    9  A    between atoms: C_30  and  C_36
REMARK   10  A    between atoms: C_33  and  C_35
REMARK                            x       y       z     vdW  Elec       q    Type
REMARK                         _______ _______ _______ _____ _____    ______ ____
ROOT
ATOM      1  C   UNL     1      -3.683  -2.278   0.270  0.00  0.00    +0.250 C 
ATOM      2  O   UNL     1      -3.480  -1.080   0.232  0.00  0.00    -0.270 OA
ATOM      3  N   UNL     1      -4.901  -2.765  -0.040  0.00  0.00    -0.296 N 
ATOM      4  C   UNL     1      -5.366  -4.169   0.045  0.00  0.00    +0.121 C 
ATOM      5  C   UNL     1      -6.816  -4.069   0.569  0.00  0.00    +0.100 C 
ATOM      6  C   UNL     1      -7.278  -2.655   0.178  0.00  0.00    -0.004 C 
ATOM      7  C   UNL     1      -6.079  -2.016  -0.538  0.00  0.00    +0.115 C 
ATOM      8  C   UNL     1      -7.630  -1.851   1.425  0.00  0.00    -0.010 C 
ATOM      9  C   UNL     1      -8.141  -0.468   1.008  0.00  0.00    -0.082 C 
ATOM     10  N   UNL     1      -9.321  -0.620   0.149  0.00  0.00    +0.379 N 
ATOM     11  C   UNL     1      -8.953  -1.314  -1.091  0.00  0.00    -0.082 C 
ATOM     12  C   UNL     1      -8.477  -2.732  -0.762  0.00  0.00    -0.010 C 
ATOM     13  H   UNL     1     -10.024  -1.155   0.636  0.00  0.00    -0.086 HD
ATOM     14  H   UNL     1      -9.692   0.292  -0.075  0.00  0.00    -0.086 HD
ENDROOT
BRANCH   1  20
ATOM     15  C   UNL     1      -1.641  -2.803   1.603  0.00  0.00    +0.133 A 
ATOM     16  C   UNL     1      -0.628  -3.679   1.963  0.00  0.00    +0.046 A 
ATOM     17  C   UNL     1      -0.558  -4.932   1.386  0.00  0.00    +0.004 A 
ATOM     18  C   UNL     1      -1.497  -5.323   0.446  0.00  0.00    +0.001 A 
ATOM     19  C   UNL     1      -2.511  -4.466   0.077  0.00  0.00    +0.017 A 
ATOM     20  C   UNL     1      -2.597  -3.198   0.657  0.00  0.00    +0.078 A 
BRANCH  15  21
ATOM     21  O   UNL     1      -1.711  -1.572   2.168  0.00  0.00    -0.491 OA
BRANCH  21  23
ATOM     22  C   UNL     1      -0.944   0.177   3.649  0.00  0.00    +0.048 C 
ATOM     23  C   UNL     1      -0.703  -1.240   3.125  0.00  0.00    +0.226 C 
ENDBRANCH  21  23
ENDBRANCH  15  21
ENDBRANCH   1  20
BRANCH   5  24
ATOM     24  C   UNL     1      -7.685  -5.109  -0.090  0.00  0.00    +0.219 C 
ATOM     25  O   UNL     1      -7.413  -5.510  -1.202  0.00  0.00    -0.275 OA
ATOM     26  N   UNL     1      -8.765  -5.592   0.555  0.00  0.00    -0.309 N 
ATOM     27  H   UNL     1      -8.983  -5.271   1.444  0.00  0.00    +0.149 HD
BRANCH  26  28
ATOM     28  C   UNL     1      -9.610  -6.603  -0.086  0.00  0.00    +0.100 C 
ATOM     29  C   UNL     1     -10.639  -5.912  -0.984  0.00  0.00    +0.033 C 
BRANCH  28  30
ATOM     30  C   UNL     1     -10.325  -7.404   0.972  0.00  0.00    -0.001 C 
ATOM     31  C   UNL     1     -10.328  -8.729   1.137  0.00  0.00    +0.063 C 
ATOM     32  N   UNL     1     -11.087  -9.078   2.200  0.00  0.00    -0.159 NA
ATOM     33  N   UNL     1     -11.611  -8.129   2.788  0.00  0.00    -0.180 NA
ATOM     34  C   UNL     1     -11.202  -6.892   2.100  0.00  0.00    +0.154 C 
ATOM     35  C   UNL     1     -12.423  -6.157   1.545  0.00  0.00    +0.039 C 
ATOM     36  C   UNL     1      -9.586  -9.703   0.259  0.00  0.00    +0.067 C 
ENDBRANCH  28  30
ENDBRANCH  26  28
ENDBRANCH   5  24
TORSDOF 6
