REMARK  Name = ZINC40987908
REMARK  5 active torsions:
REMARK  status: ('A' for Active; 'I' for Inactive)
REMARK    1  A    between atoms: C_4  and  C_7
REMARK    2  A    between atoms: C_7  and  C_9
REMARK    3  A    between atoms: C_14  and  N_15
REMARK    4  A    between atoms: C_16  and  C_18
REMARK    5  A    between atoms: N_21  and  C_23
REMARK                            x       y       z     vdW  Elec       q    Type
REMARK                         _______ _______ _______ _____ _____    ______ ____
ROOT
ATOM      1  N   UNL     1       6.267  -2.004   0.049  0.00  0.00    -0.280 N 
ATOM      2  C   UNL     1       7.467  -2.615  -0.011  0.00  0.00    +0.269 C 
ATOM      3  O   UNL     1       7.529  -3.828  -0.062  0.00  0.00    -0.268 OA
ATOM      4  H   UNL     1       6.218  -1.044   0.176  0.00  0.00    +0.155 HD
ENDROOT
BRANCH   2   5
ATOM      5  C   UNL     1       8.706  -1.811  -0.014  0.00  0.00    +0.151 A 
ATOM      6  C   UNL     1      10.022  -2.298  -0.077  0.00  0.00    +0.006 A 
ATOM      7  C   UNL     1      10.825  -1.206  -0.052  0.00  0.00    +0.044 A 
ATOM      8  N   UNL     1      10.027  -0.128   0.020  0.00  0.00    -0.263 N 
ATOM      9  N   UNL     1       8.792  -0.493   0.037  0.00  0.00    -0.166 NA
ATOM     10  C   UNL     1      12.330  -1.269  -0.097  0.00  0.00    +0.055 C 
ATOM     11  C   UNL     1      12.764  -2.700   0.244  0.00  0.00    +0.006 C 
ATOM     12  C   UNL     1      11.978  -3.695  -0.615  0.00  0.00    +0.005 C 
ATOM     13  C   UNL     1      10.513  -3.718  -0.160  0.00  0.00    +0.039 C 
BRANCH   8  14
ATOM     14  C   UNL     1      10.494   1.260   0.066  0.00  0.00    +0.130 C 
ATOM     15  C   UNL     1       9.920   2.032  -1.134  0.00  0.00    +0.051 C 
ATOM     16  C   UNL     1      10.164   3.549  -0.895  0.00  0.00    +0.168 C 
ATOM     17  S   UNL     1       9.784   3.673   0.903  0.00  0.00    -0.029 S 
ATOM     18  O   UNL     1      10.780   4.468   1.532  0.00  0.00    -0.174 OA
ATOM     19  O   UNL     1       8.414   4.014   1.064  0.00  0.00    -0.174 OA
ATOM     20  C   UNL     1      10.025   1.916   1.387  0.00  0.00    +0.192 C 
ENDBRANCH   8  14
ENDBRANCH   2   5
BRANCH   1  26
ATOM     21  C   UNL     1       3.900  -2.281   0.488  0.00  0.00    +0.043 A 
ATOM     22  C   UNL     1       2.733  -3.038   0.355  0.00  0.00    +0.013 A 
ATOM     23  C   UNL     1       2.767  -4.240  -0.317  0.00  0.00    +0.001 A 
ATOM     24  C   UNL     1       3.954  -4.704  -0.863  0.00  0.00    +0.002 A 
ATOM     25  C   UNL     1       5.115  -3.967  -0.740  0.00  0.00    +0.024 A 
ATOM     26  C   UNL     1       5.099  -2.751  -0.071  0.00  0.00    +0.045 A 
BRANCH  21  27
ATOM     27  C   UNL     1       3.871  -0.994   1.206  0.00  0.00    +0.195 C 
ATOM     28  O   UNL     1       3.316  -0.033   0.710  0.00  0.00    -0.287 OA
BRANCH  27  32
ATOM     29  C   UNL     1       5.727  -0.642   5.011  0.00  0.00    +0.000 A 
ATOM     30  C   UNL     1       5.189   0.478   4.401  0.00  0.00    +0.001 A 
ATOM     31  C   UNL     1       4.585   0.371   3.165  0.00  0.00    +0.012 A 
ATOM     32  C   UNL     1       4.517  -0.871   2.530  0.00  0.00    +0.022 A 
ATOM     33  C   UNL     1       5.062  -1.997   3.151  0.00  0.00    +0.012 A 
ATOM     34  C   UNL     1       5.663  -1.875   4.387  0.00  0.00    +0.001 A 
ENDBRANCH  27  32
ENDBRANCH  21  27
ENDBRANCH   1  26
TORSDOF 5
