REMARK  Name = ZINC39677557
REMARK  8 active torsions:
REMARK  status: ('A' for Active; 'I' for Inactive)
REMARK    1  A    between atoms: C_1  and  O_2
REMARK    2  A    between atoms: O_2  and  C_3
REMARK    3  A    between atoms: C_6  and  C_9
REMARK    4  A    between atoms: C_9  and  C_10
REMARK    5  A    between atoms: C_10  and  C_11
REMARK    6  A    between atoms: C_15  and  C_24
REMARK    7  A    between atoms: N_26  and  C_27
REMARK    8  A    between atoms: C_27  and  C_28
REMARK                            x       y       z     vdW  Elec       q    Type
REMARK                         _______ _______ _______ _____ _____    ______ ____
ROOT
ATOM      1  C   UNL     1       2.060  -3.271   6.491  0.00  0.00    +0.216 C 
ATOM      2  O   UNL     1       3.250  -3.454   6.348  0.00  0.00    -0.276 OA
ATOM      3  N   UNL     1       1.448  -3.674   7.623  0.00  0.00    -0.300 N 
ATOM      4  C   UNL     1       0.014  -3.546   7.975  0.00  0.00    +0.121 C 
ATOM      5  C   UNL     1      -0.333  -4.871   8.690  0.00  0.00    +0.100 C 
ATOM      6  C   UNL     1       1.012  -5.390   9.227  0.00  0.00    -0.004 C 
ATOM      7  C   UNL     1       2.056  -4.352   8.793  0.00  0.00    +0.115 C 
ATOM      8  C   UNL     1       1.338  -6.747   8.612  0.00  0.00    -0.010 C 
ATOM      9  C   UNL     1       2.650  -7.269   9.204  0.00  0.00    -0.082 C 
ATOM     10  N   UNL     1       2.517  -7.389  10.661  0.00  0.00    +0.379 N 
ATOM     11  C   UNL     1       2.295  -6.065  11.255  0.00  0.00    -0.082 C 
ATOM     12  C   UNL     1       0.969  -5.493  10.749  0.00  0.00    -0.010 C 
ATOM     13  H   UNL     1       1.736  -7.989  10.878  0.00  0.00    -0.086 HD
ATOM     14  H   UNL     1       3.361  -7.790  11.043  0.00  0.00    -0.086 HD
ENDROOT
BRANCH   5  15
ATOM     15  C   UNL     1      -0.925  -5.854   7.713  0.00  0.00    +0.218 C 
ATOM     16  O   UNL     1      -0.597  -5.822   6.546  0.00  0.00    -0.275 OA
ATOM     17  N   UNL     1      -1.819  -6.769   8.137  0.00  0.00    -0.311 N 
ATOM     18  H   UNL     1      -2.081  -6.795   9.071  0.00  0.00    +0.149 HD
BRANCH  17  19
ATOM     19  C   UNL     1      -2.395  -7.725   7.188  0.00  0.00    +0.139 C 
BRANCH  19  20
ATOM     20  C   UNL     1      -3.358  -8.632   7.910  0.00  0.00    -0.027 A 
ATOM     21  C   UNL     1      -2.905  -9.810   8.475  0.00  0.00    +0.009 A 
ATOM     22  C   UNL     1      -3.786 -10.645   9.137  0.00  0.00    +0.050 A 
ATOM     23  C   UNL     1      -5.126 -10.302   9.236  0.00  0.00    +0.162 A 
ATOM     24  C   UNL     1      -5.581  -9.117   8.671  0.00  0.00    +0.162 A 
ATOM     25  C   UNL     1      -4.691  -8.282   8.011  0.00  0.00    +0.054 A 
ATOM     26  O   UNL     1      -6.890  -8.758   8.763  0.00  0.00    -0.485 OA
ATOM     27  C   UNL     1      -7.818  -9.792   9.110  0.00  0.00    +0.270 C 
ATOM     28  C   UNL     1      -7.238 -10.581  10.292  0.00  0.00    +0.270 C 
ATOM     29  O   UNL     1      -5.982 -11.136   9.887  0.00  0.00    -0.485 OA
ENDBRANCH  19  20
ENDBRANCH  17  19
ENDBRANCH   5  15
BRANCH   1  30
ATOM     30  C   UNL     1       1.265  -2.594   5.405  0.00  0.00    +0.100 C 
BRANCH  30  31
ATOM     31  C   UNL     1       2.191  -2.241   4.240  0.00  0.00    +0.044 C 
BRANCH  31  35
ATOM     32  C   UNL     1      -0.063  -0.320   1.159  0.00  0.00    +0.120 A 
ATOM     33  C   UNL     1       0.528   0.435   2.161  0.00  0.00    +0.046 A 
ATOM     34  C   UNL     1       1.256  -0.188   3.156  0.00  0.00    +0.007 A 
ATOM     35  C   UNL     1       1.396  -1.564   3.153  0.00  0.00    -0.047 A 
ATOM     36  C   UNL     1       0.808  -2.319   2.155  0.00  0.00    +0.007 A 
ATOM     37  C   UNL     1       0.074  -1.700   1.161  0.00  0.00    +0.046 A 
BRANCH  32  39
ATOM     38  C   UNL     1      -0.879   1.715   0.240  0.00  0.00    +0.277 C 
ATOM     39  O   UNL     1      -0.780   0.291   0.179  0.00  0.00    -0.495 OA
ENDBRANCH  32  39
ENDBRANCH  31  35
ENDBRANCH  30  31
ENDBRANCH   1  30
TORSDOF 7
