REMARK  Name = ZINC04149987
REMARK  6 active torsions:
REMARK  status: ('A' for Active; 'I' for Inactive)
REMARK    1  A    between atoms: C_1  and  C_2
REMARK    2  A    between atoms: N_9  and  S_10
REMARK    3  A    between atoms: S_10  and  C_13
REMARK    4  A    between atoms: C_23  and  C_25
REMARK    5  A    between atoms: C_30  and  C_45
REMARK    6  A    between atoms: C_39  and  C_44
REMARK                            x       y       z     vdW  Elec       q    Type
REMARK                         _______ _______ _______ _____ _____    ______ ____
ROOT
ATOM      1  C   UNL     1      -2.286  -3.288  -1.483  0.00  0.00    +0.014 C 
ATOM      2  C   UNL     1      -1.704  -3.241  -0.069  0.00  0.00    +0.043 C 
ATOM      3  C   UNL     1      -0.547  -2.252  -0.030  0.00  0.00    +0.057 A 
ATOM      4  C   UNL     1       0.732  -2.702  -0.035  0.00  0.00    +0.015 A 
ATOM      5  S   UNL     1       1.673  -1.200   0.001  0.00  0.00    -0.056 S 
ATOM      6  C   UNL     1       0.324  -0.104   0.030  0.00  0.00    +0.178 A 
ATOM      7  N   UNL     1      -0.702  -0.929   0.005  0.00  0.00    -0.228 NA
ATOM      8  N   UNL     1       0.328   1.282   0.065  0.00  0.00    -0.194 N 
ATOM      9  C   UNL     1       1.205  -4.113  -0.068  0.00  0.00    +0.051 C 
ATOM     10  C   UNL     1       0.037  -5.027  -0.484  0.00  0.00    -0.021 C 
ATOM     11  C   UNL     1      -1.211  -4.624   0.323  0.00  0.00    +0.045 C 
ATOM     12  C   UNL     1      -0.848  -4.723   1.782  0.00  0.00    +0.184 C 
ATOM     13  C   UNL     1      -0.608  -6.234   2.079  0.00  0.00    +0.044 C 
ATOM     14  C   UNL     1       0.675  -6.622   1.372  0.00  0.00    +0.008 C 
ATOM     15  C   UNL     1       0.434  -6.469  -0.140  0.00  0.00    +0.008 C 
ATOM     16  C   UNL     1      -0.566  -6.184   3.608  0.00  0.00    +0.101 C 
ATOM     17  C   UNL     1      -1.410  -4.955   3.940  0.00  0.00    +0.311 C 
ATOM     18  O   UNL     1      -1.658  -4.553   5.051  0.00  0.00    -0.251 OA
ATOM     19  O   UNL     1      -1.839  -4.387   2.777  0.00  0.00    -0.461 OA
ATOM     20  C   UNL     1      -1.188  -7.445   4.211  0.00  0.00    +0.019 C 
ATOM     21  C   UNL     1      -0.236  -4.883  -1.982  0.00  0.00    +0.012 C 
ATOM     22  H   UNL     1      -0.511   1.769   0.070  0.00  0.00    +0.176 HD
ENDROOT
BRANCH   8  23
ATOM     23  S   UNL     1       1.764   2.106   0.092  0.00  0.00    +0.074 S 
ATOM     24  O   UNL     1       1.439   3.489   0.099  0.00  0.00    -0.150 OA
ATOM     25  O   UNL     1       2.558   1.505   1.107  0.00  0.00    -0.150 OA
BRANCH  23  26
ATOM     26  C   UNL     1       2.577   1.786  -1.438  0.00  0.00    +0.109 A 
ATOM     27  C   UNL     1       2.360   2.613  -2.525  0.00  0.00    +0.029 A 
ATOM     28  C   UNL     1       2.996   2.355  -3.721  0.00  0.00    +0.006 A 
ATOM     29  C   UNL     1       3.854   1.269  -3.845  0.00  0.00    -0.041 A 
ATOM     30  C   UNL     1       4.077   0.452  -2.760  0.00  0.00    -0.025 A 
ATOM     31  C   UNL     1       3.437   0.714  -1.556  0.00  0.00    +0.034 A 
ATOM     32  C   UNL     1       5.010  -0.731  -2.817  0.00  0.00    +0.143 C 
ATOM     33  N   UNL     1       5.375  -1.004  -4.212  0.00  0.00    -0.290 N 
ATOM     34  C   UNL     1       5.731   0.148  -5.056  0.00  0.00    +0.113 C 
ATOM     35  C   UNL     1       4.493   1.034  -5.189  0.00  0.00    +0.054 C 
ATOM     36  C   UNL     1       5.383  -2.260  -4.700  0.00  0.00    +0.320 C 
ATOM     37  O   UNL     1       5.689  -2.459  -5.857  0.00  0.00    -0.266 OA
BRANCH  36  38
ATOM     38  C   UNL     1       5.013  -3.418  -3.810  0.00  0.00    +0.470 C 
ATOM     39  F   UNL     1       5.095  -4.611  -4.537  0.00  0.00    -0.162 F 
ATOM     40  F   UNL     1       5.894  -3.472  -2.724  0.00  0.00    -0.162 F 
ATOM     41  F   UNL     1       3.706  -3.247  -3.341  0.00  0.00    -0.162 F 
ENDBRANCH  36  38
ENDBRANCH  23  26
ENDBRANCH   8  23
TORSDOF 3
