REMARK  Name = ZINC65456130
REMARK  8 active torsions:
REMARK  status: ('A' for Active; 'I' for Inactive)
REMARK    1  A    between atoms: C_1  and  C_2
REMARK    2  A    between atoms: C_7  and  N_8
REMARK    3  A    between atoms: C_9  and  C_11
REMARK    4  A    between atoms: C_11  and  C_12
REMARK    5  A    between atoms: C_12  and  N_13
REMARK    6  A    between atoms: N_13  and  C_14
REMARK    7  A    between atoms: C_23  and  N_26
REMARK    8  A    between atoms: C_28  and  C_31
REMARK                            x       y       z     vdW  Elec       q    Type
REMARK                         _______ _______ _______ _____ _____    ______ ____
ROOT
ATOM      1  N   UNL     1      -0.353  -0.220   7.309  0.00  0.00    +0.383 N 
ATOM      2  H   UNL     1       0.456   0.371   7.428  0.00  0.00    -0.085 HD
ATOM      3  H   UNL     1      -1.186   0.349   7.301  0.00  0.00    -0.085 HD
ENDROOT
BRANCH   1   4
ATOM      4  C   UNL     1      -0.427  -1.180   8.418  0.00  0.00    -0.066 C 
ATOM      5  C   UNL     1      -1.654  -2.075   8.237  0.00  0.00    -0.009 C 
ATOM      6  C   UNL     1      -1.731  -3.075   9.392  0.00  0.00    -0.010 C 
ATOM      7  C   UNL     1      -0.468  -3.938   9.405  0.00  0.00    +0.007 C 
ATOM      8  C   UNL     1       0.760  -3.043   9.586  0.00  0.00    -0.010 C 
ATOM      9  C   UNL     1       0.837  -2.043   8.431  0.00  0.00    -0.009 C 
ATOM     10  C   UNL     1       0.647  -2.284  10.910  0.00  0.00    +0.035 C 
ATOM     11  C   UNL     1      -0.617  -1.422  10.898  0.00  0.00    +0.084 C 
ATOM     12  C   UNL     1      -1.844  -2.317  10.716  0.00  0.00    +0.035 C 
ATOM     13  C   UNL     1      -0.540  -0.422   9.742  0.00  0.00    +0.019 C 
BRANCH  11  14
ATOM     14  N   UNL     1      -0.725  -0.696  12.165  0.00  0.00    -0.157 N 
ATOM     15  N   UNL     1      -0.804  -1.237  13.332  0.00  0.00    -0.135 NA
ATOM     16  C   UNL     1      -0.887  -0.275  14.218  0.00  0.00    +0.172 A 
ATOM     17  N   UNL     1      -0.857   0.875  13.545  0.00  0.00    -0.113 NA
ATOM     18  N   UNL     1      -0.751   0.586  12.293  0.00  0.00    -0.046 NA
ATOM     19  C   UNL     1      -0.997  -0.438  15.712  0.00  0.00    +0.092 C 
ENDBRANCH  11  14
ENDBRANCH   1   4
BRANCH   1  20
ATOM     20  C   UNL     1      -0.245  -0.948   6.037  0.00  0.00    -0.073 C 
BRANCH  20  21
ATOM     21  C   UNL     1      -0.168   0.052   4.882  0.00  0.00    +0.077 C 
BRANCH  21  23
ATOM     22  N   UNL     1       0.025  -0.015   2.417  0.00  0.00    -0.285 N 
ATOM     23  C   UNL     1      -0.056  -0.694   3.578  0.00  0.00    +0.215 C 
ATOM     24  O   UNL     1      -0.040  -1.907   3.573  0.00  0.00    -0.276 OA
ATOM     25  H   UNL     1       0.078   0.954   2.425  0.00  0.00    +0.155 HD
BRANCH  22  32
ATOM     26  C   UNL     1      -1.264   1.184   0.181  0.00  0.00    +0.045 C 
ATOM     27  C   UNL     1      -0.584  -0.158   0.084  0.00  0.00    -0.029 A 
ATOM     28  C   UNL     1      -0.568  -0.840  -1.117  0.00  0.00    +0.005 A 
ATOM     29  C   UNL     1       0.055  -2.071  -1.206  0.00  0.00    +0.000 A 
ATOM     30  C   UNL     1       0.666  -2.622  -0.095  0.00  0.00    +0.002 A 
ATOM     31  C   UNL     1       0.655  -1.945   1.108  0.00  0.00    +0.023 A 
ATOM     32  C   UNL     1       0.034  -0.706   1.201  0.00  0.00    +0.036 A 
ENDBRANCH  22  32
ENDBRANCH  21  23
ENDBRANCH  20  21
ENDBRANCH   1  20
TORSDOF 6
