REMARK  Name = ZINC10125813
REMARK  6 active torsions:
REMARK  status: ('A' for Active; 'I' for Inactive)
REMARK    1  A    between atoms: C_4  and  N_20
REMARK    2  A    between atoms: C_5  and  C_7
REMARK    3  A    between atoms: N_9  and  N_10
REMARK    4  A    between atoms: C_11  and  C_13
REMARK    5  A    between atoms: N_20  and  S_21
REMARK    6  A    between atoms: S_21  and  C_24
REMARK                            x       y       z     vdW  Elec       q    Type
REMARK                         _______ _______ _______ _____ _____    ______ ____
ROOT
ATOM      1  C   UNL     1       2.591  -2.834   1.888  0.00  0.00    +0.262 C 
ATOM      2  O   UNL     1       3.698  -2.331   1.862  0.00  0.00    -0.269 OA
ATOM      3  N   UNL     1       1.495  -2.058   1.780  0.00  0.00    -0.230 N 
ATOM      4  H   UNL     1       0.612  -2.459   1.800  0.00  0.00    +0.173 HD
ENDROOT
BRANCH   1   9
ATOM      5  C   UNL     1       1.052  -6.242   2.207  0.00  0.00    +0.001 A 
ATOM      6  C   UNL     1       2.179  -7.042   2.318  0.00  0.00    +0.002 A 
ATOM      7  C   UNL     1       3.439  -6.482   2.290  0.00  0.00    +0.025 A 
ATOM      8  C   UNL     1       3.587  -5.107   2.150  0.00  0.00    +0.060 A 
ATOM      9  C   UNL     1       2.449  -4.294   2.037  0.00  0.00    +0.060 A 
ATOM     10  C   UNL     1       1.179  -4.877   2.073  0.00  0.00    +0.015 A 
BRANCH   8  11
ATOM     11  N   UNL     1       4.855  -4.541   2.122  0.00  0.00    -0.215 N 
ATOM     12  H   UNL     1       5.008  -3.673   2.527  0.00  0.00    +0.174 HD
BRANCH  11  13
ATOM     13  S   UNL     1       6.106  -5.347   1.395  0.00  0.00    +0.079 S 
ATOM     14  O   UNL     1       7.220  -4.465   1.409  0.00  0.00    -0.149 OA
ATOM     15  O   UNL     1       6.150  -6.641   1.980  0.00  0.00    -0.149 OA
BRANCH  13  16
ATOM     16  C   UNL     1       5.666  -5.574  -0.296  0.00  0.00    +0.146 A 
ATOM     17  C   UNL     1       5.905  -4.765  -1.357  0.00  0.00    +0.036 A 
ATOM     18  C   UNL     1       5.463  -5.151  -2.608  0.00  0.00    +0.010 A 
ATOM     19  C   UNL     1       4.803  -6.328  -2.738  0.00  0.00    +0.047 A 
ATOM     20  S   UNL     1       4.796  -6.934  -1.059  0.00  0.00    -0.077 S 
ENDBRANCH  13  16
ENDBRANCH  11  13
ENDBRANCH   8  11
ENDBRANCH   1   9
BRANCH   3  21
ATOM     21  N   UNL     1       1.631  -0.671   1.638  0.00  0.00    -0.229 N 
ATOM     22  C   UNL     1       0.534   0.106   1.530  0.00  0.00    +0.282 C 
ATOM     23  O   UNL     1      -0.572  -0.397   1.555  0.00  0.00    -0.267 OA
ATOM     24  H   UNL     1       2.513  -0.269   1.618  0.00  0.00    +0.173 HD
BRANCH  22  25
ATOM     25  C   UNL     1       0.677   1.569   1.380  0.00  0.00    +0.166 A 
ATOM     26  C   UNL     1      -0.454   2.368   1.148  0.00  0.00    +0.147 A 
ATOM     27  N   UNL     1      -0.315   3.683   1.020  0.00  0.00    -0.237 NA
ATOM     28  C   UNL     1       0.884   4.230   1.101  0.00  0.00    +0.132 A 
ATOM     29  C   UNL     1       2.002   3.439   1.325  0.00  0.00    +0.131 A 
ATOM     30  N   UNL     1       1.878   2.134   1.459  0.00  0.00    -0.245 NA
ATOM     31  N   UNL     1      -1.707   1.790   1.058  0.00  0.00    -0.341 N 
ATOM     32  H   UNL     1      -1.793   0.853   0.823  0.00  0.00    +0.144 HD
ATOM     33  H   UNL     1      -2.500   2.322   1.231  0.00  0.00    +0.144 HD
ENDBRANCH  22  25
ENDBRANCH   3  21
TORSDOF 6
