REMARK  Name = ZINC07883832
REMARK  5 active torsions:
REMARK  status: ('A' for Active; 'I' for Inactive)
REMARK    1  A    between atoms: C_1  and  C_2
REMARK    2  A    between atoms: C_5  and  C_7
REMARK    3  A    between atoms: N_18  and  C_19
REMARK    4  A    between atoms: C_22  and  O_25
REMARK    5  A    between atoms: O_25  and  C_26
REMARK                            x       y       z     vdW  Elec       q    Type
REMARK                         _______ _______ _______ _____ _____    ______ ____
ROOT
ATOM      1  C   UNL     1       6.103   3.213   0.073  0.00  0.00    +0.204 C 
ATOM      2  N   UNL     1       7.134   3.962   0.801  0.00  0.00    -0.321 N 
ATOM      3  C   UNL     1       7.308   5.312   0.515  0.00  0.00    +0.041 A 
ATOM      4  C   UNL     1       8.533   5.938   0.673  0.00  0.00    +0.024 A 
ATOM      5  C   UNL     1       8.655   7.284   0.385  0.00  0.00    +0.002 A 
ATOM      6  C   UNL     1       7.563   8.011  -0.060  0.00  0.00    +0.001 A 
ATOM      7  C   UNL     1       6.337   7.402  -0.226  0.00  0.00    +0.015 A 
ATOM      8  C   UNL     1       6.200   6.045   0.057  0.00  0.00    +0.058 A 
ATOM      9  C   UNL     1       4.915   5.345  -0.123  0.00  0.00    +0.254 C 
ATOM     10  O   UNL     1       3.900   5.974  -0.357  0.00  0.00    -0.270 OA
ATOM     11  N   UNL     1       4.874   4.002  -0.022  0.00  0.00    -0.244 N 
ATOM     12  H   UNL     1       7.684   3.524   1.469  0.00  0.00    +0.148 HD
ENDROOT
BRANCH   1  17
ATOM     13  C   UNL     1       7.031   2.065  -5.397  0.00  0.00    +0.051 C 
ATOM     14  C   UNL     1       7.046   2.354  -3.918  0.00  0.00    -0.013 A 
ATOM     15  C   UNL     1       8.104   2.432  -3.074  0.00  0.00    +0.011 A 
ATOM     16  C   UNL     1       7.877   2.713  -1.739  0.00  0.00    +0.015 A 
ATOM     17  C   UNL     1       6.604   2.901  -1.314  0.00  0.00    +0.029 A 
ATOM     18  S   UNL     1       5.674   2.675  -2.821  0.00  0.00    -0.095 S 
ENDBRANCH   1  17
BRANCH  11  19
ATOM     19  C   UNL     1       3.635   3.349  -0.014  0.00  0.00    +0.039 A 
ATOM     20  C   UNL     1       3.206   2.689   1.129  0.00  0.00    +0.027 A 
ATOM     21  C   UNL     1       1.984   2.046   1.137  0.00  0.00    +0.047 A 
ATOM     22  C   UNL     1       1.185   2.059   0.002  0.00  0.00    +0.120 A 
ATOM     23  C   UNL     1       1.617   2.713  -1.142  0.00  0.00    +0.047 A 
ATOM     24  C   UNL     1       2.836   3.362  -1.149  0.00  0.00    +0.027 A 
BRANCH  22  25
ATOM     25  O   UNL     1      -0.018   1.425   0.011  0.00  0.00    -0.495 OA
ATOM     26  C   UNL     1      -0.787   1.479  -1.192  0.00  0.00    +0.277 C 
ENDBRANCH  22  25
ENDBRANCH  11  19
TORSDOF 3
