REMARK  Name = ZINC59789137
REMARK  9 active torsions:
REMARK  status: ('A' for Active; 'I' for Inactive)
REMARK    1  A    between atoms: C_2  and  C_3
REMARK    2  A    between atoms: C_3  and  N_4
REMARK    3  A    between atoms: C_5  and  C_15
REMARK    4  A    between atoms: C_8  and  S_9
REMARK    5  A    between atoms: S_9  and  C_10
REMARK    6  A    between atoms: C_10  and  C_11
REMARK    7  A    between atoms: C_11  and  O_12
REMARK    8  A    between atoms: O_12  and  C_13
REMARK    9  A    between atoms: C_19  and  N_21
REMARK                            x       y       z     vdW  Elec       q    Type
REMARK                         _______ _______ _______ _____ _____    ______ ____
ROOT
ATOM      1  N   UNL     1       1.834  -1.893   0.874  0.00  0.00    -0.298 N 
ATOM      2  C   UNL     1       1.843  -1.580   2.214  0.00  0.00    +0.165 A 
ATOM      3  N   UNL     1       1.357  -2.616   2.856  0.00  0.00    -0.128 NA
ATOM      4  N   UNL     1       1.048  -3.544   2.021  0.00  0.00    -0.122 NA
ATOM      5  C   UNL     1       1.314  -3.154   0.794  0.00  0.00    +0.192 A 
ENDROOT
BRANCH   2   6
ATOM      6  C   UNL     1       2.314  -0.314   2.817  0.00  0.00    +0.021 A 
ATOM      7  C   UNL     1       2.145   0.892   2.135  0.00  0.00    +0.012 A 
ATOM      8  C   UNL     1       2.587   2.069   2.703  0.00  0.00    +0.003 A 
ATOM      9  C   UNL     1       3.195   2.056   3.946  0.00  0.00    +0.033 A 
ATOM     10  C   UNL     1       3.365   0.864   4.627  0.00  0.00    +0.127 A 
ATOM     11  C   UNL     1       2.923  -0.320   4.072  0.00  0.00    +0.044 A 
BRANCH  10  12
ATOM     12  N   UNL     1       4.016   0.859   5.956  0.00  0.00    +0.056 N 
ATOM     13  O   UNL     1       4.399   1.896   6.445  0.00  0.00    -0.126 OA
ATOM     14  O   UNL     1       4.165  -0.182   6.552  0.00  0.00    -0.126 OA
ENDBRANCH  10  12
ENDBRANCH   2   6
BRANCH   1  15
ATOM     15  C   UNL     1       2.281  -1.048  -0.236  0.00  0.00    +0.152 C 
BRANCH  15  17
ATOM     16  C   UNL     1       1.122   0.972  -0.967  0.00  0.00    +0.005 C 
ATOM     17  C   UNL     1       1.097  -0.331  -0.831  0.00  0.00    -0.013 C 
ENDBRANCH  15  17
ENDBRANCH   1  15
BRANCH   5  18
ATOM     18  S   UNL     1       1.051  -4.084  -0.678  0.00  0.00    -0.083 S 
BRANCH  18  19
ATOM     19  C   UNL     1       0.347  -5.649  -0.089  0.00  0.00    +0.118 C 
BRANCH  19  20
ATOM     20  C   UNL     1       0.066  -6.564  -1.282  0.00  0.00    +0.239 C 
BRANCH  20  21
ATOM     21  O   UNL     1      -0.488  -7.796  -0.818  0.00  0.00    -0.499 OA
BRANCH  21  22
ATOM     22  C   UNL     1      -0.796  -8.726  -1.757  0.00  0.00    +0.179 C 
ATOM     23  C   UNL     1      -1.311  -9.883  -1.395  0.00  0.00    +0.049 C 
ENDBRANCH  21  22
ENDBRANCH  20  21
ENDBRANCH  19  20
ENDBRANCH  18  19
ENDBRANCH   5  18
TORSDOF 9
