REMARK  Name = ZINC35555769
REMARK  6 active torsions:
REMARK  status: ('A' for Active; 'I' for Inactive)
REMARK    1  A    between atoms: C_5  and  N_7
REMARK    2  A    between atoms: C_14  and  C_34
REMARK    3  A    between atoms: C_18  and  C_23
REMARK    4  A    between atoms: N_25  and  C_26
REMARK    5  A    between atoms: C_26  and  C_27
REMARK    6  A    between atoms: C_27  and  N_28
REMARK                            x       y       z     vdW  Elec       q    Type
REMARK                         _______ _______ _______ _____ _____    ______ ____
ROOT
ATOM      1  N   UNL     1       1.236  -2.079  -0.021  0.00  0.00    -0.324 N 
ATOM      2  C   UNL     1       1.254  -2.804   1.243  0.00  0.00    +0.124 C 
ATOM      3  C   UNL     1       2.387  -3.811   1.270  0.00  0.00    +0.124 C 
ATOM      4  N   UNL     1       2.613  -4.466  -0.007  0.00  0.00    -0.323 N 
ATOM      5  C   UNL     1       3.418  -5.624  -0.025  0.00  0.00    +0.033 A 
ATOM      6  C   UNL     1       3.580  -6.351   1.147  0.00  0.00    +0.024 A 
ATOM      7  C   UNL     1       4.374  -7.482   1.150  0.00  0.00    +0.014 A 
ATOM      8  C   UNL     1       5.003  -7.882  -0.015  0.00  0.00    +0.055 A 
ATOM      9  C   UNL     1       4.838  -7.160  -1.180  0.00  0.00    +0.017 A 
ATOM     10  C   UNL     1       4.038  -6.027  -1.196  0.00  0.00    -0.025 A 
ATOM     11  C   UNL     1       3.866  -5.287  -2.496  0.00  0.00    +0.051 C 
ATOM     12  C   UNL     1       3.304  -3.882  -2.257  0.00  0.00    +0.101 C 
ATOM     13  C   UNL     1       2.127  -3.997  -1.290  0.00  0.00    +0.103 C 
ATOM     14  C   UNL     1       1.235  -2.788  -1.291  0.00  0.00    +0.128 C 
ENDROOT
BRANCH   1  19
ATOM     15  C   UNL     1      -0.017   1.377   0.010  0.00  0.00    +0.002 A 
ATOM     16  C   UNL     1       1.170   2.087   0.002  0.00  0.00    +0.003 A 
ATOM     17  C   UNL     1       2.380   1.418  -0.013  0.00  0.00    +0.040 A 
ATOM     18  C   UNL     1       2.406   0.035  -0.021  0.00  0.00    +0.144 A 
ATOM     19  C   UNL     1       1.214  -0.681  -0.013  0.00  0.00    +0.065 A 
ATOM     20  C   UNL     1       0.002  -0.004   0.002  0.00  0.00    +0.026 A 
ATOM     21  F   UNL     1       3.588  -0.619  -0.036  0.00  0.00    -0.204 F 
ENDBRANCH   1  19
BRANCH  12  22
ATOM     22  C   UNL     1       4.372  -3.003  -1.657  0.00  0.00    +0.218 C 
ATOM     23  O   UNL     1       4.199  -2.496  -0.570  0.00  0.00    -0.275 OA
ATOM     24  N   UNL     1       5.518  -2.781  -2.330  0.00  0.00    -0.317 N 
ATOM     25  H   UNL     1       5.656  -3.188  -3.200  0.00  0.00    +0.149 HD
BRANCH  24  26
ATOM     26  C   UNL     1       6.556  -1.927  -1.748  0.00  0.00    +0.085 C 
BRANCH  26  27
ATOM     27  C   UNL     1       7.744  -1.841  -2.708  0.00  0.00    -0.060 C 
BRANCH  27  28
ATOM     28  N   UNL     1       8.784  -0.984  -2.124  0.00  0.00    +0.381 N 
ATOM     29  C   UNL     1       8.275   0.387  -2.000  0.00  0.00    -0.079 C 
ATOM     30  C   UNL     1       9.325   1.266  -1.318  0.00  0.00    -0.019 C 
ATOM     31  C   UNL     1      10.604   1.270  -2.160  0.00  0.00    -0.004 C 
ATOM     32  C   UNL     1      11.086  -0.172  -2.345  0.00  0.00    -0.019 C 
ATOM     33  C   UNL     1       9.970  -0.998  -2.989  0.00  0.00    -0.079 C 
ATOM     34  H   UNL     1       9.032  -1.333  -1.210  0.00  0.00    -0.082 HD
ENDBRANCH  27  28
ENDBRANCH  26  27
ENDBRANCH  24  26
ENDBRANCH  12  22
BRANCH   8  35
ATOM     35  C   UNL     1       5.874  -9.111  -0.012  0.00  0.00    +0.417 C 
ATOM     36  F   UNL     1       5.889  -9.669   1.271  0.00  0.00    -0.166 F 
ATOM     37  F   UNL     1       5.366 -10.046  -0.920  0.00  0.00    -0.166 F 
ATOM     38  F   UNL     1       7.177  -8.761  -0.383  0.00  0.00    -0.166 F 
ENDBRANCH   8  35
TORSDOF 6
