REMARK  Name = ZINC03624026
REMARK  6 active torsions:
REMARK  status: ('A' for Active; 'I' for Inactive)
REMARK    1  A    between atoms: C_4  and  N_7
REMARK    2  A    between atoms: N_7  and  C_8
REMARK    3  A    between atoms: C_8  and  C_10
REMARK    4  A    between atoms: N_24  and  C_26
REMARK    5  A    between atoms: C_26  and  N_28
REMARK    6  A    between atoms: N_28  and  C_29
REMARK                            x       y       z     vdW  Elec       q    Type
REMARK                         _______ _______ _______ _____ _____    ______ ____
ROOT
ATOM      1  C   UNL     1      -1.310   7.359  -0.180  0.00  0.00    +0.010 A 
ATOM      2  C   UNL     1      -2.531   8.060  -0.258  0.00  0.00    +0.032 A 
ATOM      3  C   UNL     1      -2.543   9.414  -0.371  0.00  0.00    +0.027 A 
ATOM      4  N   UNL     1      -1.387  10.109  -0.488  0.00  0.00    -0.312 N 
ATOM      5  C   UNL     1      -0.195   9.478  -0.350  0.00  0.00    +0.252 A 
ATOM      6  O   UNL     1       0.835  10.133  -0.345  0.00  0.00    -0.268 OA
ATOM      7  C   UNL     1      -0.129   8.083  -0.214  0.00  0.00    +0.080 A 
ATOM      8  C   UNL     1      -1.343  11.539  -0.798  0.00  0.00    +0.130 C 
ATOM      9  C   UNL     1      -2.654  12.240  -0.496  0.00  0.00    +0.027 C 
ATOM     10  C   UNL     1      -3.819  11.433  -1.070  0.00  0.00    +0.018 C 
ATOM     11  C   UNL     1      -3.892  10.096  -0.328  0.00  0.00    +0.054 C 
ATOM     12  C   UNL     1      -4.225  10.379   1.147  0.00  0.00    +0.116 C 
ATOM     13  N   UNL     1      -3.150  11.229   1.684  0.00  0.00    -0.312 N 
ATOM     14  C   UNL     1      -2.841  12.487   0.995  0.00  0.00    +0.112 C 
ENDROOT
BRANCH   1  15
ATOM     15  C   UNL     1      -1.290   5.884  -0.069  0.00  0.00    +0.084 C 
ATOM     16  S   UNL     1      -2.761   5.009  -0.028  0.00  0.00    -0.035 S 
BRANCH  15  17
ATOM     17  N   UNL     1      -0.114   5.229  -0.001  0.00  0.00    -0.308 N 
ATOM     18  H   UNL     1       0.827   5.794   0.066  0.00  0.00    +0.153 HD
BRANCH  17  22
ATOM     19  C   UNL     1      -0.045   1.065  -0.040  0.00  0.00    +0.000 A 
ATOM     20  C   UNL     1       0.789   1.761   0.816  0.00  0.00    +0.002 A 
ATOM     21  C   UNL     1       0.772   3.142   0.827  0.00  0.00    +0.023 A 
ATOM     22  C   UNL     1      -0.091   3.832  -0.014  0.00  0.00    +0.032 A 
ATOM     23  C   UNL     1      -0.931   3.129  -0.869  0.00  0.00    +0.023 A 
ATOM     24  C   UNL     1      -0.906   1.749  -0.879  0.00  0.00    +0.002 A 
ENDBRANCH  17  22
ENDBRANCH  15  17
ENDBRANCH   1  15
BRANCH  13  25
ATOM     25  C   UNL     1      -2.466  10.860   2.785  0.00  0.00    +0.137 C 
ATOM     26  S   UNL     1      -1.302  11.916   3.463  0.00  0.00    -0.018 S 
BRANCH  25  27
ATOM     27  N   UNL     1      -2.697   9.659   3.351  0.00  0.00    -0.297 N 
ATOM     28  H   UNL     1      -2.002   8.825   3.176  0.00  0.00    +0.154 HD
BRANCH  27  29
ATOM     29  C   UNL     1      -3.821   9.473   4.163  0.00  0.00    +0.033 A 
ATOM     30  C   UNL     1      -4.743  10.501   4.320  0.00  0.00    +0.023 A 
ATOM     31  C   UNL     1      -5.854  10.313   5.118  0.00  0.00    +0.002 A 
ATOM     32  C   UNL     1      -6.045   9.107   5.768  0.00  0.00    +0.000 A 
ATOM     33  C   UNL     1      -5.127   8.084   5.617  0.00  0.00    +0.002 A 
ATOM     34  C   UNL     1      -4.016   8.264   4.817  0.00  0.00    +0.023 A 
ENDBRANCH  27  29
ENDBRANCH  25  27
ENDBRANCH  13  25
TORSDOF 6
