REMARK  Name = ZINC36627206
REMARK  10 active torsions:
REMARK  status: ('A' for Active; 'I' for Inactive)
REMARK    1  A    between atoms: C_1  and  C_2
REMARK    2  A    between atoms: C_2  and  O_3
REMARK    3  A    between atoms: O_3  and  C_4
REMARK    4  A    between atoms: C_4  and  C_6
REMARK    5  A    between atoms: C_7  and  C_20
REMARK    6  A    between atoms: C_12  and  C_14
REMARK    7  A    between atoms: C_20  and  S_21
REMARK    8  A    between atoms: S_21  and  C_22
REMARK    9  A    between atoms: N_32  and  C_33
REMARK   10  A    between atoms: C_33  and  C_34
REMARK                            x       y       z     vdW  Elec       q    Type
REMARK                         _______ _______ _______ _____ _____    ______ ____
ROOT
ATOM      1  C   UNL     1       1.567  -2.363   2.371  0.00  0.00    +0.079 C 
ATOM      2  C   UNL     1       1.513  -3.685   2.645  0.00  0.00    +0.034 C 
ATOM      3  N   UNL     1       2.067  -4.192   3.786  0.00  0.00    -0.272 N 
ATOM      4  C   UNL     1       2.692  -3.443   4.704  0.00  0.00    +0.304 C 
ATOM      5  O   UNL     1       3.153  -3.986   5.689  0.00  0.00    -0.252 OA
ATOM      6  N   UNL     1       2.826  -2.109   4.571  0.00  0.00    -0.288 N 
ATOM      7  C   UNL     1       2.268  -1.465   3.370  0.00  0.00    +0.144 C 
ATOM      8  H   UNL     1       2.003  -5.147   3.940  0.00  0.00    +0.156 HD
ATOM      9  H   UNL     1       3.282  -1.586   5.248  0.00  0.00    +0.151 HD
ENDROOT
BRANCH   7  10
ATOM     10  C   UNL     1       1.283  -0.419   3.825  0.00  0.00    -0.023 A 
ATOM     11  C   UNL     1       0.345  -0.728   4.792  0.00  0.00    +0.006 A 
ATOM     12  C   UNL     1      -0.559   0.231   5.210  0.00  0.00    +0.000 A 
ATOM     13  C   UNL     1      -0.524   1.499   4.660  0.00  0.00    +0.000 A 
ATOM     14  C   UNL     1       0.414   1.808   3.693  0.00  0.00    +0.000 A 
ATOM     15  C   UNL     1       1.321   0.850   3.279  0.00  0.00    +0.006 A 
ENDBRANCH   7  10
BRANCH   1  16
ATOM     16  C   UNL     1       0.995  -1.837   1.190  0.00  0.00    +0.339 C 
ATOM     17  O   UNL     1       1.704  -1.569   0.237  0.00  0.00    -0.245 OA
BRANCH  16  18
ATOM     18  O   UNL     1      -0.337  -1.633   1.118  0.00  0.00    -0.462 OA
BRANCH  18  20
ATOM     19  C   UNL     1      -2.364  -0.938   0.001  0.00  0.00    +0.048 C 
ATOM     20  C   UNL     1      -0.846  -1.099  -0.106  0.00  0.00    +0.229 C 
ENDBRANCH  18  20
ENDBRANCH  16  18
ENDBRANCH   1  16
BRANCH   2  21
ATOM     21  C   UNL     1       0.830  -4.615   1.676  0.00  0.00    +0.128 C 
BRANCH  21  22
ATOM     22  S   UNL     1       2.081  -5.546   0.748  0.00  0.00    -0.082 S 
BRANCH  22  23
ATOM     23  C   UNL     1       1.136  -6.574  -0.327  0.00  0.00    +0.173 A 
ATOM     24  N   UNL     1      -0.171  -6.493  -0.280  0.00  0.00    -0.223 NA
ATOM     25  C   UNL     1      -0.955  -7.249  -1.074  0.00  0.00    +0.079 A 
ATOM     26  C   UNL     1      -2.349  -7.162  -1.024  0.00  0.00    +0.028 A 
ATOM     27  C   UNL     1      -3.106  -7.948  -1.848  0.00  0.00    +0.002 A 
ATOM     28  C   UNL     1      -2.510  -8.834  -2.735  0.00  0.00    +0.001 A 
ATOM     29  C   UNL     1      -1.148  -8.942  -2.807  0.00  0.00    +0.015 A 
ATOM     30  C   UNL     1      -0.352  -8.152  -1.979  0.00  0.00    +0.065 A 
ATOM     31  C   UNL     1       1.115  -8.226  -2.013  0.00  0.00    +0.263 A 
ATOM     32  O   UNL     1       1.692  -8.983  -2.771  0.00  0.00    -0.267 OA
ATOM     33  N   UNL     1       1.800  -7.414  -1.174  0.00  0.00    -0.283 N 
BRANCH  33  34
ATOM     34  C   UNL     1       3.265  -7.442  -1.171  0.00  0.00    +0.154 C 
BRANCH  34  35
ATOM     35  C   UNL     1       3.746  -8.469  -0.177  0.00  0.00    -0.013 C 
ATOM     36  C   UNL     1       4.561  -9.420  -0.561  0.00  0.00    +0.005 C 
ENDBRANCH  34  35
ENDBRANCH  33  34
ENDBRANCH  22  23
ENDBRANCH  21  22
ENDBRANCH   2  21
TORSDOF 9
