REMARK  Name = ZINC41176201
REMARK  5 active torsions:
REMARK  status: ('A' for Active; 'I' for Inactive)
REMARK    1  A    between atoms: C_1  and  C_2
REMARK    2  A    between atoms: C_6  and  N_8
REMARK    3  A    between atoms: C_10  and  C_15
REMARK    4  A    between atoms: C_15  and  N_16
REMARK    5  A    between atoms: C_17  and  C_19
REMARK                            x       y       z     vdW  Elec       q    Type
REMARK                         _______ _______ _______ _____ _____    ______ ____
ROOT
ATOM      1  N   UNL     1       0.051  -2.797   2.393  0.00  0.00    -0.234 N 
ATOM      2  C   UNL     1       0.078  -4.266   2.540  0.00  0.00    +0.163 C 
ATOM      3  C   UNL     1      -0.298  -4.453   4.029  0.00  0.00    +0.213 C 
ATOM      4  O   UNL     1       0.096  -3.189   4.599  0.00  0.00    -0.444 OA
ATOM      5  C   UNL     1       0.050  -2.262   3.628  0.00  0.00    +0.408 C 
ATOM      6  O   UNL     1       0.009  -1.066   3.842  0.00  0.00    -0.226 OA
ENDROOT
BRANCH   1  12
ATOM      7  C   UNL     1      -0.018   1.503   0.010  0.00  0.00    +0.044 C 
ATOM      8  C   UNL     1       0.002  -0.004   0.002  0.00  0.00    -0.049 A 
ATOM      9  C   UNL     1       0.006  -0.688  -1.200  0.00  0.00    +0.003 A 
ATOM     10  C   UNL     1       0.024  -2.071  -1.212  0.00  0.00    +0.002 A 
ATOM     11  C   UNL     1       0.040  -2.773  -0.022  0.00  0.00    +0.023 A 
ATOM     12  C   UNL     1       0.036  -2.089   1.186  0.00  0.00    +0.040 A 
ATOM     13  C   UNL     1       0.023  -0.700   1.194  0.00  0.00    +0.027 A 
ENDBRANCH   1  12
BRANCH   3  14
ATOM     14  C   UNL     1       0.493  -5.605   4.652  0.00  0.00    +0.150 C 
BRANCH  14  15
ATOM     15  N   UNL     1       0.029  -5.831   6.023  0.00  0.00    -0.308 N 
ATOM     16  C   UNL     1       0.587  -6.803   6.771  0.00  0.00    +0.247 C 
ATOM     17  O   UNL     1       1.475  -7.493   6.309  0.00  0.00    -0.270 OA
ATOM     18  H   UNL     1      -0.679  -5.281   6.392  0.00  0.00    +0.149 HD
BRANCH  16  19
ATOM     19  C   UNL     1       0.119  -7.032   8.153  0.00  0.00    +0.072 A 
ATOM     20  C   UNL     1      -0.905  -6.246   8.686  0.00  0.00    +0.016 A 
ATOM     21  C   UNL     1      -1.338  -6.464   9.977  0.00  0.00    +0.001 A 
ATOM     22  C   UNL     1      -0.760  -7.460  10.746  0.00  0.00    +0.003 A 
ATOM     23  C   UNL     1       0.254  -8.242  10.228  0.00  0.00    +0.039 A 
ATOM     24  C   UNL     1       0.695  -8.039   8.933  0.00  0.00    +0.135 A 
ATOM     25  F   UNL     1       1.683  -8.808   8.425  0.00  0.00    -0.205 F 
ENDBRANCH  16  19
ENDBRANCH  14  15
ENDBRANCH   3  14
TORSDOF 4
