REMARK  Name = ZINC05469154
REMARK  11 active torsions:
REMARK  status: ('A' for Active; 'I' for Inactive)
REMARK    1  A    between atoms: C_1  and  C_2
REMARK    2  A    between atoms: C_2  and  C_3
REMARK    3  A    between atoms: C_3  and  C_4
REMARK    4  A    between atoms: C_4  and  N_5
REMARK    5  A    between atoms: C_6  and  C_10
REMARK    6  A    between atoms: C_10  and  S_11
REMARK    7  A    between atoms: S_11  and  C_12
REMARK    8  A    between atoms: N_22  and  C_23
REMARK    9  A    between atoms: C_23  and  C_24
REMARK   10  A    between atoms: C_24  and  C_25
REMARK   11  A    between atoms: C_25  and  C_26
REMARK                            x       y       z     vdW  Elec       q    Type
REMARK                         _______ _______ _______ _____ _____    ______ ____
ROOT
ATOM      1  C   UNL     1       5.670  -0.874   0.188  0.00  0.00    +0.173 A 
ATOM      2  N   UNL     1       5.833  -1.951  -0.539  0.00  0.00    -0.223 NA
ATOM      3  C   UNL     1       6.714  -1.990  -1.559  0.00  0.00    +0.079 A 
ATOM      4  C   UNL     1       6.887  -3.139  -2.336  0.00  0.00    +0.028 A 
ATOM      5  C   UNL     1       7.790  -3.134  -3.360  0.00  0.00    +0.002 A 
ATOM      6  C   UNL     1       8.543  -2.001  -3.644  0.00  0.00    +0.001 A 
ATOM      7  C   UNL     1       8.396  -0.861  -2.903  0.00  0.00    +0.015 A 
ATOM      8  C   UNL     1       7.480  -0.839  -1.852  0.00  0.00    +0.065 A 
ATOM      9  C   UNL     1       7.280   0.357  -1.022  0.00  0.00    +0.262 A 
ATOM     10  O   UNL     1       7.910   1.379  -1.225  0.00  0.00    -0.267 OA
ATOM     11  N   UNL     1       6.365   0.283  -0.028  0.00  0.00    -0.287 N 
ENDROOT
BRANCH   1  12
ATOM     12  S   UNL     1       4.496  -0.915   1.501  0.00  0.00    -0.080 S 
BRANCH  12  13
ATOM     13  C   UNL     1       3.822  -2.598   1.433  0.00  0.00    +0.155 C 
BRANCH  13  15
ATOM     14  N   UNL     1       1.471  -2.526   2.420  0.00  0.00    -0.228 N 
ATOM     15  C   UNL     1       2.791  -2.770   2.519  0.00  0.00    +0.161 A 
ATOM     16  N   UNL     1       3.006  -3.187   3.743  0.00  0.00    -0.113 NA
ATOM     17  N   UNL     1       1.877  -3.199   4.363  0.00  0.00    -0.023 NA
ATOM     18  N   UNL     1       0.948  -2.795   3.568  0.00  0.00    -0.044 NA
BRANCH  14  19
ATOM     19  C   UNL     1       0.763  -2.041   1.233  0.00  0.00    +0.147 C 
BRANCH  19  20
ATOM     20  C   UNL     1       0.742  -0.511   1.242  0.00  0.00    +0.023 C 
BRANCH  20  22
ATOM     21  C   UNL     1      -0.019   1.526   0.010  0.00  0.00    +0.004 C 
ATOM     22  C   UNL     1       0.002  -0.004   0.002  0.00  0.00    -0.002 C 
ENDBRANCH  20  22
ENDBRANCH  19  20
ENDBRANCH  14  19
ENDBRANCH  13  15
ENDBRANCH  12  13
ENDBRANCH   1  12
BRANCH  11  23
ATOM     23  C   UNL     1       6.121   1.448   0.825  0.00  0.00    +0.127 C 
BRANCH  23  24
ATOM     24  C   UNL     1       7.064   1.405   2.029  0.00  0.00    +0.021 C 
BRANCH  24  25
ATOM     25  C   UNL     1       6.810   2.622   2.920  0.00  0.00    -0.002 C 
ATOM     26  C   UNL     1       7.753   2.579   4.123  0.00  0.00    +0.004 C 
ENDBRANCH  24  25
ENDBRANCH  23  24
ENDBRANCH  11  23
TORSDOF 9
