REMARK  Name = ZINC66600425
REMARK  7 active torsions:
REMARK  status: ('A' for Active; 'I' for Inactive)
REMARK    1  A    between atoms: C_1  and  C_2
REMARK    2  A    between atoms: C_2  and  N_3
REMARK    3  A    between atoms: N_3  and  C_4
REMARK    4  A    between atoms: C_4  and  C_5
REMARK    5  A    between atoms: N_19  and  C_20
REMARK    6  A    between atoms: C_20  and  C_21
REMARK    7  A    between atoms: C_21  and  C_26
REMARK                            x       y       z     vdW  Elec       q    Type
REMARK                         _______ _______ _______ _____ _____    ______ ____
ROOT
ATOM      1  N   UNL     1      -1.372  -0.511   0.012  0.00  0.00    -0.279 N 
ATOM      2  C   UNL     1      -1.993  -0.751   1.184  0.00  0.00    +0.303 C 
ATOM      3  O   UNL     1      -3.134  -1.171   1.193  0.00  0.00    -0.253 OA
ATOM      4  N   UNL     1      -1.350  -0.524   2.347  0.00  0.00    -0.299 N 
ATOM      5  H   UNL     1      -0.440  -0.188   2.340  0.00  0.00    +0.150 HD
ENDROOT
BRANCH   1   7
ATOM      6  C   UNL     1      -0.019   1.526   0.010  0.00  0.00    +0.024 C 
ATOM      7  C   UNL     1       0.002  -0.004   0.002  0.00  0.00    +0.106 C 
ENDBRANCH   1   7
BRANCH   1   8
ATOM      8  C   UNL     1      -2.072  -0.758  -1.251  0.00  0.00    +0.183 C 
BRANCH   8   9
ATOM      9  C   UNL     1      -1.820  -2.175  -1.696  0.00  0.00    +0.128 A 
ATOM     10  N   UNL     1      -2.384  -2.596  -2.858  0.00  0.00    -0.309 N 
ATOM     11  H   UNL     1      -2.932  -1.985  -3.375  0.00  0.00    +0.170 HD
ATOM     12  C   UNL     1      -2.188  -3.859  -3.302  0.00  0.00    +0.259 A 
ATOM     13  O   UNL     1      -2.686  -4.249  -4.342  0.00  0.00    -0.267 OA
ATOM     14  C   UNL     1      -1.348  -4.743  -2.479  0.00  0.00    +0.065 A 
ATOM     15  C   UNL     1      -1.085  -6.061  -2.846  0.00  0.00    +0.015 A 
ATOM     16  C   UNL     1      -0.292  -6.845  -2.037  0.00  0.00    +0.001 A 
ATOM     17  C   UNL     1       0.244  -6.333  -0.863  0.00  0.00    +0.002 A 
ATOM     18  C   UNL     1      -0.004  -5.033  -0.482  0.00  0.00    +0.028 A 
ATOM     19  C   UNL     1      -0.805  -4.218  -1.286  0.00  0.00    +0.078 A 
ATOM     20  N   UNL     1      -1.071  -2.931  -0.952  0.00  0.00    -0.232 NA
ENDBRANCH   8   9
ENDBRANCH   1   8
BRANCH   4  21
ATOM     21  C   UNL     1      -2.025  -0.784   3.620  0.00  0.00    +0.112 C 
BRANCH  21  22
ATOM     22  C   UNL     1      -1.081  -0.446   4.776  0.00  0.00    -0.016 C 
ATOM     23  C   UNL     1       0.159  -1.363   4.731  0.00  0.00    +0.008 C 
ATOM     24  C   UNL     1       0.473  -1.650   6.220  0.00  0.00    +0.001 C 
ATOM     25  C   UNL     1      -0.937  -1.786   6.847  0.00  0.00    +0.001 C 
ATOM     26  C   UNL     1      -1.778  -0.715   6.122  0.00  0.00    +0.008 C 
ATOM     27  C   UNL     1      -0.654   1.020   4.692  0.00  0.00    +0.013 C 
ENDBRANCH  21  22
ENDBRANCH   4  21
TORSDOF 5
