REMARK  Name = ZINC17175916
REMARK  6 active torsions:
REMARK  status: ('A' for Active; 'I' for Inactive)
REMARK    1  A    between atoms: C_4  and  C_7
REMARK    2  A    between atoms: C_8  and  C_9
REMARK    3  A    between atoms: C_10  and  C_25
REMARK    4  A    between atoms: C_11  and  C_19
REMARK    5  A    between atoms: C_13  and  C_17
REMARK    6  A    between atoms: C_14  and  N_16
REMARK                            x       y       z     vdW  Elec       q    Type
REMARK                         _______ _______ _______ _____ _____    ______ ____
ROOT
ATOM      1  C   UNL     1      -2.429   0.014   0.121  0.00  0.00    +0.144 C 
ATOM      2  C   UNL     1      -3.574  -0.688   0.334  0.00  0.00    +0.084 C 
ATOM      3  C   UNL     1      -4.910   0.002   0.370  0.00  0.00    +0.108 C 
ATOM      4  C   UNL     1      -4.721   1.485   0.531  0.00  0.00    +0.099 C 
ATOM      5  C   UNL     1      -3.519   2.067   0.302  0.00  0.00    +0.199 C 
ATOM      6  O   UNL     1      -2.446   1.349  -0.075  0.00  0.00    -0.440 OA
ENDROOT
BRANCH   3   7
ATOM      7  C   UNL     1      -5.641  -0.273  -0.919  0.00  0.00    -0.034 A 
ATOM      8  C   UNL     1      -5.096   0.133  -2.123  0.00  0.00    +0.004 A 
ATOM      9  C   UNL     1      -5.765  -0.122  -3.305  0.00  0.00    +0.000 A 
ATOM     10  C   UNL     1      -6.983  -0.775  -3.284  0.00  0.00    +0.000 A 
ATOM     11  C   UNL     1      -7.530  -1.177  -2.080  0.00  0.00    +0.000 A 
ATOM     12  C   UNL     1      -6.860  -0.925  -0.897  0.00  0.00    +0.004 A 
ENDBRANCH   3   7
BRANCH   5  13
ATOM     13  N   UNL     1      -3.393   3.424   0.460  0.00  0.00    -0.328 N 
ATOM     14  H   UNL     1      -2.523   3.844   0.375  0.00  0.00    +0.145 HD
ATOM     15  H   UNL     1      -4.175   3.964   0.657  0.00  0.00    +0.145 HD
ENDBRANCH   5  13
BRANCH   1  17
ATOM     16  C   UNL     1      -0.022  -0.037  -0.240  0.00  0.00    +0.011 C 
ATOM     17  C   UNL     1      -1.152  -0.694   0.098  0.00  0.00    +0.048 C 
BRANCH  16  21
ATOM     18  C   UNL     1      -0.257   3.757  -2.122  0.00  0.00    +0.000 A 
ATOM     19  C   UNL     1       0.615   3.566  -1.065  0.00  0.00    +0.001 A 
ATOM     20  C   UNL     1       0.698   2.335  -0.448  0.00  0.00    +0.008 A 
ATOM     21  C   UNL     1      -0.103   1.279  -0.893  0.00  0.00    -0.025 A 
ATOM     22  C   UNL     1      -0.978   1.478  -1.966  0.00  0.00    +0.008 A 
ATOM     23  C   UNL     1      -1.053   2.716  -2.568  0.00  0.00    +0.001 A 
ENDBRANCH  16  21
ENDBRANCH   1  17
BRANCH   4  24
ATOM     24  C   UNL     1      -5.831   2.296   0.932  0.00  0.00    +0.101 C 
ATOM     25  N   UNL     1      -6.712   2.940   1.250  0.00  0.00    -0.191 NA
ENDBRANCH   4  24
BRANCH   2  26
ATOM     26  C   UNL     1      -3.506  -2.105   0.532  0.00  0.00    +0.099 C 
ATOM     27  N   UNL     1      -3.452  -3.229   0.690  0.00  0.00    -0.191 NA
ENDBRANCH   2  26
TORSDOF 6
