REMARK  Name = ZINC38745414
REMARK  4 active torsions:
REMARK  status: ('A' for Active; 'I' for Inactive)
REMARK    1  A    between atoms: C_1  and  C_2
REMARK    2  A    between atoms: C_3  and  C_7
REMARK    3  A    between atoms: C_13  and  C_16
REMARK    4  A    between atoms: C_19  and  C_22
REMARK                            x       y       z     vdW  Elec       q    Type
REMARK                         _______ _______ _______ _____ _____    ______ ____
ROOT
ATOM      1  C   UNL     1      -2.510  -0.400   0.013  0.00  0.00    +0.185 A 
ATOM      2  N   UNL     1      -2.955   0.832   0.017  0.00  0.00    -0.127 NA
ATOM      3  N   UNL     1      -4.241   0.835   0.037  0.00  0.00    -0.120 NA
ATOM      4  C   UNL     1      -4.680  -0.385   0.064  0.00  0.00    +0.211 A 
ATOM      5  N   UNL     1      -3.613  -1.248   0.013  0.00  0.00    -0.220 N 
ATOM      6  N   UNL     1      -3.845  -2.590  -0.039  0.00  0.00    -0.265 N 
ATOM      7  C   UNL     1      -5.181  -3.016   0.456  0.00  0.00    +0.182 C 
ATOM      8  S   UNL     1      -6.104  -1.452   0.138  0.00  0.00    -0.058 S 
ATOM      9  H   UNL     1      -3.670  -2.951  -0.965  0.00  0.00    +0.168 HD
ENDROOT
BRANCH   1  12
ATOM     10  C   UNL     1      -0.018   1.503   0.010  0.00  0.00    +0.087 C 
ATOM     11  C   UNL     1       0.002  -0.004   0.002  0.00  0.00    +0.112 A 
ATOM     12  C   UNL     1      -1.091  -0.815   0.003  0.00  0.00    +0.061 A 
ATOM     13  C   UNL     1      -0.568  -2.187  -0.008  0.00  0.00    +0.053 A 
ATOM     14  C   UNL     1       0.770  -2.074  -0.014  0.00  0.00    +0.196 A 
ATOM     15  O   UNL     1       1.100  -0.773  -0.013  0.00  0.00    -0.467 OA
ENDBRANCH   1  12
BRANCH   7  16
ATOM     16  C   UNL     1      -5.148  -3.349   1.949  0.00  0.00    +0.185 C 
ATOM     17  C   UNL     1      -6.469  -3.951   2.393  0.00  0.00    +0.034 C 
ATOM     18  C   UNL     1      -6.134  -5.182   2.825  0.00  0.00    +0.091 C 
ATOM     19  N   UNL     1      -4.796  -5.382   2.694  0.00  0.00    -0.154 NA
ATOM     20  N   UNL     1      -4.177  -4.422   2.221  0.00  0.00    -0.177 NA
BRANCH  18  21
ATOM     21  C   UNL     1      -7.090  -6.178   3.368  0.00  0.00    +0.002 A 
ATOM     22  C   UNL     1      -8.447  -5.870   3.454  0.00  0.00    +0.010 A 
ATOM     23  C   UNL     1      -9.332  -6.801   3.960  0.00  0.00    +0.001 A 
ATOM     24  C   UNL     1      -8.874  -8.037   4.380  0.00  0.00    +0.000 A 
ATOM     25  C   UNL     1      -7.529  -8.348   4.297  0.00  0.00    +0.001 A 
ATOM     26  C   UNL     1      -6.636  -7.426   3.788  0.00  0.00    +0.010 A 
ENDBRANCH  18  21
ENDBRANCH   7  16
TORSDOF 3
