REMARK  Name = ZINC33804557
REMARK  3 active torsions:
REMARK  status: ('A' for Active; 'I' for Inactive)
REMARK    1  A    between atoms: C_4  and  N_7
REMARK    2  A    between atoms: N_9  and  C_20
REMARK    3  A    between atoms: C_11  and  C_13
REMARK                            x       y       z     vdW  Elec       q    Type
REMARK                         _______ _______ _______ _____ _____    ______ ____
ROOT
ATOM      1  N   UNL     1      -0.752   1.588  -1.169  0.00  0.00    -0.233 N 
ATOM      2  C   UNL     1      -0.013   1.086   0.008  0.00  0.00    +0.259 C 
ATOM      3  N   UNL     1      -0.727   1.573   1.200  0.00  0.00    -0.204 N 
ATOM      4  N   UNL     1      -2.131   1.593   1.190  0.00  0.00    -0.161 NA
ATOM      5  C   UNL     1      -2.805   1.520   0.082  0.00  0.00    +0.161 C 
ATOM      6  N   UNL     1      -2.152   1.392  -1.147  0.00  0.00    -0.245 N 
ATOM      7  H   UNL     1      -2.688   1.147  -2.076  0.00  0.00    +0.172 HD
ENDROOT
BRANCH   5   8
ATOM      8  C   UNL     1      -4.282   1.574   0.121  0.00  0.00    +0.018 A 
ATOM      9  C   UNL     1      -5.018   1.503  -1.063  0.00  0.00    +0.013 A 
ATOM     10  C   UNL     1      -6.396   1.549  -1.019  0.00  0.00    +0.021 A 
ATOM     11  C   UNL     1      -7.049   1.676   0.195  0.00  0.00    +0.041 A 
ATOM     12  C   UNL     1      -6.324   1.752   1.373  0.00  0.00    +0.021 A 
ATOM     13  C   UNL     1      -4.946   1.702   1.343  0.00  0.00    +0.013 A 
ATOM     14 CL   UNL     1      -8.783   1.741   0.241  0.00  0.00    -0.084 Cl
ENDBRANCH   5   8
BRANCH   1  18
ATOM     15  C   UNL     1       1.167   3.466  -4.351  0.00  0.00    +0.000 A 
ATOM     16  C   UNL     1      -0.205   3.296  -4.376  0.00  0.00    +0.002 A 
ATOM     17  C   UNL     1      -0.845   2.673  -3.322  0.00  0.00    +0.025 A 
ATOM     18  C   UNL     1      -0.109   2.217  -2.236  0.00  0.00    +0.049 A 
ATOM     19  C   UNL     1       1.269   2.394  -2.212  0.00  0.00    +0.025 A 
ATOM     20  C   UNL     1       1.903   3.013  -3.272  0.00  0.00    +0.002 A 
ENDBRANCH   1  18
BRANCH   3  21
ATOM     21  C   UNL     1      -0.019   2.009   2.318  0.00  0.00    +0.053 A 
ATOM     22  C   UNL     1       1.371   1.981   2.318  0.00  0.00    +0.025 A 
ATOM     23  C   UNL     1       2.068   2.418   3.427  0.00  0.00    +0.002 A 
ATOM     24  C   UNL     1       1.386   2.874   4.540  0.00  0.00    +0.000 A 
ATOM     25  C   UNL     1       0.003   2.899   4.546  0.00  0.00    +0.002 A 
ATOM     26  C   UNL     1      -0.702   2.468   3.440  0.00  0.00    +0.025 A 
ENDBRANCH   3  21
TORSDOF 3
