REMARK  Name = ZINC67381535
REMARK  9 active torsions:
REMARK  status: ('A' for Active; 'I' for Inactive)
REMARK    1  A    between atoms: C_1  and  C_2
REMARK    2  A    between atoms: C_2  and  C_3
REMARK    3  A    between atoms: C_3  and  C_5
REMARK    4  A    between atoms: C_3  and  N_15
REMARK    5  A    between atoms: N_18  and  C_19
REMARK    6  A    between atoms: C_19  and  C_21
REMARK    7  A    between atoms: C_19  and  C_31
REMARK    8  A    between atoms: C_31  and  C_32
REMARK    9  A    between atoms: C_31  and  C_33
REMARK                            x       y       z     vdW  Elec       q    Type
REMARK                         _______ _______ _______ _____ _____    ______ ____
ROOT
ATOM      1  N   UNL     1      -2.082  -0.162   1.273  0.00  0.00    -0.290 N 
ATOM      2  C   UNL     1      -2.664   1.047   1.400  0.00  0.00    +0.301 C 
ATOM      3  O   UNL     1      -2.651   1.829   0.469  0.00  0.00    -0.253 OA
ATOM      4  N   UNL     1      -3.260   1.389   2.559  0.00  0.00    -0.289 N 
ATOM      5  H   UNL     1      -2.092  -0.785   2.016  0.00  0.00    +0.151 HD
ATOM      6  H   UNL     1      -3.270   0.765   3.302  0.00  0.00    +0.151 HD
ENDROOT
BRANCH   1   7
ATOM      7  C   UNL     1      -1.433  -0.534   0.013  0.00  0.00    +0.140 C 
BRANCH   7   8
ATOM      8  C   UNL     1      -1.416  -2.035  -0.119  0.00  0.00    +0.129 A 
ATOM      9  N   UNL     1      -2.014  -2.900   0.743  0.00  0.00    -0.340 N 
ATOM     10  H   UNL     1      -2.518  -2.663   1.538  0.00  0.00    +0.167 HD
ATOM     11  C   UNL     1      -1.771  -4.177   0.279  0.00  0.00    +0.066 A 
ATOM     12  C   UNL     1      -2.115  -5.448   0.719  0.00  0.00    +0.028 A 
ATOM     13  C   UNL     1      -1.702  -6.553   0.006  0.00  0.00    +0.002 A 
ATOM     14  C   UNL     1      -0.947  -6.402  -1.149  0.00  0.00    +0.002 A 
ATOM     15  C   UNL     1      -0.599  -5.160  -1.597  0.00  0.00    +0.030 A 
ATOM     16  C   UNL     1      -1.007  -4.025  -0.890  0.00  0.00    +0.089 A 
ATOM     17  N   UNL     1      -0.831  -2.692  -1.078  0.00  0.00    -0.231 NA
ENDBRANCH   7   8
BRANCH   7  19
ATOM     18  C   UNL     1      -0.019   1.526   0.010  0.00  0.00    +0.006 C 
ATOM     19  C   UNL     1       0.002  -0.004   0.002  0.00  0.00    +0.027 C 
ENDBRANCH   7  19
ENDBRANCH   1   7
BRANCH   4  20
ATOM     20  C   UNL     1      -3.893   2.703   2.698  0.00  0.00    +0.143 C 
BRANCH  20  21
ATOM     21  C   UNL     1      -3.928   3.093   4.153  0.00  0.00    +0.129 A 
ATOM     22  N   UNL     1      -3.356   2.385   5.163  0.00  0.00    -0.340 N 
ATOM     23  H   UNL     1      -2.861   1.555   5.076  0.00  0.00    +0.167 HD
ATOM     24  C   UNL     1      -3.608   3.067   6.337  0.00  0.00    +0.066 A 
ATOM     25  C   UNL     1      -3.289   2.848   7.670  0.00  0.00    +0.028 A 
ATOM     26  C   UNL     1      -3.705   3.748   8.629  0.00  0.00    +0.002 A 
ATOM     27  C   UNL     1      -4.440   4.869   8.269  0.00  0.00    +0.002 A 
ATOM     28  C   UNL     1      -4.763   5.100   6.962  0.00  0.00    +0.030 A 
ATOM     29  C   UNL     1      -4.352   4.202   5.973  0.00  0.00    +0.089 A 
ATOM     30  N   UNL     1      -4.506   4.159   4.625  0.00  0.00    -0.231 NA
ENDBRANCH  20  21
BRANCH  20  31
ATOM     31  C   UNL     1      -5.321   2.642   2.151  0.00  0.00    +0.011 C 
ATOM     32  C   UNL     1      -5.982   4.014   2.296  0.00  0.00    +0.009 C 
ATOM     33  C   UNL     1      -5.285   2.246   0.674  0.00  0.00    +0.009 C 
ENDBRANCH  20  31
ENDBRANCH   4  20
TORSDOF 6
