REMARK  Name = ZINC10316673
REMARK  10 active torsions:
REMARK  status: ('A' for Active; 'I' for Inactive)
REMARK    1  A    between atoms: C_1  and  C_2
REMARK    2  A    between atoms: C_3  and  C_34
REMARK    3  A    between atoms: C_5  and  N_11
REMARK    4  A    between atoms: C_6  and  C_7
REMARK    5  A    between atoms: C_7  and  O_9
REMARK    6  A    between atoms: O_9  and  C_10
REMARK    7  A    between atoms: C_12  and  C_14
REMARK    8  A    between atoms: C_14  and  S_15
REMARK    9  A    between atoms: S_15  and  C_16
REMARK   10  A    between atoms: N_26  and  C_27
REMARK                            x       y       z     vdW  Elec       q    Type
REMARK                         _______ _______ _______ _____ _____    ______ ____
ROOT
ATOM      1  C   UNL     1       1.708   2.135  -0.003  0.00  0.00    +0.177 A 
ATOM      2  N   UNL     1       2.538   1.121  -0.011  0.00  0.00    -0.223 NA
ATOM      3  C   UNL     1       3.873   1.300  -0.027  0.00  0.00    +0.079 A 
ATOM      4  C   UNL     1       4.758   0.218  -0.040  0.00  0.00    +0.028 A 
ATOM      5  C   UNL     1       6.105   0.445  -0.051  0.00  0.00    +0.002 A 
ATOM      6  C   UNL     1       6.612   1.738  -0.049  0.00  0.00    +0.001 A 
ATOM      7  C   UNL     1       5.772   2.818  -0.036  0.00  0.00    +0.015 A 
ATOM      8  C   UNL     1       4.393   2.615  -0.025  0.00  0.00    +0.065 A 
ATOM      9  C   UNL     1       3.444   3.736  -0.010  0.00  0.00    +0.267 A 
ATOM     10  O   UNL     1       3.831   4.891  -0.007  0.00  0.00    -0.267 OA
ATOM     11  N   UNL     1       2.124   3.438   0.000  0.00  0.00    -0.253 N 
ENDROOT
BRANCH  11  12
ATOM     12  C   UNL     1       1.177   4.471   0.015  0.00  0.00    +0.087 A 
ATOM     13  C   UNL     1       0.714   4.974   1.223  0.00  0.00    +0.029 A 
ATOM     14  C   UNL     1      -0.216   5.995   1.234  0.00  0.00    +0.002 A 
ATOM     15  C   UNL     1      -0.695   6.511   0.044  0.00  0.00    +0.003 A 
ATOM     16  C   UNL     1      -0.240   6.011  -1.162  0.00  0.00    +0.040 A 
ATOM     17  C   UNL     1       0.695   4.991  -1.181  0.00  0.00    +0.147 A 
ATOM     18  F   UNL     1       1.138   4.502  -2.360  0.00  0.00    -0.203 F 
ENDBRANCH  11  12
BRANCH   1  19
ATOM     19  S   UNL     1      -0.022   1.806   0.012  0.00  0.00    -0.078 S 
BRANCH  19  20
ATOM     20  C   UNL     1       0.002  -0.004   0.002  0.00  0.00    +0.173 C 
BRANCH  20  22
ATOM     21  N   UNL     1      -1.640  -1.854   0.008  0.00  0.00    -0.279 N 
ATOM     22  C   UNL     1      -1.412  -0.526   0.013  0.00  0.00    +0.228 C 
ATOM     23  O   UNL     1      -2.344   0.250   0.026  0.00  0.00    -0.275 OA
ATOM     24  H   UNL     1      -0.894  -2.474  -0.003  0.00  0.00    +0.155 HD
BRANCH  21  29
ATOM     25  C   UNL     1      -5.388  -5.258   0.025  0.00  0.00    +0.045 C 
ATOM     26  C   UNL     1      -4.802  -3.870   0.027  0.00  0.00    -0.025 A 
ATOM     27  C   UNL     1      -5.587  -2.778   0.041  0.00  0.00    -0.008 A 
ATOM     28  S   UNL     1      -4.419  -1.433   0.044  0.00  0.00    -0.078 S 
ATOM     29  C   UNL     1      -2.940  -2.334   0.018  0.00  0.00    +0.086 A 
ATOM     30  C   UNL     1      -3.374  -3.655   0.015  0.00  0.00    +0.091 A 
ATOM     31  C   UNL     1      -7.092  -2.709   0.056  0.00  0.00    +0.052 C 
BRANCH  30  32
ATOM     32  C   UNL     1      -2.429  -4.774  -0.001  0.00  0.00    +0.342 C 
ATOM     33  O   UNL     1      -2.026  -5.245   1.046  0.00  0.00    -0.245 OA
BRANCH  32  34
ATOM     34  O   UNL     1      -2.005  -5.282  -1.176  0.00  0.00    -0.464 OA
ATOM     35  C   UNL     1      -1.069  -6.391  -1.115  0.00  0.00    +0.280 C 
ENDBRANCH  32  34
ENDBRANCH  30  32
ENDBRANCH  21  29
ENDBRANCH  20  22
ENDBRANCH  19  20
ENDBRANCH   1  19
TORSDOF 7
