REMARK  Name = ZINC15022103
REMARK  14 active torsions:
REMARK  status: ('A' for Active; 'I' for Inactive)
REMARK    1  A    between atoms: C_1  and  C_2
REMARK    2  A    between atoms: C_2  and  O_3
REMARK    3  A    between atoms: O_3  and  C_4
REMARK    4  A    between atoms: C_4  and  C_6
REMARK    5  A    between atoms: C_10  and  N_11
REMARK    6  A    between atoms: C_12  and  C_14
REMARK    7  A    between atoms: C_14  and  S_15
REMARK    8  A    between atoms: S_15  and  C_16
REMARK    9  A    between atoms: C_16  and  C_17
REMARK   10  A    between atoms: N_19  and  N_20
REMARK   11  A    between atoms: N_20  and  C_21
REMARK   12  A    between atoms: C_22  and  C_29
REMARK   13  A    between atoms: C_26  and  C_28
REMARK   14  A    between atoms: C_29  and  C_31
REMARK                            x       y       z     vdW  Elec       q    Type
REMARK                         _______ _______ _______ _____ _____    ______ ____
ROOT
ATOM      1  C   UNL     1       2.768  -4.553  -0.128  0.00  0.00    +0.165 C 
ENDROOT
BRANCH   1   3
ATOM      2  N   UNL     1       4.281  -6.510  -0.177  0.00  0.00    -0.279 N 
ATOM      3  C   UNL     1       4.143  -5.169  -0.169  0.00  0.00    +0.227 C 
ATOM      4  O   UNL     1       5.126  -4.459  -0.194  0.00  0.00    -0.275 OA
ATOM      5  H   UNL     1       3.495  -7.078  -0.157  0.00  0.00    +0.155 HD
BRANCH   2  10
ATOM      6  C   UNL     1       5.888  -8.422  -0.222  0.00  0.00    +0.091 A 
ATOM      7  C   UNL     1       7.302  -8.755  -0.269  0.00  0.00    -0.021 A 
ATOM      8  C   UNL     1       8.141  -7.697  -0.289  0.00  0.00    -0.004 A 
ATOM      9  S   UNL     1       7.082  -6.278  -0.254  0.00  0.00    -0.077 S 
ATOM     10  C   UNL     1       5.545  -7.077  -0.214  0.00  0.00    +0.086 A 
ATOM     11  C   UNL     1       9.637  -7.731  -0.330  0.00  0.00    +0.043 C 
ATOM     12  C   UNL     1      10.098  -9.151   0.031  0.00  0.00    +0.005 C 
ATOM     13  C   UNL     1       9.283 -10.157  -0.787  0.00  0.00    +0.005 C 
ATOM     14  C   UNL     1       7.837 -10.181  -0.290  0.00  0.00    +0.037 C 
BRANCH   6  15
ATOM     15  C   UNL     1       4.862  -9.467  -0.190  0.00  0.00    +0.342 C 
ATOM     16  O   UNL     1       4.405  -9.904  -1.229  0.00  0.00    -0.245 OA
BRANCH  15  17
ATOM     17  O   UNL     1       4.425  -9.947   0.993  0.00  0.00    -0.461 OA
BRANCH  17  19
ATOM     18  C   UNL     1       3.041 -11.396   2.376  0.00  0.00    +0.048 C 
ATOM     19  C   UNL     1       3.408 -10.982   0.950  0.00  0.00    +0.229 C 
ENDBRANCH  17  19
ENDBRANCH  15  17
ENDBRANCH   6  15
ENDBRANCH   2  10
ENDBRANCH   1   3
BRANCH   1  20
ATOM     20  S   UNL     1       2.916  -2.745  -0.127  0.00  0.00    -0.142 S 
BRANCH  20  21
ATOM     21  C   UNL     1       1.198  -2.164  -0.076  0.00  0.00    +0.166 C 
BRANCH  21  22
ATOM     22  C   UNL     1       1.177  -0.658  -0.071  0.00  0.00    +0.239 C 
ATOM     23  O   UNL     1       2.218  -0.036  -0.099  0.00  0.00    -0.273 OA
ATOM     24  N   UNL     1       0.001  -0.000  -0.036  0.00  0.00    -0.234 N 
ATOM     25  H   UNL     1      -0.832  -0.497  -0.014  0.00  0.00    +0.173 HD
BRANCH  24  26
ATOM     26  N   UNL     1      -0.019   1.401  -0.031  0.00  0.00    -0.234 N 
ATOM     27  H   UNL     1       0.814   1.897  -0.053  0.00  0.00    +0.173 HD
BRANCH  26  28
ATOM     28  C   UNL     1      -1.208   2.065  -0.001  0.00  0.00    +0.217 A 
ATOM     29  C   UNL     1      -1.226   3.458   0.138  0.00  0.00    +0.122 A 
ATOM     30  C   UNL     1      -2.537   4.127   0.160  0.00  0.00    +0.197 A 
ATOM     31  O   UNL     1      -2.627   5.339   0.274  0.00  0.00    -0.287 OA
ATOM     32  C   UNL     1      -3.695   3.309   0.048  0.00  0.00    +0.093 A 
ATOM     33  C   UNL     1      -3.555   1.980  -0.077  0.00  0.00    +0.108 A 
ATOM     34  O   UNL     1      -2.356   1.385  -0.100  0.00  0.00    -0.444 OA
ATOM     35  C   UNL     1      -4.792   1.127  -0.195  0.00  0.00    +0.086 C 
BRANCH  29  36
ATOM     36  C   UNL     1      -0.026   4.198   0.251  0.00  0.00    +0.169 C 
ATOM     37  O   UNL     1       0.495   4.348   1.337  0.00  0.00    -0.292 OA
ATOM     38  C   UNL     1       0.606   4.801  -0.978  0.00  0.00    +0.092 C 
ENDBRANCH  29  36
ENDBRANCH  26  28
ENDBRANCH  24  26
ENDBRANCH  21  22
ENDBRANCH  20  21
ENDBRANCH   1  20
TORSDOF 11
