REMARK  Name = ZINC06077577
REMARK  13 active torsions:
REMARK  status: ('A' for Active; 'I' for Inactive)
REMARK    1  A    between atoms: C_1  and  C_2
REMARK    2  A    between atoms: C_2  and  C_3
REMARK    3  A    between atoms: C_3  and  C_4
REMARK    4  A    between atoms: C_3  and  C_5
REMARK    5  A    between atoms: C_3  and  N_6
REMARK    6  A    between atoms: C_7  and  C_11
REMARK    7  A    between atoms: C_11  and  C_13
REMARK    8  A    between atoms: C_11  and  N_73
REMARK    9  A    between atoms: C_17  and  O_25
REMARK   10  A    between atoms: O_25  and  C_26
REMARK   11  A    between atoms: C_26  and  C_27
REMARK   12  A    between atoms: N_30  and  C_33
REMARK   13  A    between atoms: C_36  and  O_39
REMARK                            x       y       z     vdW  Elec       q    Type
REMARK                         _______ _______ _______ _____ _____    ______ ____
ROOT
ATOM      1  C   UNL     1       2.230   0.942   0.122  0.00  0.00    +0.039 C 
ENDROOT
BRANCH   1   2
ATOM      2  C   UNL     1       1.073   1.871   0.383  0.00  0.00    +0.011 A 
ATOM      3  C   UNL     1      -0.150   1.363   0.674  0.00  0.00    +0.017 A 
ATOM      4  C   UNL     1      -1.255   2.292   0.917  0.00  0.00    +0.002 A 
ATOM      5  C   UNL     1      -2.539   1.825   1.216  0.00  0.00    +0.055 A 
ATOM      6  C   UNL     1      -3.558   2.729   1.439  0.00  0.00    +0.121 A 
ATOM      7  C   UNL     1      -3.312   4.098   1.367  0.00  0.00    +0.047 A 
ATOM      8  C   UNL     1      -2.049   4.571   1.085  0.00  0.00    +0.030 A 
ATOM      9  C   UNL     1      -1.009   3.677   0.852  0.00  0.00    +0.049 A 
ATOM     10  N   UNL     1       0.259   4.130   0.550  0.00  0.00    -0.322 N 
ATOM     11  H   UNL     1       0.432   5.114   0.500  0.00  0.00    +0.169 HD
ATOM     12  C   UNL     1       1.266   3.268   0.323  0.00  0.00    +0.251 A 
ATOM     13  O   UNL     1       2.373   3.704   0.059  0.00  0.00    -0.268 OA
BRANCH   6  14
ATOM     14  O   UNL     1      -4.808   2.281   1.730  0.00  0.00    -0.492 OA
BRANCH  14  15
ATOM     15  C   UNL     1      -5.816   3.269   1.950  0.00  0.00    +0.225 C 
ATOM     16  C   UNL     1      -7.146   2.580   2.262  0.00  0.00    +0.048 C 
ENDBRANCH  14  15
ENDBRANCH   6  14
ENDBRANCH   1   2
BRANCH   1  22
ATOM     17  C   UNL     1       1.837   1.092  -2.263  0.00  0.00    -0.058 C 
ATOM     18  C   UNL     1       2.470   1.502  -3.595  0.00  0.00    +0.086 C 
ATOM     19  N   UNL     1       3.659   0.674  -3.845  0.00  0.00    -0.333 N 
ATOM     20  C   UNL     1       4.645   0.836  -2.767  0.00  0.00    +0.086 C 
ATOM     21  C   UNL     1       4.012   0.427  -1.435  0.00  0.00    -0.058 C 
ATOM     22  N   UNL     1       2.831   1.280  -1.186  0.00  0.00    +0.391 N 
ATOM     23  H   UNL     1       3.127   2.264  -1.173  0.00  0.00    -0.080 HD
BRANCH  19  24
ATOM     24  C   UNL     1       4.224   0.971  -5.090  0.00  0.00    +0.030 A 
ATOM     25  C   UNL     1       5.553   1.364  -5.174  0.00  0.00    +0.026 A 
ATOM     26  C   UNL     1       6.112   1.651  -6.404  0.00  0.00    +0.047 A 
ATOM     27  C   UNL     1       5.342   1.559  -7.554  0.00  0.00    +0.117 A 
ATOM     28  C   UNL     1       4.012   1.172  -7.471  0.00  0.00    +0.047 A 
ATOM     29  C   UNL     1       3.454   0.879  -6.242  0.00  0.00    +0.026 A 
BRANCH  27  30
ATOM     30  O   UNL     1       5.891   1.848  -8.765  0.00  0.00    -0.507 OA
ATOM     31  H   UNL     1       5.810   2.777  -9.022  0.00  0.00    +0.292 HD
ENDBRANCH  27  30
ENDBRANCH  19  24
ENDBRANCH   1  22
BRANCH   1  33
ATOM     32  N   UNL     1       3.590   0.230   2.159  0.00  0.00    -0.225 N 
ATOM     33  C   UNL     1       3.269   1.118   1.199  0.00  0.00    +0.143 A 
ATOM     34  N   UNL     1       4.039   2.163   1.381  0.00  0.00    -0.115 NA
ATOM     35  N   UNL     1       4.788   1.932   2.403  0.00  0.00    -0.023 NA
ATOM     36  N   UNL     1       4.521   0.763   2.874  0.00  0.00    -0.043 NA
BRANCH  32  37
ATOM     37  C   UNL     1       2.993  -1.094   2.353  0.00  0.00    +0.061 C 
ATOM     38  C   UNL     1       1.481  -0.951   2.536  0.00  0.00    +0.036 C 
ATOM     39  C   UNL     1       3.278  -1.967   1.130  0.00  0.00    +0.036 C 
BRANCH  37  41
ATOM     40  C   UNL     1       2.975  -3.130   3.802  0.00  0.00    +0.006 C 
ATOM     41  C   UNL     1       3.598  -1.747   3.598  0.00  0.00    +0.026 C 
ENDBRANCH  37  41
ENDBRANCH  32  37
ENDBRANCH   1  33
TORSDOF 9
