REMARK  Name = ZINC36584313
REMARK  13 active torsions:
REMARK  status: ('A' for Active; 'I' for Inactive)
REMARK    1  A    between atoms: C_1  and  C_2
REMARK    2  A    between atoms: C_2  and  C_3
REMARK    3  A    between atoms: C_2  and  C_4
REMARK    4  A    between atoms: C_2  and  N_5
REMARK    5  A    between atoms: C_6  and  C_8
REMARK    6  A    between atoms: C_8  and  C_10
REMARK    7  A    between atoms: C_8  and  N_19
REMARK    8  A    between atoms: N_19  and  C_29
REMARK    9  A    between atoms: C_20  and  C_22
REMARK   10  A    between atoms: C_27  and  O_28
REMARK   11  A    between atoms: C_29  and  C_30
REMARK   12  A    between atoms: C_29  and  C_31
REMARK   13  A    between atoms: C_29  and  C_32
REMARK                            x       y       z     vdW  Elec       q    Type
REMARK                         _______ _______ _______ _____ _____    ______ ____
ROOT
ATOM      1  C   UNL     1       6.850  -0.329  -0.179  0.00  0.00    +0.193 C 
ENDROOT
BRANCH   1   2
ATOM      2  C   UNL     1       7.991  -0.010   0.752  0.00  0.00    -0.014 A 
ATOM      3  C   UNL     1       8.522   1.266   0.781  0.00  0.00    +0.010 A 
ATOM      4  C   UNL     1       9.569   1.564   1.633  0.00  0.00    +0.050 A 
ATOM      5  C   UNL     1      10.089   0.582   2.461  0.00  0.00    +0.166 A 
ATOM      6  C   UNL     1       9.555  -0.704   2.431  0.00  0.00    +0.167 A 
ATOM      7  C   UNL     1       8.502  -0.993   1.579  0.00  0.00    +0.055 A 
ATOM      8  O   UNL     1      10.233  -1.478   3.328  0.00  0.00    -0.453 OA
ATOM      9  C   UNL     1      11.451  -0.764   3.610  0.00  0.00    +0.466 C 
ATOM     10  O   UNL     1      11.102   0.614   3.376  0.00  0.00    -0.453 OA
ENDBRANCH   1   2
BRANCH   1  12
ATOM     11  N   UNL     1       5.633  -1.811   1.384  0.00  0.00    -0.309 N 
ATOM     12  C   UNL     1       5.631  -0.695   0.628  0.00  0.00    +0.239 C 
ATOM     13  O   UNL     1       4.648   0.015   0.598  0.00  0.00    -0.273 OA
ATOM     14  H   UNL     1       6.419  -2.379   1.408  0.00  0.00    +0.149 HD
BRANCH  11  16
ATOM     15  C   UNL     1       3.254  -2.357   1.231  0.00  0.00    +0.031 C 
ATOM     16  C   UNL     1       4.448  -2.166   2.168  0.00  0.00    +0.026 C 
ATOM     17  C   UNL     1       4.141  -1.046   3.164  0.00  0.00    +0.031 C 
ATOM     18  C   UNL     1       4.712  -3.467   2.929  0.00  0.00    +0.031 C 
ENDBRANCH  11  16
ENDBRANCH   1  12
BRANCH   1  19
ATOM     19  N   UNL     1       6.553   0.842  -1.008  0.00  0.00    -0.277 N 
ATOM     20  C   UNL     1       6.384   2.049  -0.432  0.00  0.00    +0.251 C 
ATOM     21  O   UNL     1       6.093   2.126   0.746  0.00  0.00    -0.270 OA
BRANCH  20  22
ATOM     22  C   UNL     1       6.551   3.278  -1.232  0.00  0.00    +0.078 A 
ATOM     23  C   UNL     1       5.802   3.465  -2.397  0.00  0.00    +0.017 A 
ATOM     24  C   UNL     1       5.962   4.614  -3.139  0.00  0.00    +0.001 A 
ATOM     25  C   UNL     1       6.863   5.587  -2.736  0.00  0.00    +0.004 A 
ATOM     26  C   UNL     1       7.609   5.415  -1.587  0.00  0.00    +0.046 A 
ATOM     27  C   UNL     1       7.456   4.266  -0.825  0.00  0.00    +0.129 A 
BRANCH  27  28
ATOM     28  O   UNL     1       8.185   4.098   0.307  0.00  0.00    -0.506 OA
ATOM     29  H   UNL     1       9.034   3.658   0.167  0.00  0.00    +0.292 HD
ENDBRANCH  27  28
ENDBRANCH  20  22
BRANCH  19  30
ATOM     30  C   UNL     1       6.442   0.702  -2.462  0.00  0.00    +0.030 C 
ATOM     31  C   UNL     1       7.104  -0.606  -2.900  0.00  0.00    +0.031 C 
ATOM     32  C   UNL     1       4.965   0.684  -2.860  0.00  0.00    +0.031 C 
ATOM     33  C   UNL     1       7.140   1.880  -3.143  0.00  0.00    +0.031 C 
ENDBRANCH  19  30
ENDBRANCH   1  19
TORSDOF 7
