REMARK  Name = ZINC48820255
REMARK  4 active torsions:
REMARK  status: ('A' for Active; 'I' for Inactive)
REMARK    1  A    between atoms: C_1  and  C_2
REMARK    2  A    between atoms: C_11  and  N_13
REMARK    3  A    between atoms: N_13  and  C_14
REMARK    4  A    between atoms: C_14  and  C_15
REMARK                            x       y       z     vdW  Elec       q    Type
REMARK                         _______ _______ _______ _____ _____    ______ ____
ROOT
ATOM      1  C   UNL     1      -0.018   1.503   0.010  0.00  0.00    +0.045 C 
ATOM      2  C   UNL     1       0.002  -0.004   0.002  0.00  0.00    -0.029 A 
ATOM      3  C   UNL     1       0.006  -0.686  -1.198  0.00  0.00    +0.005 A 
ATOM      4  C   UNL     1       0.024  -2.068  -1.216  0.00  0.00    +0.001 A 
ATOM      5  C   UNL     1       0.039  -2.773  -0.024  0.00  0.00    +0.004 A 
ATOM      6  C   UNL     1       0.036  -2.095   1.174  0.00  0.00    -0.031 A 
ATOM      7  C   UNL     1       0.023  -0.706   1.206  0.00  0.00    +0.038 A 
ATOM      8  N   UNL     1       0.029  -0.253   2.525  0.00  0.00    -0.286 N 
ATOM      9  C   UNL     1       0.052  -1.264   3.410  0.00  0.00    +0.208 C 
ATOM     10  O   UNL     1       0.062  -1.164   4.619  0.00  0.00    -0.277 OA
ATOM     11  C   UNL     1       0.049  -2.553   2.614  0.00  0.00    +0.049 C 
ATOM     12  H   UNL     1       0.019   0.684   2.776  0.00  0.00    +0.155 HD
ENDROOT
BRANCH  11  13
ATOM     13  N   UNL     1       1.268  -3.321   2.899  0.00  0.00    +0.392 N 
ATOM     14  H   UNL     1       1.345  -4.084   2.244  0.00  0.00    -0.084 HD
ATOM     15  H   UNL     1       2.073  -2.719   2.812  0.00  0.00    -0.084 HD
BRANCH  13  16
ATOM     16  C   UNL     1       1.201  -3.855   4.266  0.00  0.00    -0.044 C 
BRANCH  16  17
ATOM     17  C   UNL     1       2.452  -4.644   4.559  0.00  0.00    -0.050 A 
ATOM     18  C   UNL     1       2.436  -6.023   4.471  0.00  0.00    +0.003 A 
ATOM     19  C   UNL     1       3.583  -6.746   4.739  0.00  0.00    +0.000 A 
ATOM     20  C   UNL     1       4.747  -6.090   5.094  0.00  0.00    +0.001 A 
ATOM     21  C   UNL     1       4.764  -4.711   5.182  0.00  0.00    +0.015 A 
ATOM     22  C   UNL     1       3.618  -3.987   4.909  0.00  0.00    +0.019 A 
ATOM     23 BR   UNL     1       3.642  -2.099   5.022  0.00  0.00    -0.050 Br
ENDBRANCH  16  17
ENDBRANCH  13  16
ENDBRANCH  11  13
TORSDOF 3
