REMARK  Name = ZINC05316502
REMARK  5 active torsions:
REMARK  status: ('A' for Active; 'I' for Inactive)
REMARK    1  A    between atoms: C_1  and  N_2
REMARK    2  A    between atoms: C_3  and  C_20
REMARK    3  A    between atoms: C_6  and  S_7
REMARK    4  A    between atoms: S_7  and  C_8
REMARK    5  A    between atoms: C_8  and  C_9
REMARK                            x       y       z     vdW  Elec       q    Type
REMARK                         _______ _______ _______ _____ _____    ______ ____
ROOT
ATOM      1  S   UNL     1       3.025  -2.203   5.324  0.00  0.00    -0.081 S 
ENDROOT
BRANCH   1   7
ATOM      2  C   UNL     1       3.469  -2.778   8.547  0.00  0.00    +0.153 C 
ATOM      3  N   UNL     1       4.317  -3.373   7.511  0.00  0.00    -0.305 N 
ATOM      4  C   UNL     1       5.381  -4.226   7.695  0.00  0.00    +0.165 A 
ATOM      5  N   UNL     1       5.858  -4.510   6.505  0.00  0.00    -0.128 NA
ATOM      6  N   UNL     1       5.172  -3.905   5.602  0.00  0.00    -0.122 NA
ATOM      7  C   UNL     1       4.214  -3.198   6.161  0.00  0.00    +0.192 A 
BRANCH   4   8
ATOM      8  C   UNL     1       5.894  -4.723   8.989  0.00  0.00    +0.022 A 
ATOM      9  C   UNL     1       7.177  -5.276   9.089  0.00  0.00    +0.031 A 
ATOM     10  C   UNL     1       7.617  -5.724  10.317  0.00  0.00    +0.111 A 
ATOM     11  N   UNL     1       6.844  -5.645  11.384  0.00  0.00    -0.263 NA
ATOM     12  C   UNL     1       5.628  -5.135  11.332  0.00  0.00    +0.111 A 
ATOM     13  C   UNL     1       5.110  -4.659  10.147  0.00  0.00    +0.031 A 
ENDBRANCH   4   8
ENDBRANCH   1   7
BRANCH   1  14
ATOM     14  C   UNL     1       3.537  -2.476   3.610  0.00  0.00    +0.112 C 
BRANCH  14  15
ATOM     15  C   UNL     1       2.635  -1.700   2.686  0.00  0.00    -0.032 A 
ATOM     16  C   UNL     1       2.959  -0.403   2.333  0.00  0.00    +0.054 A 
ATOM     17  C   UNL     1       2.131   0.314   1.482  0.00  0.00    +0.164 A 
ATOM     18  C   UNL     1       0.976  -0.276   0.983  0.00  0.00    +0.180 A 
ATOM     19  C   UNL     1       0.655  -1.577   1.342  0.00  0.00    +0.086 A 
ATOM     20  C   UNL     1       1.485  -2.286   2.192  0.00  0.00    +0.028 A 
ATOM     21 CL   UNL     1      -0.789  -2.317   0.723  0.00  0.00    -0.080 Cl
ATOM     22  O   UNL     1       0.152   0.408   0.143  0.00  0.00    -0.483 OA
ATOM     23  C   UNL     1       0.308   1.831   0.105  0.00  0.00    +0.270 C 
ATOM     24  C   UNL     1       1.807   2.147   0.003  0.00  0.00    +0.270 C 
ATOM     25  O   UNL     1       2.461   1.591   1.149  0.00  0.00    -0.485 OA
ENDBRANCH  14  15
ENDBRANCH   1  14
TORSDOF 4
