REMARK  Name = ZINC08790623
REMARK  7 active torsions:
REMARK  status: ('A' for Active; 'I' for Inactive)
REMARK    1  A    between atoms: C_1  and  C_2
REMARK    2  A    between atoms: C_2  and  C_3
REMARK    3  A    between atoms: C_17  and  C_19
REMARK    4  A    between atoms: C_19  and  C_21
REMARK    5  A    between atoms: C_19  and  O_22
REMARK    6  A    between atoms: N_25  and  C_28
REMARK    7  A    between atoms: C_28  and  C_29
REMARK                            x       y       z     vdW  Elec       q    Type
REMARK                         _______ _______ _______ _____ _____    ______ ____
ROOT
ATOM      1  C   UNL     1      -0.540   3.205   1.361  0.00  0.00    -0.026 A 
ATOM      2  C   UNL     1       0.320   3.967   2.126  0.00  0.00    +0.005 A 
ATOM      3  C   UNL     1       0.201   5.344   2.147  0.00  0.00    +0.001 A 
ATOM      4  C   UNL     1      -0.791   5.961   1.405  0.00  0.00    +0.004 A 
ATOM      5  C   UNL     1      -1.654   5.205   0.645  0.00  0.00    -0.027 A 
ATOM      6  C   UNL     1      -1.541   3.817   0.612  0.00  0.00    +0.039 A 
ATOM      7  N   UNL     1      -2.518   3.273  -0.224  0.00  0.00    -0.286 N 
ATOM      8  C   UNL     1      -3.305   4.221  -0.770  0.00  0.00    +0.211 C 
ATOM      9  O   UNL     1      -4.231   4.042  -1.532  0.00  0.00    -0.277 OA
ATOM     10  C   UNL     1      -2.812   5.543  -0.251  0.00  0.00    +0.050 C 
ATOM     11  C   UNL     1      -3.912   6.292   0.511  0.00  0.00    +0.088 C 
ATOM     12  C   UNL     1      -3.667   7.790   0.179  0.00  0.00    +0.075 C 
ATOM     13  C   UNL     1      -2.432   7.795  -0.747  0.00  0.00    -0.028 C 
ATOM     14  C   UNL     1      -4.909   8.160  -0.629  0.00  0.00    +0.224 C 
ATOM     15  O   UNL     1      -5.132   9.252  -1.107  0.00  0.00    -0.275 OA
ATOM     16  N   UNL     1      -5.716   7.097  -0.722  0.00  0.00    -0.237 N 
ATOM     17  C   UNL     1      -5.255   5.996  -0.116  0.00  0.00    +0.225 C 
ATOM     18  O   UNL     1      -5.827   4.928  -0.077  0.00  0.00    -0.275 OA
ATOM     19  H   UNL     1      -2.619   2.323  -0.393  0.00  0.00    +0.155 HD
ATOM     20  N   UNL     1      -2.411   6.445  -1.317  0.00  0.00    +0.396 N 
ATOM     21  H   UNL     1      -3.069   6.381  -2.102  0.00  0.00    -0.083 HD
ATOM     22  H   UNL     1      -1.466   6.212  -1.643  0.00  0.00    -0.083 HD
ENDROOT
BRANCH   1  24
ATOM     23  C   UNL     1       0.449   1.287   0.139  0.00  0.00    +0.009 C 
ATOM     24  C   UNL     1      -0.399   1.705   1.342  0.00  0.00    +0.033 C 
ENDBRANCH   1  24
BRANCH  13  25
ATOM     25  C   UNL     1      -2.587   8.858  -1.836  0.00  0.00    +0.098 C 
ATOM     26  C   UNL     1      -2.568  10.248  -1.198  0.00  0.00    +0.036 C 
BRANCH  25  27
ATOM     27  O   UNL     1      -1.509   8.747  -2.767  0.00  0.00    -0.394 OA
ATOM     28  H   UNL     1      -0.634   8.868  -2.373  0.00  0.00    +0.210 HD
ENDBRANCH  25  27
ENDBRANCH  13  25
BRANCH  16  29
ATOM     29  C   UNL     1      -6.998   7.134  -1.430  0.00  0.00    +0.151 C 
BRANCH  29  30
ATOM     30  C   UNL     1      -8.089   7.536  -0.471  0.00  0.00    -0.026 A 
ATOM     31  C   UNL     1      -8.404   8.872  -0.305  0.00  0.00    +0.009 A 
ATOM     32  C   UNL     1      -9.405   9.245   0.572  0.00  0.00    +0.050 A 
ATOM     33  C   UNL     1     -10.095   8.281   1.288  0.00  0.00    +0.166 A 
ATOM     34  C   UNL     1      -9.777   6.935   1.121  0.00  0.00    +0.167 A 
ATOM     35  C   UNL     1      -8.777   6.567   0.236  0.00  0.00    +0.054 A 
ATOM     36  O   UNL     1     -10.589   6.192   1.928  0.00  0.00    -0.453 OA
ATOM     37  C   UNL     1     -11.126   7.118   2.892  0.00  0.00    +0.466 C 
ATOM     38  O   UNL     1     -11.106   8.380   2.200  0.00  0.00    -0.453 OA
ENDBRANCH  29  30
ENDBRANCH  16  29
TORSDOF 5
