REMARK  Name = ZINC39449237
REMARK  5 active torsions:
REMARK  status: ('A' for Active; 'I' for Inactive)
REMARK    1  A    between atoms: C_4  and  C_7
REMARK    2  A    between atoms: C_7  and  C_8
REMARK    3  A    between atoms: C_18  and  O_21
REMARK    4  A    between atoms: N_24  and  S_25
REMARK    5  A    between atoms: S_25  and  C_28
REMARK                            x       y       z     vdW  Elec       q    Type
REMARK                         _______ _______ _______ _____ _____    ______ ____
ROOT
ATOM      1  C   UNL     1       3.576  -0.922   0.301  0.00  0.00    +0.082 C 
ATOM      2  C   UNL     1       5.045  -1.358   0.255  0.00  0.00    +0.103 C 
ATOM      3  C   UNL     1       5.118  -2.854   0.100  0.00  0.00    +0.185 C 
ATOM      4  O   UNL     1       6.062  -3.354  -0.478  0.00  0.00    -0.290 OA
ATOM      5  C   UNL     1       4.099  -3.682   0.621  0.00  0.00    +0.134 A 
ATOM      6  C   UNL     1       2.994  -3.113   1.228  0.00  0.00    +0.083 A 
ATOM      7  C   UNL     1       1.938  -3.974   1.776  0.00  0.00    +0.099 A 
ATOM      8  C   UNL     1       2.087  -5.373   1.652  0.00  0.00    +0.072 A 
ATOM      9  C   UNL     1       1.099  -6.212   2.164  0.00  0.00    +0.062 A 
ATOM     10  C   UNL     1      -0.000  -5.625   2.779  0.00  0.00    +0.136 A 
ATOM     11  C   UNL     1      -0.077  -4.236   2.864  0.00  0.00    +0.156 A 
ATOM     12  N   UNL     1       0.868  -3.465   2.374  0.00  0.00    -0.249 NA
ATOM     13  C   UNL     1       3.285  -5.904   0.986  0.00  0.00    +0.281 A 
ATOM     14  O   UNL     1       3.432  -7.107   0.866  0.00  0.00    -0.265 OA
ATOM     15  N   UNL     1       4.219  -5.062   0.508  0.00  0.00    -0.170 N 
ATOM     16  N   UNL     1       2.885  -1.737   1.312  0.00  0.00    -0.337 N 
ATOM     17  H   UNL     1       2.368  -1.320   2.018  0.00  0.00    +0.146 HD
ENDROOT
BRANCH  15  18
ATOM     18  S   UNL     1       5.556  -5.691  -0.240  0.00  0.00    +0.087 S 
ATOM     19  O   UNL     1       6.658  -4.883   0.151  0.00  0.00    -0.148 OA
ATOM     20  O   UNL     1       5.524  -7.094  -0.019  0.00  0.00    -0.148 OA
BRANCH  18  21
ATOM     21  C   UNL     1       5.346  -5.449  -1.973  0.00  0.00    +0.111 A 
ATOM     22  C   UNL     1       4.713  -6.415  -2.733  0.00  0.00    +0.029 A 
ATOM     23  C   UNL     1       4.547  -6.225  -4.092  0.00  0.00    +0.002 A 
ATOM     24  C   UNL     1       5.015  -5.070  -4.691  0.00  0.00    +0.000 A 
ATOM     25  C   UNL     1       5.647  -4.104  -3.930  0.00  0.00    +0.002 A 
ATOM     26  C   UNL     1       5.808  -4.292  -2.571  0.00  0.00    +0.029 A 
ENDBRANCH  18  21
ENDBRANCH  15  18
BRANCH  10  27
ATOM     27  O   UNL     1      -0.991  -6.398   3.293  0.00  0.00    -0.505 OA
ATOM     28  H   UNL     1      -0.857  -6.646   4.218  0.00  0.00    +0.292 HD
ENDBRANCH  10  27
BRANCH   1  29
ATOM     29  C   UNL     1       2.930  -1.141  -1.069  0.00  0.00    +0.057 C 
BRANCH  29  33
ATOM     30  C   UNL     1      -1.069   0.358  -1.015  0.00  0.00    +0.000 A 
ATOM     31  C   UNL     1      -0.025   1.187  -1.381  0.00  0.00    +0.000 A 
ATOM     32  C   UNL     1       1.269   0.702  -1.398  0.00  0.00    +0.004 A 
ATOM     33  C   UNL     1       1.519  -0.612  -1.049  0.00  0.00    -0.046 A 
ATOM     34  C   UNL     1       0.476  -1.440  -0.682  0.00  0.00    +0.004 A 
ATOM     35  C   UNL     1      -0.819  -0.956  -0.666  0.00  0.00    +0.000 A 
ENDBRANCH  29  33
ENDBRANCH   1  29
TORSDOF 5
