REMARK  Name = ZINC19146922
REMARK  9 active torsions:
REMARK  status: ('A' for Active; 'I' for Inactive)
REMARK    1  A    between atoms: C_1  and  N_2
REMARK    2  A    between atoms: C_4  and  C_7
REMARK    3  A    between atoms: C_7  and  C_8
REMARK    4  A    between atoms: C_8  and  N_9
REMARK    5  A    between atoms: C_10  and  C_12
REMARK    6  A    between atoms: C_12  and  C_13
REMARK    7  A    between atoms: N_20  and  C_21
REMARK    8  A    between atoms: C_21  and  C_22
REMARK    9  A    between atoms: C_27  and  C_28
REMARK                            x       y       z     vdW  Elec       q    Type
REMARK                         _______ _______ _______ _____ _____    ______ ____
ROOT
ATOM      1  C   UNL     1       4.312  -6.994  -4.168  0.00  0.00    +0.152 C 
ATOM      2  C   UNL     1       4.443  -8.229  -5.013  0.00  0.00    +0.231 C 
ATOM      3  O   UNL     1       3.801  -9.212  -4.709  0.00  0.00    -0.274 OA
ATOM      4  N   UNL     1       5.237  -8.290  -6.088  0.00  0.00    -0.313 N 
ATOM      5  C   UNL     1       6.022  -7.153  -6.560  0.00  0.00    +0.119 C 
ATOM      6  C   UNL     1       6.155  -6.111  -5.448  0.00  0.00    +0.104 C 
ATOM      7  N   UNL     1       4.817  -5.828  -4.905  0.00  0.00    -0.285 NA
ATOM      8  H   UNL     1       5.294  -9.127  -6.575  0.00  0.00    +0.149 HD
ENDROOT
BRANCH   1   9
ATOM      9  C   UNL     1       2.840  -6.773  -3.815  0.00  0.00    +0.124 C 
BRANCH   9  11
ATOM     10  N   UNL     1       1.062  -7.981  -2.592  0.00  0.00    -0.315 N 
ATOM     11  C   UNL     1       2.365  -7.889  -2.920  0.00  0.00    +0.215 C 
ATOM     12  O   UNL     1       3.157  -8.704  -2.496  0.00  0.00    -0.276 OA
ATOM     13  H   UNL     1       0.429  -7.329  -2.931  0.00  0.00    +0.149 HD
BRANCH  10  14
ATOM     14  C   UNL     1       0.600  -9.065  -1.722  0.00  0.00    +0.109 C 
BRANCH  14  15
ATOM     15  C   UNL     1      -0.909  -8.940  -1.507  0.00  0.00    +0.057 C 
BRANCH  15  19
ATOM     16  C   UNL     1      -2.168 -11.598   2.552  0.00  0.00    +0.172 C 
ATOM     17  N   UNL     1      -1.931 -11.208   1.160  0.00  0.00    -0.274 N 
ATOM     18  C   UNL     1      -1.458 -10.016   0.739  0.00  0.00    +0.111 A 
ATOM     19  C   UNL     1      -1.384 -10.055  -0.612  0.00  0.00    -0.008 A 
ATOM     20  C   UNL     1      -1.827 -11.314  -1.031  0.00  0.00    +0.138 A 
ATOM     21  N   UNL     1      -2.149 -12.008   0.031  0.00  0.00    -0.180 NA
ENDBRANCH  15  19
ENDBRANCH  14  15
ENDBRANCH  10  14
ENDBRANCH   9  11
ENDBRANCH   1   9
BRANCH   7  22
ATOM     22  C   UNL     1       4.840  -4.634  -4.050  0.00  0.00    +0.121 C 
BRANCH  22  23
ATOM     23  C   UNL     1       5.171  -3.424  -4.886  0.00  0.00    -0.022 A 
ATOM     24  C   UNL     1       6.460  -2.923  -4.896  0.00  0.00    +0.005 A 
ATOM     25  C   UNL     1       6.764  -1.814  -5.662  0.00  0.00    +0.000 A 
ATOM     26  C   UNL     1       5.780  -1.205  -6.418  0.00  0.00    +0.001 A 
ATOM     27  C   UNL     1       4.492  -1.706  -6.409  0.00  0.00    +0.013 A 
ATOM     28  C   UNL     1       4.189  -2.819  -5.646  0.00  0.00    +0.059 A 
BRANCH  28  29
ATOM     29  C   UNL     1       2.786  -3.368  -5.640  0.00  0.00    +0.418 C 
ATOM     30  F   UNL     1       1.978  -2.594  -6.479  0.00  0.00    -0.166 F 
ATOM     31  F   UNL     1       2.801  -4.690  -6.097  0.00  0.00    -0.166 F 
ATOM     32  F   UNL     1       2.276  -3.332  -4.337  0.00  0.00    -0.166 F 
ENDBRANCH  28  29
ENDBRANCH  22  23
ENDBRANCH   7  22
TORSDOF 8
