REMARK  Name = ZINC42843239
REMARK  7 active torsions:
REMARK  status: ('A' for Active; 'I' for Inactive)
REMARK    1  A    between atoms: C_1  and  C_2
REMARK    2  A    between atoms: C_2  and  C_3
REMARK    3  A    between atoms: C_3  and  C_5
REMARK    4  A    between atoms: C_3  and  N_6
REMARK    5  A    between atoms: N_9  and  C_10
REMARK    6  A    between atoms: C_10  and  C_12
REMARK    7  A    between atoms: C_10  and  C_13
REMARK                            x       y       z     vdW  Elec       q    Type
REMARK                         _______ _______ _______ _____ _____    ______ ____
ROOT
ATOM      1  C   UNL     1      -5.479   0.406   2.560  0.00  0.00    +0.102 C 
ATOM      2  C   UNL     1      -6.090  -0.971   2.822  0.00  0.00    +0.033 C 
ENDROOT
BRANCH   1   3
ATOM      3  C   UNL     1      -5.856   1.344   3.677  0.00  0.00    -0.027 A 
ATOM      4  C   UNL     1      -5.165   1.310   4.875  0.00  0.00    +0.007 A 
ATOM      5  C   UNL     1      -5.506   2.166   5.901  0.00  0.00    +0.024 A 
ATOM      6  C   UNL     1      -6.551   3.073   5.738  0.00  0.00    +0.037 A 
ATOM      7  C   UNL     1      -7.238   3.098   4.531  0.00  0.00    -0.017 A 
ATOM      8  C   UNL     1      -6.892   2.246   3.506  0.00  0.00    +0.011 A 
ATOM      9  C   UNL     1      -8.295   4.170   4.664  0.00  0.00    +0.133 C 
ATOM     10  C   UNL     1      -8.097   4.709   6.065  0.00  0.00    +0.222 C 
ATOM     11  O   UNL     1      -8.738   5.592   6.594  0.00  0.00    -0.275 OA
ATOM     12  N   UNL     1      -7.078   4.026   6.612  0.00  0.00    -0.285 N 
ATOM     13  H   UNL     1      -6.746   4.177   7.510  0.00  0.00    +0.155 HD
ENDBRANCH   1   3
BRANCH   1  17
ATOM     14  N   UNL     1      -2.082  -0.162   1.273  0.00  0.00    -0.297 N 
ATOM     15  C   UNL     1      -3.424  -0.053   1.334  0.00  0.00    +0.300 C 
ATOM     16  O   UNL     1      -4.096  -0.264   0.344  0.00  0.00    -0.253 OA
ATOM     17  N   UNL     1      -4.020   0.289   2.493  0.00  0.00    -0.293 N 
ATOM     18  H   UNL     1      -1.545   0.006   2.063  0.00  0.00    +0.151 HD
ATOM     19  H   UNL     1      -3.483   0.457   3.284  0.00  0.00    +0.151 HD
BRANCH  14  20
ATOM     20  C   UNL     1      -1.433  -0.534   0.013  0.00  0.00    +0.071 C 
ATOM     21  C   UNL     1      -1.416  -2.058  -0.121  0.00  0.00    +0.028 C 
BRANCH  20  23
ATOM     22  C   UNL     1      -0.019   1.526   0.010  0.00  0.00    +0.005 C 
ATOM     23  C   UNL     1       0.002  -0.004   0.002  0.00  0.00    +0.019 C 
ENDBRANCH  20  23
ENDBRANCH  14  20
ENDBRANCH   1  17
TORSDOF 4
