REMARK  Name = ZINC36587483
REMARK  24 active torsions:
REMARK  status: ('A' for Active; 'I' for Inactive)
REMARK    1  A    between atoms: C_1  and  C_2
REMARK    2  A    between atoms: C_2  and  C_3
REMARK    3  A    between atoms: C_2  and  C_4
REMARK    4  A    between atoms: C_2  and  C_5
REMARK    5  A    between atoms: C_5  and  C_6
REMARK    6  A    between atoms: C_6  and  C_7
REMARK    7  A    between atoms: C_6  and  C_8
REMARK    8  A    between atoms: C_6  and  N_9
REMARK    9  A    between atoms: C_10  and  C_12
REMARK   10  A    between atoms: C_12  and  C_14
REMARK   11  A    between atoms: C_12  and  N_24
REMARK   12  A    between atoms: C_17  and  O_22
REMARK   13  A    between atoms: C_18  and  O_20
REMARK   14  A    between atoms: O_20  and  C_21
REMARK   15  A    between atoms: O_22  and  C_23
REMARK   16  A    between atoms: N_24  and  C_37
REMARK   17  A    between atoms: C_25  and  C_27
REMARK   18  A    between atoms: C_27  and  C_28
REMARK   19  A    between atoms: C_28  and  C_29
REMARK   20  A    between atoms: C_32  and  O_35
REMARK   21  A    between atoms: O_35  and  C_36
REMARK   22  A    between atoms: C_37  and  C_38
REMARK   23  A    between atoms: C_37  and  C_39
REMARK   24  A    between atoms: C_37  and  C_40
REMARK                            x       y       z     vdW  Elec       q    Type
REMARK                         _______ _______ _______ _____ _____    ______ ____
ROOT
ATOM      1  C   UNL     1       4.879  -1.003  -4.975  0.00  0.00    +0.193 C 
ENDROOT
BRANCH   1   2
ATOM      2  C   UNL     1       4.129  -0.671  -6.240  0.00  0.00    -0.015 A 
ATOM      3  C   UNL     1       4.351   0.536  -6.876  0.00  0.00    +0.010 A 
ATOM      4  C   UNL     1       3.666   0.846  -8.036  0.00  0.00    +0.050 A 
ATOM      5  C   UNL     1       2.754  -0.055  -8.564  0.00  0.00    +0.162 A 
ATOM      6  C   UNL     1       2.531  -1.270  -7.923  0.00  0.00    +0.162 A 
ATOM      7  C   UNL     1       3.225  -1.576  -6.764  0.00  0.00    +0.055 A 
BRANCH   6   8
ATOM      8  O   UNL     1       1.638  -2.157  -8.437  0.00  0.00    -0.491 OA
ATOM      9  C   UNL     1       1.461  -3.384  -7.727  0.00  0.00    +0.277 C 
ENDBRANCH   6   8
BRANCH   5  10
ATOM     10  O   UNL     1       2.079   0.248  -9.705  0.00  0.00    -0.491 OA
ATOM     11  C   UNL     1       2.358   1.513 -10.307  0.00  0.00    +0.277 C 
ENDBRANCH   5  10
ENDBRANCH   1   2
BRANCH   1  13
ATOM     12  N   UNL     1       2.872  -0.940  -3.531  0.00  0.00    -0.308 N 
ATOM     13  C   UNL     1       4.114  -0.482  -3.786  0.00  0.00    +0.239 C 
ATOM     14  O   UNL     1       4.615   0.348  -3.058  0.00  0.00    -0.273 OA
ATOM     15  H   UNL     1       2.470  -1.604  -4.113  0.00  0.00    +0.149 HD
BRANCH  12  16
ATOM     16  C   UNL     1       2.128  -0.434  -2.375  0.00  0.00    +0.030 C 
ATOM     17  C   UNL     1       2.242   1.091  -2.323  0.00  0.00    +0.031 C 
ATOM     18  C   UNL     1       2.709  -1.032  -1.093  0.00  0.00    +0.031 C 
BRANCH  16  19
ATOM     19  C   UNL     1       0.656  -0.831  -2.502  0.00  0.00    +0.031 C 
BRANCH  19  21
ATOM     20  C   UNL     1       0.570  -1.763  -4.819  0.00  0.00    +0.010 C 
ATOM     21  C   UNL     1       0.181  -0.577  -3.934  0.00  0.00    -0.036 C 
ATOM     22  C   UNL     1       0.837   0.697  -4.470  0.00  0.00    +0.010 C 
ATOM     23  C   UNL     1      -1.340  -0.410  -3.945  0.00  0.00    +0.010 C 
ENDBRANCH  19  21
ENDBRANCH  16  19
ENDBRANCH  12  16
ENDBRANCH   1  13
BRANCH   1  24
ATOM     24  N   UNL     1       6.204  -0.379  -5.015  0.00  0.00    -0.281 N 
ATOM     25  C   UNL     1       6.316   0.964  -5.020  0.00  0.00    +0.217 C 
ATOM     26  O   UNL     1       5.342   1.655  -4.805  0.00  0.00    -0.276 OA
BRANCH  24  27
ATOM     27  C   UNL     1       7.406  -1.214  -5.049  0.00  0.00    +0.030 C 
ATOM     28  C   UNL     1       7.003  -2.684  -5.187  0.00  0.00    +0.031 C 
ATOM     29  C   UNL     1       8.275  -0.810  -6.242  0.00  0.00    +0.031 C 
ATOM     30  C   UNL     1       8.198  -1.022  -3.754  0.00  0.00    +0.031 C 
ENDBRANCH  24  27
BRANCH  25  31
ATOM     31  C   UNL     1       7.651   1.608  -5.292  0.00  0.00    +0.100 C 
BRANCH  31  32
ATOM     32  C   UNL     1       7.550   3.115  -5.047  0.00  0.00    +0.044 C 
BRANCH  32  33
ATOM     33  C   UNL     1       8.886   3.758  -5.319  0.00  0.00    -0.047 A 
ATOM     34  C   UNL     1       9.812   3.883  -4.300  0.00  0.00    +0.007 A 
ATOM     35  C   UNL     1      11.037   4.473  -4.547  0.00  0.00    +0.046 A 
ATOM     36  C   UNL     1      11.336   4.940  -5.818  0.00  0.00    +0.120 A 
ATOM     37  C   UNL     1      10.405   4.814  -6.839  0.00  0.00    +0.046 A 
ATOM     38  C   UNL     1       9.184   4.218  -6.588  0.00  0.00    +0.007 A 
BRANCH  36  39
ATOM     39  O   UNL     1      12.540   5.521  -6.063  0.00  0.00    -0.495 OA
ATOM     40  C   UNL     1      12.780   5.979  -7.396  0.00  0.00    +0.277 C 
ENDBRANCH  36  39
ENDBRANCH  32  33
ENDBRANCH  31  32
ENDBRANCH  25  31
ENDBRANCH   1  24
TORSDOF 13
