REMARK  Name = ZINC01382343
REMARK  10 active torsions:
REMARK  status: ('A' for Active; 'I' for Inactive)
REMARK    1  A    between atoms: C_1  and  C_2
REMARK    2  A    between atoms: C_4  and  C_42
REMARK    3  A    between atoms: C_7  and  C_14
REMARK    4  A    between atoms: C_14  and  C_16
REMARK    5  A    between atoms: C_14  and  N_29
REMARK    6  A    between atoms: N_20  and  C_21
REMARK    7  A    between atoms: C_21  and  C_22
REMARK    8  A    between atoms: C_22  and  C_23
REMARK    9  A    between atoms: N_32  and  C_35
REMARK   10  A    between atoms: C_35  and  C_36
REMARK                            x       y       z     vdW  Elec       q    Type
REMARK                         _______ _______ _______ _____ _____    ______ ____
ROOT
ATOM      1  C   UNL     1       1.029  -2.556   4.935  0.00  0.00    +0.162 C 
ENDROOT
BRANCH   1   8
ATOM      2  C   UNL     1       7.370  -0.090   9.098  0.00  0.00    +0.044 C 
ATOM      3  C   UNL     1       6.045  -0.455   8.480  0.00  0.00    -0.048 A 
ATOM      4  C   UNL     1       4.866  -0.078   9.109  0.00  0.00    +0.007 A 
ATOM      5  C   UNL     1       3.655  -0.399   8.565  0.00  0.00    -0.041 A 
ATOM      6  C   UNL     1       3.601  -1.114   7.364  0.00  0.00    +0.002 A 
ATOM      7  C   UNL     1       2.320  -1.470   6.751  0.00  0.00    +0.021 A 
ATOM      8  C   UNL     1       2.330  -2.169   5.590  0.00  0.00    +0.042 A 
ATOM      9  C   UNL     1       3.555  -2.530   4.988  0.00  0.00    +0.254 A 
ATOM     10  O   UNL     1       3.541  -3.155   3.941  0.00  0.00    -0.268 OA
ATOM     11  N   UNL     1       4.736  -2.203   5.540  0.00  0.00    -0.322 N 
ATOM     12  H   UNL     1       5.674  -2.498   5.048  0.00  0.00    +0.169 HD
ATOM     13  C   UNL     1       4.794  -1.498   6.724  0.00  0.00    +0.050 A 
ATOM     14  C   UNL     1       6.016  -1.160   7.296  0.00  0.00    +0.029 A 
ATOM     15  C   UNL     1       2.381   0.016   9.257  0.00  0.00    +0.044 C 
ENDBRANCH   1   8
BRANCH   1  16
ATOM     16  N   UNL     1       1.009  -2.059   3.553  0.00  0.00    -0.286 NA
ATOM     17  C   UNL     1      -0.248  -2.419   2.882  0.00  0.00    +0.101 C 
ATOM     18  C   UNL     1      -0.196  -1.954   1.425  0.00  0.00    +0.100 C 
ATOM     19  N   UNL     1       0.022  -0.501   1.384  0.00  0.00    -0.296 NA
ATOM     20  C   UNL     1       1.279  -0.141   2.055  0.00  0.00    +0.100 C 
ATOM     21  C   UNL     1       1.227  -0.606   3.513  0.00  0.00    +0.101 C 
BRANCH  19  22
ATOM     22  C   UNL     1       0.002  -0.004   0.002  0.00  0.00    +0.119 C 
BRANCH  22  23
ATOM     23  C   UNL     1      -0.018   1.503   0.010  0.00  0.00    -0.033 A 
ATOM     24  C   UNL     1      -1.225   2.178   0.020  0.00  0.00    +0.005 A 
ATOM     25  C   UNL     1      -1.244   3.560   0.032  0.00  0.00    +0.000 A 
ATOM     26  C   UNL     1      -0.056   4.267   0.025  0.00  0.00    +0.000 A 
ATOM     27  C   UNL     1       1.151   3.592   0.010  0.00  0.00    +0.000 A 
ATOM     28  C   UNL     1       1.169   2.210   0.003  0.00  0.00    +0.005 A 
ENDBRANCH  22  23
ENDBRANCH  19  22
ENDBRANCH   1  16
BRANCH   1  29
ATOM     29  C   UNL     1       0.896  -4.057   4.931  0.00  0.00    +0.173 A 
ATOM     30  N   UNL     1       1.533  -4.897   4.152  0.00  0.00    -0.111 NA
ATOM     31  N   UNL     1       1.149  -6.089   4.454  0.00  0.00    -0.023 NA
ATOM     32  N   UNL     1       0.283  -6.032   5.405  0.00  0.00    -0.044 NA
ATOM     33  N   UNL     1       0.104  -4.796   5.730  0.00  0.00    -0.227 N 
BRANCH  33  34
ATOM     34  C   UNL     1      -0.794  -4.292   6.772  0.00  0.00    +0.152 C 
BRANCH  34  35
ATOM     35  C   UNL     1      -2.173  -4.019   6.167  0.00  0.00    +0.058 C 
BRANCH  35  36
ATOM     36  C   UNL     1      -3.098  -3.500   7.239  0.00  0.00    -0.046 A 
ATOM     37  C   UNL     1      -3.859  -4.383   7.981  0.00  0.00    +0.004 A 
ATOM     38  C   UNL     1      -4.703  -3.907   8.967  0.00  0.00    +0.000 A 
ATOM     39  C   UNL     1      -4.794  -2.548   9.203  0.00  0.00    +0.000 A 
ATOM     40  C   UNL     1      -4.037  -1.665   8.457  0.00  0.00    +0.000 A 
ATOM     41  C   UNL     1      -3.188  -2.141   7.474  0.00  0.00    +0.004 A 
ENDBRANCH  35  36
ENDBRANCH  34  35
ENDBRANCH  33  34
ENDBRANCH   1  29
TORSDOF 8
