REMARK  Name = ZINC35851980
REMARK  4 active torsions:
REMARK  status: ('A' for Active; 'I' for Inactive)
REMARK    1  A    between atoms: C_3  and  C_10
REMARK    2  A    between atoms: C_5  and  N_7
REMARK    3  A    between atoms: C_19  and  C_21
REMARK    4  A    between atoms: C_21  and  C_23
REMARK                            x       y       z     vdW  Elec       q    Type
REMARK                         _______ _______ _______ _____ _____    ______ ____
ROOT
ATOM      1  C   UNL     1       3.871   2.290  -0.097  0.00  0.00    +0.050 C 
ATOM      2  C   UNL     1       3.930   3.265  -1.285  0.00  0.00    +0.077 C 
ATOM      3  C   UNL     1       2.627   3.142  -2.108  0.00  0.00    +0.090 C 
ATOM      4  S   UNL     1       2.388   4.910  -2.594  0.00  0.00    -0.144 S 
ATOM      5  C   UNL     1       3.190   5.646  -1.103  0.00  0.00    +0.155 C 
ATOM      6  N   UNL     1       4.173   4.609  -0.761  0.00  0.00    -0.271 NA
ATOM      7  C   UNL     1       4.322   4.529   0.696  0.00  0.00    +0.137 C 
ATOM      8  C   UNL     1       3.704   3.196   1.144  0.00  0.00    +0.103 C 
ATOM      9  C   UNL     1       5.766   4.618   1.108  0.00  0.00    +0.006 A 
ATOM     10  C   UNL     1       6.879   3.858   0.822  0.00  0.00    +0.046 A 
ATOM     11  C   UNL     1       8.107   4.198   1.365  0.00  0.00    +0.124 A 
ATOM     12  C   UNL     1       8.212   5.302   2.194  0.00  0.00    +0.040 A 
ATOM     13  C   UNL     1       7.099   6.065   2.481  0.00  0.00    +0.026 A 
ATOM     14  C   UNL     1       5.860   5.729   1.939  0.00  0.00    +0.039 A 
ATOM     15  N   UNL     1       4.609   6.335   2.079  0.00  0.00    -0.283 N 
ATOM     16  C   UNL     1       3.653   5.692   1.382  0.00  0.00    +0.243 C 
ATOM     17  O   UNL     1       2.479   5.991   1.318  0.00  0.00    -0.273 OA
ATOM     18  F   UNL     1       9.200   3.453   1.087  0.00  0.00    -0.205 F 
ATOM     19  H   UNL     1       4.447   7.126   2.616  0.00  0.00    +0.155 HD
ENDROOT
BRANCH   1  22
ATOM     20  C   UNL     1       0.364   0.906   0.101  0.00  0.00    +0.002 A 
ATOM     21  C   UNL     1       1.448   1.755   0.228  0.00  0.00    +0.004 A 
ATOM     22  C   UNL     1       2.690   1.364  -0.235  0.00  0.00    -0.040 A 
ATOM     23  C   UNL     1       2.848   0.124  -0.825  0.00  0.00    +0.036 A 
ATOM     24  C   UNL     1       1.765  -0.725  -0.951  0.00  0.00    +0.126 A 
ATOM     25  C   UNL     1       0.522  -0.333  -0.489  0.00  0.00    +0.033 A 
BRANCH  24  26
ATOM     26  N   UNL     1       1.935  -2.053  -1.584  0.00  0.00    +0.056 N 
ATOM     27  O   UNL     1       3.021  -2.394  -1.990  0.00  0.00    -0.126 OA
ATOM     28  O   UNL     1       0.987  -2.795  -1.694  0.00  0.00    -0.126 OA
ENDBRANCH  24  26
ENDBRANCH   1  22
BRANCH   8  29
ATOM     29  C   UNL     1       4.455   2.628   2.320  0.00  0.00    +0.171 C 
ATOM     30  O   UNL     1       5.412   1.906   2.138  0.00  0.00    -0.292 OA
BRANCH  29  31
ATOM     31  C   UNL     1       4.027   2.950   3.691  0.00  0.00    +0.036 A 
ATOM     32  C   UNL     1       4.721   2.432   4.795  0.00  0.00    +0.014 A 
ATOM     33  C   UNL     1       4.277   2.766   6.062  0.00  0.00    +0.020 A 
ATOM     34  C   UNL     1       3.175   3.591   6.199  0.00  0.00    +0.111 A 
ATOM     35  N   UNL     1       2.541   4.064   5.143  0.00  0.00    -0.263 NA
ATOM     36  C   UNL     1       2.926   3.781   3.916  0.00  0.00    +0.122 A 
ENDBRANCH  29  31
ENDBRANCH   8  29
TORSDOF 4
