REMARK  Name = ZINC30910947
REMARK  10 active torsions:
REMARK  status: ('A' for Active; 'I' for Inactive)
REMARK    1  A    between atoms: C_1  and  C_2
REMARK    2  A    between atoms: N_4  and  C_5
REMARK    3  A    between atoms: C_13  and  C_16
REMARK    4  A    between atoms: C_17  and  C_18
REMARK    5  A    between atoms: N_20  and  C_21
REMARK    6  A    between atoms: C_21  and  C_23
REMARK    7  A    between atoms: C_21  and  C_27
REMARK    8  A    between atoms: C_23  and  C_24
REMARK    9  A    between atoms: C_24  and  S_25
REMARK   10  A    between atoms: S_25  and  C_26
REMARK                            x       y       z     vdW  Elec       q    Type
REMARK                         _______ _______ _______ _____ _____    ______ ____
ROOT
ATOM      1  C   UNL     1       6.641   8.756  -0.565  0.00  0.00    +0.238 C 
ATOM      2  O   UNL     1       6.447   9.956  -0.640  0.00  0.00    -0.271 OA
ATOM      3  N   UNL     1       7.899   8.274  -0.595  0.00  0.00    -0.302 N 
ATOM      4  H   UNL     1       8.075   7.190  -0.527  0.00  0.00    +0.150 HD
ENDROOT
BRANCH   1   6
ATOM      5  C   UNL     1       4.281   8.351  -0.415  0.00  0.00    +0.033 C 
ATOM      6  C   UNL     1       5.545   7.867  -0.445  0.00  0.00    +0.069 C 
BRANCH   5  13
ATOM      7  C   UNL     1       3.560   1.730   0.082  0.00  0.00    +0.110 C 
ATOM      8  C   UNL     1       3.532   3.236   0.090  0.00  0.00    +0.223 C 
ATOM      9  O   UNL     1       4.568   3.861   0.177  0.00  0.00    -0.275 OA
ATOM     10  N   UNL     1       2.357   3.889  -0.000  0.00  0.00    -0.219 N 
ATOM     11  C   UNL     1       2.337   5.276  -0.098  0.00  0.00    +0.172 A 
ATOM     12  N   UNL     1       3.347   6.115  -0.203  0.00  0.00    -0.225 NA
ATOM     13  C   UNL     1       3.146   7.431  -0.292  0.00  0.00    +0.073 A 
ATOM     14  C   UNL     1       1.857   7.912  -0.260  0.00  0.00    +0.076 A 
ATOM     15  S   UNL     1       0.937   6.386  -0.104  0.00  0.00    -0.059 S 
BRANCH  10  16
ATOM     16  C   UNL     1       1.154   3.171   0.004  0.00  0.00    +0.043 A 
ATOM     17  C   UNL     1       0.813   2.378  -1.084  0.00  0.00    +0.024 A 
ATOM     18  C   UNL     1      -0.373   1.671  -1.077  0.00  0.00    +0.002 A 
ATOM     19  C   UNL     1      -1.223   1.755   0.011  0.00  0.00    +0.000 A 
ATOM     20  C   UNL     1      -0.884   2.539   1.098  0.00  0.00    +0.002 A 
ATOM     21  C   UNL     1       0.301   3.249   1.097  0.00  0.00    +0.024 A 
ENDBRANCH  10  16
ENDBRANCH   5  13
ENDBRANCH   1   6
BRANCH   3  22
ATOM     22  C   UNL     1       9.033   9.193  -0.718  0.00  0.00    +0.140 C 
BRANCH  22  23
ATOM     23  C   UNL     1      10.265   8.552  -0.133  0.00  0.00    +0.129 A 
ATOM     24  N   UNL     1      10.933   9.004   0.962  0.00  0.00    -0.340 N 
ATOM     25  H   UNL     1      10.581   9.903   1.489  0.00  0.00    +0.167 HD
ATOM     26  C   UNL     1      11.996   8.149   1.177  0.00  0.00    +0.066 A 
ATOM     27  C   UNL     1      13.013   8.088   2.120  0.00  0.00    +0.028 A 
ATOM     28  C   UNL     1      13.949   7.079   2.050  0.00  0.00    +0.002 A 
ATOM     29  C   UNL     1      13.882   6.126   1.044  0.00  0.00    +0.002 A 
ATOM     30  C   UNL     1      12.889   6.170   0.108  0.00  0.00    +0.030 A 
ATOM     31  C   UNL     1      11.928   7.183   0.159  0.00  0.00    +0.089 A 
ATOM     32  N   UNL     1      10.848   7.489  -0.605  0.00  0.00    -0.231 NA
ENDBRANCH  22  23
BRANCH  22  33
ATOM     33  C   UNL     1       9.275   9.509  -2.195  0.00  0.00    +0.041 C 
BRANCH  33  34
ATOM     34  C   UNL     1       8.073  10.271  -2.757  0.00  0.00    +0.071 C 
BRANCH  34  35
ATOM     35  S   UNL     1       8.361  10.646  -4.509  0.00  0.00    -0.164 S 
ATOM     36  C   UNL     1       6.865  11.538  -5.018  0.00  0.00    +0.084 C 
ENDBRANCH  34  35
ENDBRANCH  33  34
ENDBRANCH  22  33
ENDBRANCH   3  22
TORSDOF 8
