REMARK  Name = ZINC15911473
REMARK  7 active torsions:
REMARK  status: ('A' for Active; 'I' for Inactive)
REMARK    1  A    between atoms: C_1  and  C_2
REMARK    2  A    between atoms: C_7  and  N_8
REMARK    3  A    between atoms: N_10  and  C_28
REMARK    4  A    between atoms: C_13  and  C_16
REMARK    5  A    between atoms: C_16  and  C_17
REMARK    6  A    between atoms: N_19  and  C_20
REMARK    7  A    between atoms: C_28  and  C_29
REMARK                            x       y       z     vdW  Elec       q    Type
REMARK                         _______ _______ _______ _____ _____    ______ ____
ROOT
ATOM      1  N   UNL     1      -3.147  -6.885  -2.624  0.00  0.00    -0.226 NA
ATOM      2  C   UNL     1      -2.509  -6.348  -1.611  0.00  0.00    +0.164 C 
ATOM      3  N   UNL     1      -1.927  -6.987  -0.536  0.00  0.00    -0.245 N 
ATOM      4  C   UNL     1      -1.307  -6.329   0.428  0.00  0.00    +0.235 C 
ATOM      5  O   UNL     1      -0.797  -6.896   1.371  0.00  0.00    -0.274 OA
ATOM      6  C   UNL     1      -1.275  -4.816   0.281  0.00  0.00    +0.149 C 
ATOM      7  S   UNL     1      -2.189  -4.617  -1.299  0.00  0.00    -0.077 S 
ENDROOT
BRANCH   1  14
ATOM      8  C   UNL     1      -2.654  -7.787  -5.273  0.00  0.00    +0.046 C 
ATOM      9  C   UNL     1      -3.362  -6.490  -4.979  0.00  0.00    -0.025 A 
ATOM     10  C   UNL     1      -3.804  -5.692  -6.014  0.00  0.00    +0.005 A 
ATOM     11  C   UNL     1      -4.450  -4.499  -5.745  0.00  0.00    +0.000 A 
ATOM     12  C   UNL     1      -4.662  -4.099  -4.437  0.00  0.00    +0.002 A 
ATOM     13  C   UNL     1      -4.231  -4.889  -3.393  0.00  0.00    +0.028 A 
ATOM     14  C   UNL     1      -3.578  -6.095  -3.657  0.00  0.00    +0.069 A 
ENDBRANCH   1  14
BRANCH   6  15
ATOM     15  C   UNL     1       0.161  -4.302   0.159  0.00  0.00    +0.120 C 
BRANCH  15  16
ATOM     16  C   UNL     1       0.149  -2.800   0.045  0.00  0.00    +0.219 C 
ATOM     17  O   UNL     1      -0.905  -2.199   0.061  0.00  0.00    -0.275 OA
ATOM     18  N   UNL     1       1.309  -2.123  -0.073  0.00  0.00    -0.283 N 
ATOM     19  H   UNL     1       2.144  -2.606  -0.170  0.00  0.00    +0.155 HD
BRANCH  18  20
ATOM     20  C   UNL     1       1.308  -0.722  -0.057  0.00  0.00    +0.069 A 
ATOM     21  C   UNL     1       0.277  -0.035   0.569  0.00  0.00    +0.029 A 
ATOM     22  C   UNL     1       0.277   1.347   0.584  0.00  0.00    +0.040 A 
ATOM     23  C   UNL     1       1.304   2.047  -0.025  0.00  0.00    +0.126 A 
ATOM     24  C   UNL     1       2.335   1.365  -0.651  0.00  0.00    +0.078 A 
ATOM     25  C   UNL     1       2.339  -0.017  -0.668  0.00  0.00    +0.147 A 
ATOM     26  F   UNL     1       3.344  -0.683  -1.278  0.00  0.00    -0.203 F 
ATOM     27  F   UNL     1       1.302   3.398  -0.009  0.00  0.00    -0.205 F 
ENDBRANCH  18  20
ENDBRANCH  15  16
ENDBRANCH   6  15
BRANCH   3  28
ATOM     28  C   UNL     1      -1.997  -8.449  -0.461  0.00  0.00    +0.150 C 
BRANCH  28  29
ATOM     29  C   UNL     1      -3.243  -8.854   0.284  0.00  0.00    -0.026 A 
ATOM     30  C   UNL     1      -4.422  -9.063  -0.407  0.00  0.00    +0.009 A 
ATOM     31  C   UNL     1      -5.568  -9.435   0.272  0.00  0.00    +0.050 A 
ATOM     32  C   UNL     1      -5.536  -9.600   1.647  0.00  0.00    +0.166 A 
ATOM     33  C   UNL     1      -4.348  -9.390   2.343  0.00  0.00    +0.167 A 
ATOM     34  C   UNL     1      -3.203  -9.021   1.655  0.00  0.00    +0.054 A 
ATOM     35  O   UNL     1      -4.574  -9.613   3.671  0.00  0.00    -0.453 OA
ATOM     36  C   UNL     1      -6.004  -9.564   3.830  0.00  0.00    +0.466 C 
ATOM     37  O   UNL     1      -6.506  -9.956   2.539  0.00  0.00    -0.453 OA
ENDBRANCH  28  29
ENDBRANCH   3  28
TORSDOF 6
