REMARK  Name = ZINC39696088
REMARK  7 active torsions:
REMARK  status: ('A' for Active; 'I' for Inactive)
REMARK    1  A    between atoms: C_1  and  C_2
REMARK    2  A    between atoms: C_2  and  C_3
REMARK    3  A    between atoms: C_6  and  C_9
REMARK    4  A    between atoms: C_9  and  C_11
REMARK    5  A    between atoms: C_9  and  N_12
REMARK    6  A    between atoms: C_13  and  C_15
REMARK    7  A    between atoms: C_26  and  C_28
REMARK                            x       y       z     vdW  Elec       q    Type
REMARK                         _______ _______ _______ _____ _____    ______ ____
ROOT
ATOM      1  C   UNL     1       2.327  -4.762   6.624  0.00  0.00    +0.100 C 
ATOM      2  C   UNL     1       1.322  -5.499   5.710  0.00  0.00    +0.121 C 
ATOM      3  N   UNL     1       1.939  -6.823   5.465  0.00  0.00    -0.296 N 
ATOM      4  C   UNL     1       2.539  -7.197   6.769  0.00  0.00    +0.115 C 
ATOM      5  C   UNL     1       3.121  -5.880   7.319  0.00  0.00    -0.004 C 
ATOM      6  C   UNL     1       2.925  -5.807   8.831  0.00  0.00    -0.010 C 
ATOM      7  C   UNL     1       3.770  -6.891   9.504  0.00  0.00    -0.082 C 
ATOM      8  N   UNL     1       5.184  -6.694   9.165  0.00  0.00    +0.379 N 
ATOM      9  C   UNL     1       5.379  -6.859   7.719  0.00  0.00    -0.082 C 
ATOM     10  C   UNL     1       4.603  -5.773   6.970  0.00  0.00    -0.010 C 
ATOM     11  C   UNL     1       1.952  -7.529   4.317  0.00  0.00    +0.248 C 
ATOM     12  O   UNL     1       2.420  -8.651   4.299  0.00  0.00    -0.270 OA
ATOM     13  H   UNL     1       5.468  -5.765   9.437  0.00  0.00    -0.086 HD
ATOM     14  H   UNL     1       5.745  -7.372   9.658  0.00  0.00    -0.086 HD
ENDROOT
BRANCH  11  15
ATOM     15  C   UNL     1       1.398  -6.939   3.081  0.00  0.00    +0.057 A 
ATOM     16  C   UNL     1       0.281  -6.104   3.142  0.00  0.00    +0.014 A 
ATOM     17  C   UNL     1      -0.232  -5.557   1.985  0.00  0.00    +0.002 A 
ATOM     18  C   UNL     1       0.357  -5.832   0.764  0.00  0.00    +0.021 A 
ATOM     19  C   UNL     1       1.465  -6.659   0.694  0.00  0.00    +0.060 A 
ATOM     20  C   UNL     1       1.993  -7.210   1.847  0.00  0.00    +0.071 A 
ATOM     21 CL   UNL     1       3.387  -8.241   1.760  0.00  0.00    -0.081 Cl
ATOM     22 CL   UNL     1       2.196  -6.999  -0.843  0.00  0.00    -0.082 Cl
ENDBRANCH  11  15
BRANCH   1  24
ATOM     23  N   UNL     1       3.800  -2.795   6.343  0.00  0.00    -0.308 N 
ATOM     24  C   UNL     1       3.248  -3.898   5.801  0.00  0.00    +0.219 C 
ATOM     25  O   UNL     1       3.493  -4.197   4.651  0.00  0.00    -0.275 OA
ATOM     26  H   UNL     1       3.604  -2.556   7.263  0.00  0.00    +0.149 HD
BRANCH  23  27
ATOM     27  C   UNL     1       4.695  -1.955   5.543  0.00  0.00    +0.100 C 
ATOM     28  C   UNL     1       6.116  -2.519   5.608  0.00  0.00    +0.033 C 
BRANCH  27  32
ATOM     29  C   UNL     1       4.669   2.027   7.089  0.00  0.00    -0.048 A 
ATOM     30  C   UNL     1       4.686   1.816   5.723  0.00  0.00    +0.004 A 
ATOM     31  C   UNL     1       4.694   0.527   5.223  0.00  0.00    +0.006 A 
ATOM     32  C   UNL     1       4.687  -0.550   6.088  0.00  0.00    -0.027 A 
ATOM     33  C   UNL     1       4.671  -0.339   7.455  0.00  0.00    +0.006 A 
ATOM     34  C   UNL     1       4.666   0.950   7.955  0.00  0.00    +0.004 A 
BRANCH  29  36
ATOM     35  C   UNL     1       6.098   3.913   7.829  0.00  0.00    +0.009 C 
ATOM     36  C   UNL     1       4.659   3.432   7.634  0.00  0.00    +0.032 C 
ENDBRANCH  29  36
ENDBRANCH  27  32
ENDBRANCH  23  27
ENDBRANCH   1  24
TORSDOF 5
