REMARK  Name = ZINC36970738
REMARK  5 active torsions:
REMARK  status: ('A' for Active; 'I' for Inactive)
REMARK    1  A    between atoms: C_1  and  C_2
REMARK    2  A    between atoms: C_2  and  C_4
REMARK    3  A    between atoms: C_2  and  N_11
REMARK    4  A    between atoms: N_11  and  C_12
REMARK    5  A    between atoms: C_17  and  N_18
REMARK                            x       y       z     vdW  Elec       q    Type
REMARK                         _______ _______ _______ _____ _____    ______ ____
ROOT
ATOM      1  N   UNL     1       0.717  -1.001   1.085  0.00  0.00    -0.335 N 
ATOM      2  H   UNL     1       0.234  -1.258   1.886  0.00  0.00    +0.147 HD
ENDROOT
BRANCH   1   3
ATOM      3  C   UNL     1       2.106  -0.859   1.121  0.00  0.00    +0.060 A 
ATOM      4  C   UNL     1       2.810  -0.606  -0.049  0.00  0.00    +0.045 A 
ATOM      5  C   UNL     1       4.184  -0.466  -0.009  0.00  0.00    +0.043 A 
ATOM      6  C   UNL     1       4.858  -0.578   1.195  0.00  0.00    +0.022 A 
ATOM      7  C   UNL     1       4.159  -0.829   2.361  0.00  0.00    +0.036 A 
ATOM      8  C   UNL     1       2.784  -0.964   2.329  0.00  0.00    +0.147 A 
ATOM      9 CL   UNL     1       5.067  -0.150  -1.470  0.00  0.00    -0.083 Cl
BRANCH   8  10
ATOM     10  N   UNL     1       2.036  -1.227   3.578  0.00  0.00    +0.058 N 
ATOM     11  O   UNL     1       0.955  -0.717   3.754  0.00  0.00    -0.126 OA
ATOM     12  O   UNL     1       2.507  -1.952   4.423  0.00  0.00    -0.126 OA
ENDBRANCH   8  10
ENDBRANCH   1   3
BRANCH   1  14
ATOM     13  C   UNL     1      -0.308   0.734  -0.302  0.00  0.00    +0.033 C 
ATOM     14  C   UNL     1      -0.012  -0.761  -0.164  0.00  0.00    +0.099 C 
BRANCH  14  15
ATOM     15  C   UNL     1      -1.308  -1.530  -0.145  0.00  0.00    -0.014 A 
ATOM     16  C   UNL     1      -1.895  -1.866   1.061  0.00  0.00    +0.006 A 
ATOM     17  C   UNL     1      -3.084  -2.571   1.078  0.00  0.00    +0.000 A 
ATOM     18  C   UNL     1      -3.686  -2.941  -0.110  0.00  0.00    +0.001 A 
ATOM     19  C   UNL     1      -3.099  -2.606  -1.316  0.00  0.00    +0.015 A 
ATOM     20  C   UNL     1      -1.912  -1.895  -1.334  0.00  0.00    +0.023 A 
ATOM     21 BR   UNL     1      -1.113  -1.431  -2.983  0.00  0.00    -0.050 Br
ENDBRANCH  14  15
ENDBRANCH   1  14
TORSDOF 4
