REMARK  Name = ZINC38666144
REMARK  10 active torsions:
REMARK  status: ('A' for Active; 'I' for Inactive)
REMARK    1  A    between atoms: C_1  and  C_2
REMARK    2  A    between atoms: C_3  and  C_11
REMARK    3  A    between atoms: N_13  and  C_14
REMARK    4  A    between atoms: C_14  and  C_15
REMARK    5  A    between atoms: C_15  and  C_17
REMARK    6  A    between atoms: C_15  and  N_26
REMARK    7  A    between atoms: C_20  and  N_23
REMARK    8  A    between atoms: N_23  and  C_24
REMARK    9  A    between atoms: N_23  and  C_25
REMARK   10  A    between atoms: N_29  and  C_32
REMARK                            x       y       z     vdW  Elec       q    Type
REMARK                         _______ _______ _______ _____ _____    ______ ____
ROOT
ATOM      1  C   UNL     1       0.473  -2.246  -5.866  0.00  0.00    +0.104 C 
ENDROOT
BRANCH   1   2
ATOM      2  C   UNL     1       0.701  -1.429  -7.112  0.00  0.00    -0.029 A 
ATOM      3  C   UNL     1       0.151  -0.165  -7.219  0.00  0.00    +0.007 A 
ATOM      4  C   UNL     1       0.358   0.586  -8.359  0.00  0.00    +0.023 A 
ATOM      5  C   UNL     1       1.119   0.070  -9.400  0.00  0.00    +0.029 A 
ATOM      6  C   UNL     1       1.670  -1.200  -9.290  0.00  0.00    +0.023 A 
ATOM      7  C   UNL     1       1.464  -1.944  -8.144  0.00  0.00    +0.007 A 
BRANCH   5   8
ATOM      8  N   UNL     1       1.330   0.827 -10.555  0.00  0.00    -0.336 N 
ATOM      9  C   UNL     1       0.855   2.211 -10.620  0.00  0.00    +0.129 C 
ATOM     10  C   UNL     1       2.026   0.236 -11.701  0.00  0.00    +0.129 C 
ENDBRANCH   5   8
ENDBRANCH   1   2
BRANCH   1  11
ATOM     11  N   UNL     1      -0.685  -3.128  -6.064  0.00  0.00    -0.291 NA
ATOM     12  C   UNL     1      -1.889  -2.352  -6.391  0.00  0.00    +0.104 C 
ATOM     13  C   UNL     1      -3.104  -3.284  -6.411  0.00  0.00    +0.120 C 
ATOM     14  N   UNL     1      -2.820  -4.404  -7.321  0.00  0.00    -0.327 N 
ATOM     15  C   UNL     1      -1.562  -5.145  -7.141  0.00  0.00    +0.120 C 
ATOM     16  C   UNL     1      -0.407  -4.139  -7.093  0.00  0.00    +0.104 C 
BRANCH  14  17
ATOM     17  C   UNL     1      -3.721  -4.755  -8.331  0.00  0.00    +0.030 A 
ATOM     18  C   UNL     1      -3.500  -5.892  -9.097  0.00  0.00    +0.026 A 
ATOM     19  C   UNL     1      -4.392  -6.237 -10.093  0.00  0.00    +0.040 A 
ATOM     20  C   UNL     1      -5.506  -5.449 -10.329  0.00  0.00    +0.124 A 
ATOM     21  C   UNL     1      -5.729  -4.315  -9.567  0.00  0.00    +0.040 A 
ATOM     22  C   UNL     1      -4.842  -3.969  -8.566  0.00  0.00    +0.026 A 
ATOM     23  F   UNL     1      -6.377  -5.788 -11.305  0.00  0.00    -0.205 F 
ENDBRANCH  14  17
ENDBRANCH   1  11
BRANCH   1  24
ATOM     24  C   UNL     1       0.205  -1.310  -4.685  0.00  0.00    +0.128 C 
BRANCH  24  27
ATOM     25  C   UNL     1      -0.410  -1.488  -2.334  0.00  0.00    +0.263 C 
ATOM     26  O   UNL     1      -0.469  -0.273  -2.286  0.00  0.00    -0.269 OA
ATOM     27  N   UNL     1      -0.134  -2.104  -3.501  0.00  0.00    -0.308 N 
ATOM     28  H   UNL     1      -0.159  -3.072  -3.557  0.00  0.00    +0.149 HD
BRANCH  25  31
ATOM     29  C   UNL     1      -3.209  -2.194  -1.151  0.00  0.00    +0.068 C 
ATOM     30  C   UNL     1      -1.859  -2.589  -0.610  0.00  0.00    +0.069 A 
ATOM     31  C   UNL     1      -0.633  -2.256  -1.163  0.00  0.00    +0.131 A 
ATOM     32  N   UNL     1       0.330  -2.821  -0.348  0.00  0.00    -0.295 N 
ATOM     33  C   UNL     1       1.689  -2.824  -0.400  0.00  0.00    +0.093 A 
ATOM     34  C   UNL     1       2.413  -3.468   0.544  0.00  0.00    +0.018 A 
ATOM     35  C   UNL     1       1.767  -4.142   1.589  0.00  0.00    +0.005 A 
ATOM     36  C   UNL     1       0.406  -4.144   1.649  0.00  0.00    +0.047 A 
ATOM     37  C   UNL     1      -0.330  -3.469   0.658  0.00  0.00    +0.138 A 
ATOM     38  N   UNL     1      -1.640  -3.309   0.478  0.00  0.00    -0.232 NA
ENDBRANCH  25  31
ENDBRANCH  24  27
ENDBRANCH   1  24
TORSDOF 7
