REMARK  Name = ZINC05173947
REMARK  3 active torsions:
REMARK  status: ('A' for Active; 'I' for Inactive)
REMARK    1  A    between atoms: C_10  and  S_12
REMARK    2  A    between atoms: S_12  and  C_13
REMARK    3  A    between atoms: C_13  and  C_14
REMARK                            x       y       z     vdW  Elec       q    Type
REMARK                         _______ _______ _______ _____ _____    ______ ____
ROOT
ATOM      1  S   UNL     1       0.002  -0.004   0.002  0.00  0.00    -0.080 S 
ENDROOT
BRANCH   1  11
ATOM      2  C   UNL     1      -6.255  -0.417   0.061  0.00  0.00    +0.022 A 
ATOM      3  C   UNL     1      -5.197   0.465   0.056  0.00  0.00    +0.031 A 
ATOM      4  C   UNL     1      -3.888  -0.022   0.040  0.00  0.00    +0.090 A 
ATOM      5  C   UNL     1      -3.666  -1.409   0.030  0.00  0.00    +0.068 A 
ATOM      6  C   UNL     1      -4.742  -2.283   0.036  0.00  0.00    +0.047 A 
ATOM      7  C   UNL     1      -6.031  -1.786   0.052  0.00  0.00    +0.043 A 
ATOM      8 CL   UNL     1      -7.378  -2.881   0.059  0.00  0.00    -0.083 Cl
ATOM      9  N   UNL     1      -2.291  -1.579   0.015  0.00  0.00    -0.333 N 
ATOM     10  H   UNL     1      -1.801  -2.451   0.006  0.00  0.00    +0.168 HD
ATOM     11  C   UNL     1      -1.729  -0.334   0.017  0.00  0.00    +0.168 A 
ATOM     12  N   UNL     1      -2.669   0.579   0.036  0.00  0.00    -0.222 NA
ENDBRANCH   1  11
BRANCH   1  13
ATOM     13  C   UNL     1      -0.022   1.806   0.012  0.00  0.00    +0.151 C 
BRANCH  13  14
ATOM     14  C   UNL     1       1.391   2.327   0.001  0.00  0.00    +0.121 A 
ATOM     15  N   UNL     1       1.584   3.673   0.007  0.00  0.00    -0.309 N 
ATOM     16  H   UNL     1       0.801   4.295   0.017  0.00  0.00    +0.170 HD
ATOM     17  C   UNL     1       2.847   4.163  -0.002  0.00  0.00    +0.266 A 
ATOM     18  O   UNL     1       3.053   5.365   0.002  0.00  0.00    -0.267 OA
ATOM     19  C   UNL     1       3.905   3.254  -0.017  0.00  0.00    +0.102 A 
ATOM     20  C   UNL     1       3.678   1.866  -0.022  0.00  0.00    +0.085 A 
ATOM     21  N   UNL     1       2.363   1.472  -0.007  0.00  0.00    -0.232 NA
ATOM     22  C   UNL     1       4.830   1.067  -0.037  0.00  0.00    +0.036 A 
ATOM     23  C   UNL     1       6.053   1.638  -0.045  0.00  0.00    +0.048 A 
ATOM     24  S   UNL     1       5.673   3.383  -0.032  0.00  0.00    -0.090 S 
ENDBRANCH  13  14
ENDBRANCH   1  13
TORSDOF 3
