REMARK  Name = ZINC30634250
REMARK  7 active torsions:
REMARK  status: ('A' for Active; 'I' for Inactive)
REMARK    1  A    between atoms: C_1  and  C_2
REMARK    2  A    between atoms: C_2  and  C_3
REMARK    3  A    between atoms: C_2  and  C_4
REMARK    4  A    between atoms: C_5  and  C_19
REMARK    5  A    between atoms: C_12  and  C_15
REMARK    6  A    between atoms: N_21  and  C_22
REMARK    7  A    between atoms: C_22  and  C_23
REMARK                            x       y       z     vdW  Elec       q    Type
REMARK                         _______ _______ _______ _____ _____    ______ ____
ROOT
ATOM      1  C   UNL     1       0.093   1.128   2.470  0.00  0.00    +0.061 A 
ATOM      2  C   UNL     1      -0.298   0.327   3.524  0.00  0.00    +0.078 A 
ATOM      3  C   UNL     1       0.762   0.321   4.460  0.00  0.00    +0.148 A 
ATOM      4  N   UNL     1       1.717   1.077   3.994  0.00  0.00    -0.172 NA
ATOM      5  N   UNL     1       1.324   1.593   2.754  0.00  0.00    -0.218 N 
ATOM      6  C   UNL     1       2.082   2.446   1.946  0.00  0.00    +0.154 A 
ATOM      7  C   UNL     1       3.037   3.274   2.525  0.00  0.00    +0.049 A 
ATOM      8  C   UNL     1       3.784   4.110   1.713  0.00  0.00    +0.017 A 
ATOM      9  C   UNL     1       3.540   4.097   0.347  0.00  0.00    +0.073 A 
ATOM     10  C   UNL     1       2.571   3.252  -0.159  0.00  0.00    +0.125 A 
ATOM     11  N   UNL     1       1.879   2.462   0.639  0.00  0.00    -0.236 NA
ENDROOT
BRANCH   9  12
ATOM     12  C   UNL     1       4.324   4.995  -0.575  0.00  0.00    +0.419 C 
ATOM     13  F   UNL     1       3.897   4.798  -1.892  0.00  0.00    -0.166 F 
ATOM     14  F   UNL     1       4.118   6.330  -0.212  0.00  0.00    -0.166 F 
ATOM     15  F   UNL     1       5.686   4.690  -0.476  0.00  0.00    -0.166 F 
ENDBRANCH   9  12
BRANCH   2  16
ATOM     16  C   UNL     1      -1.579  -0.391   3.649  0.00  0.00    +0.248 C 
ATOM     17  O   UNL     1      -2.369  -0.391   2.724  0.00  0.00    -0.270 OA
ATOM     18  N   UNL     1      -1.876  -1.046   4.789  0.00  0.00    -0.307 N 
ATOM     19  H   UNL     1      -1.163  -1.045   5.626  0.00  0.00    +0.149 HD
BRANCH  18  20
ATOM     20  C   UNL     1      -3.150  -1.759   4.913  0.00  0.00    +0.141 C 
BRANCH  20  21
ATOM     21  C   UNL     1      -3.235  -2.402   6.273  0.00  0.00    -0.014 A 
ATOM     22  C   UNL     1      -3.788  -1.710   7.343  0.00  0.00    +0.010 A 
ATOM     23  C   UNL     1      -3.847  -2.336   8.575  0.00  0.00    +0.042 A 
ATOM     24  C   UNL     1      -3.353  -3.631   8.699  0.00  0.00    +0.099 A 
ATOM     25  N   UNL     1      -2.835  -4.258   7.655  0.00  0.00    -0.349 N 
ATOM     26  C   UNL     1      -2.770  -3.687   6.467  0.00  0.00    +0.089 A 
ATOM     27  N   UNL     1      -3.407  -4.273   9.931  0.00  0.00    -0.317 N 
ATOM     28  C   UNL     1      -4.812  -4.453  10.378  0.00  0.00    +0.106 C 
ATOM     29  C   UNL     1      -4.709  -5.592  11.422  0.00  0.00    +0.020 C 
ATOM     30  C   UNL     1      -3.635  -6.523  10.814  0.00  0.00    +0.020 C 
ATOM     31  C   UNL     1      -2.833  -5.633   9.846  0.00  0.00    +0.106 C 
ATOM     32  H   UNL     1      -2.444  -5.280   7.766  0.00  0.00    +0.167 HD
ENDBRANCH  20  21
ENDBRANCH  18  20
ENDBRANCH   2  16
BRANCH   1  34
ATOM     33  C   UNL     1      -2.045   2.067   1.637  0.00  0.00    +0.014 C 
ATOM     34  C   UNL     1      -0.713   1.432   1.234  0.00  0.00    +0.032 C 
ATOM     35  C   UNL     1      -0.977   0.136   0.466  0.00  0.00    +0.014 C 
ENDBRANCH   1  34
TORSDOF 5
