REMARK  Name = ZINC36374826
REMARK  5 active torsions:
REMARK  status: ('A' for Active; 'I' for Inactive)
REMARK    1  A    between atoms: C_1  and  C_2
REMARK    2  A    between atoms: C_18  and  C_23
REMARK    3  A    between atoms: C_24  and  C_25
REMARK    4  A    between atoms: C_26  and  C_27
REMARK    5  A    between atoms: C_28  and  C_29
REMARK                            x       y       z     vdW  Elec       q    Type
REMARK                         _______ _______ _______ _____ _____    ______ ____
ROOT
ATOM      1  C   UNL     1      -0.019   1.526   0.010  0.00  0.00    +0.052 C 
ATOM      2  C   UNL     1       0.002  -0.004   0.002  0.00  0.00    +0.174 C 
ATOM      3  C   UNL     1       0.592  -0.492  -1.318  0.00  0.00    +0.045 C 
ATOM      4  C   UNL     1       2.108  -0.283  -1.345  0.00  0.00    +0.008 C 
ATOM      5  C   UNL     1       2.783  -1.452  -0.633  0.00  0.00    +0.028 C 
ATOM      6  C   UNL     1       4.277  -1.351  -0.685  0.00  0.00    -0.019 C 
ATOM      7  C   UNL     1       5.015  -0.997   0.354  0.00  0.00    +0.007 C 
ATOM      8  C   UNL     1       4.517  -0.498   1.684  0.00  0.00    +0.107 C 
ATOM      9  C   UNL     1       5.064  -1.601   2.650  0.00  0.00    +0.209 C 
ATOM     10  C   UNL     1       6.527  -1.360   2.756  0.00  0.00    +0.021 C 
ATOM     11  C   UNL     1       7.202  -1.098   1.619  0.00  0.00    +0.050 C 
ATOM     12  C   UNL     1       6.528  -1.029   0.304  0.00  0.00    +0.182 C 
ATOM     13  O   UNL     1       7.146  -1.000  -0.744  0.00  0.00    -0.288 OA
ATOM     14  O   UNL     1       4.178  -1.463   3.735  0.00  0.00    -0.483 OA
ATOM     15  C   UNL     1       2.944  -1.203   3.190  0.00  0.00    +0.132 C 
ATOM     16  C   UNL     1       3.059  -0.557   1.966  0.00  0.00    +0.089 C 
ATOM     17  C   UNL     1       2.024   0.013   1.206  0.00  0.00    +0.340 C 
ATOM     18  O   UNL     1       2.279   1.030   0.589  0.00  0.00    -0.245 OA
ATOM     19  O   UNL     1       0.783  -0.471   1.107  0.00  0.00    -0.458 OA
ENDROOT
BRANCH  15  20
ATOM     20  C   UNL     1       1.711  -1.549   3.800  0.00  0.00    +0.046 C 
ATOM     21  C   UNL     1       1.702  -2.181   5.002  0.00  0.00    +0.004 C 
BRANCH  21  22
ATOM     22  C   UNL     1       0.475  -2.525   5.608  0.00  0.00    +0.000 C 
ATOM     23  C   UNL     1       0.466  -3.158   6.812  0.00  0.00    +0.000 C 
BRANCH  23  24
ATOM     24  C   UNL     1      -0.759  -3.502   7.418  0.00  0.00    +0.007 C 
ATOM     25  C   UNL     1      -0.768  -4.134   8.622  0.00  0.00    +0.096 C 
BRANCH  25  26
ATOM     26  C   UNL     1      -1.997  -4.479   9.229  0.00  0.00    +0.380 C 
ATOM     27  O   UNL     1      -3.054  -4.209   8.671  0.00  0.00    -0.241 OA
ATOM     28  O   UNL     1      -2.005  -5.049  10.314  0.00  0.00    -0.241 OA
ENDBRANCH  25  26
ENDBRANCH  23  24
ENDBRANCH  21  22
ENDBRANCH  15  20
TORSDOF 4
