REMARK  Name = ZINC59885539
REMARK  10 active torsions:
REMARK  status: ('A' for Active; 'I' for Inactive)
REMARK    1  A    between atoms: C_1  and  C_2
REMARK    2  A    between atoms: C_5  and  N_9
REMARK    3  A    between atoms: C_6  and  C_8
REMARK    4  A    between atoms: N_9  and  S_10
REMARK    5  A    between atoms: S_10  and  C_13
REMARK    6  A    between atoms: C_16  and  N_19
REMARK    7  A    between atoms: C_20  and  C_22
REMARK    8  A    between atoms: C_22  and  S_23
REMARK    9  A    between atoms: S_23  and  C_24
REMARK   10  A    between atoms: C_27  and  C_30
REMARK                            x       y       z     vdW  Elec       q    Type
REMARK                         _______ _______ _______ _____ _____    ______ ____
ROOT
ATOM      1  C   UNL     1       2.518  -4.718  -1.151  0.00  0.00    +0.109 A 
ATOM      2  C   UNL     1       3.113  -3.640  -1.779  0.00  0.00    +0.030 A 
ATOM      3  C   UNL     1       4.473  -3.433  -1.661  0.00  0.00    +0.025 A 
ATOM      4  C   UNL     1       5.244  -4.310  -0.909  0.00  0.00    +0.034 A 
ATOM      5  C   UNL     1       4.644  -5.392  -0.279  0.00  0.00    +0.025 A 
ATOM      6  C   UNL     1       3.283  -5.590  -0.397  0.00  0.00    +0.030 A 
ENDROOT
BRANCH   4   7
ATOM      7  N   UNL     1       6.623  -4.103  -0.788  0.00  0.00    -0.285 N 
ATOM      8  C   UNL     1       7.114  -2.849  -0.730  0.00  0.00    +0.227 C 
ATOM      9  O   UNL     1       6.372  -1.900  -0.868  0.00  0.00    -0.275 OA
ATOM     10  H   UNL     1       7.225  -4.862  -0.745  0.00  0.00    +0.155 HD
BRANCH   8  11
ATOM     11  C   UNL     1       8.586  -2.627  -0.495  0.00  0.00    +0.173 C 
BRANCH  11  12
ATOM     12  S   UNL     1       8.932  -0.847  -0.470  0.00  0.00    -0.077 S 
BRANCH  12  13
ATOM     13  C   UNL     1      10.669  -0.754  -0.189  0.00  0.00    +0.185 A 
ATOM     14  N   UNL     1      11.483  -1.775  -0.039  0.00  0.00    -0.201 NA
ATOM     15  H   UNL     1      11.070   1.290  -0.170  0.00  0.00    +0.191 HD
ATOM     16  C   UNL     1      12.733  -1.331   0.157  0.00  0.00    +0.184 A 
ATOM     17  N   UNL     1      12.726  -0.018   0.133  0.00  0.00    -0.152 NA
ATOM     18  N   UNL     1      11.399   0.380  -0.096  0.00  0.00    -0.253 N 
BRANCH  16  19
ATOM     19  C   UNL     1      13.929  -2.184   0.366  0.00  0.00    +0.039 A 
ATOM     20  C   UNL     1      15.186  -1.607   0.566  0.00  0.00    +0.014 A 
ATOM     21  C   UNL     1      16.271  -2.446   0.757  0.00  0.00    +0.020 A 
ATOM     22  C   UNL     1      16.077  -3.815   0.743  0.00  0.00    +0.111 A 
ATOM     23  N   UNL     1      14.879  -4.331   0.551  0.00  0.00    -0.263 NA
ATOM     24  C   UNL     1      13.816  -3.572   0.372  0.00  0.00    +0.122 A 
ENDBRANCH  16  19
ENDBRANCH  12  13
ENDBRANCH  11  12
ENDBRANCH   8  11
ENDBRANCH   4   7
BRANCH   1  25
ATOM     25  S   UNL     1       0.783  -4.979  -1.304  0.00  0.00    +0.072 S 
ATOM     26  O   UNL     1       0.556  -6.361  -1.065  0.00  0.00    -0.150 OA
ATOM     27  O   UNL     1       0.381  -4.338  -2.507  0.00  0.00    -0.150 OA
BRANCH  25  28
ATOM     28  N   UNL     1       0.053  -4.159  -0.064  0.00  0.00    -0.216 N 
ATOM     29  H   UNL     1      -0.484  -4.639   0.585  0.00  0.00    +0.174 HD
BRANCH  28  34
ATOM     30  C   UNL     1       0.697   1.458   0.388  0.00  0.00    +0.044 C 
ATOM     31  C   UNL     1       0.526  -0.035   0.268  0.00  0.00    -0.050 A 
ATOM     32  C   UNL     1       0.442  -0.622  -0.982  0.00  0.00    +0.005 A 
ATOM     33  C   UNL     1       0.286  -1.989  -1.096  0.00  0.00    +0.025 A 
ATOM     34  C   UNL     1       0.212  -2.775   0.047  0.00  0.00    +0.051 A 
ATOM     35  C   UNL     1       0.296  -2.183   1.301  0.00  0.00    -0.028 A 
ATOM     36  C   UNL     1       0.458  -0.815   1.407  0.00  0.00    +0.008 A 
ATOM     37  C   UNL     1       0.216  -3.032   2.543  0.00  0.00    +0.046 C 
ENDBRANCH  28  34
ENDBRANCH  25  28
ENDBRANCH   1  25
TORSDOF 8
