REMARK  Name = ZINC65197909
REMARK  6 active torsions:
REMARK  status: ('A' for Active; 'I' for Inactive)
REMARK    1  A    between atoms: C_6  and  S_11
REMARK    2  A    between atoms: S_11  and  C_12
REMARK    3  A    between atoms: C_12  and  C_13
REMARK    4  A    between atoms: N_15  and  N_16
REMARK    5  A    between atoms: N_19  and  C_20
REMARK    6  A    between atoms: C_20  and  C_21
REMARK                            x       y       z     vdW  Elec       q    Type
REMARK                         _______ _______ _______ _____ _____    ______ ____
ROOT
ATOM      1  C   UNL     1       6.002  -5.448  -0.082  0.00  0.00    +0.239 C 
ATOM      2  O   UNL     1       7.096  -4.925  -0.089  0.00  0.00    -0.273 OA
ATOM      3  N   UNL     1       5.898  -6.792  -0.088  0.00  0.00    -0.233 N 
ATOM      4  H   UNL     1       5.023  -7.211  -0.082  0.00  0.00    +0.173 HD
ENDROOT
BRANCH   3   5
ATOM      5  N   UNL     1       7.053  -7.584  -0.102  0.00  0.00    -0.218 N 
ATOM      6  C   UNL     1       6.949  -8.928  -0.108  0.00  0.00    +0.316 C 
ATOM      7  O   UNL     1       7.952  -9.615  -0.121  0.00  0.00    -0.251 OA
ATOM      8  N   UNL     1       5.734  -9.510  -0.100  0.00  0.00    -0.298 N 
ATOM      9  H   UNL     1       7.928  -7.165  -0.108  0.00  0.00    +0.174 HD
ATOM     10  H   UNL     1       4.934  -8.961  -0.090  0.00  0.00    +0.150 HD
BRANCH   8  11
ATOM     11  C   UNL     1       5.621 -10.970  -0.106  0.00  0.00    +0.109 C 
BRANCH  11  12
ATOM     12  C   UNL     1       4.143 -11.367  -0.095  0.00  0.00    +0.006 C 
ATOM     13  C   UNL     1       3.629 -12.139   1.122  0.00  0.00    +0.005 C 
ATOM     14  C   UNL     1       3.811 -12.856  -0.217  0.00  0.00    +0.005 C 
ENDBRANCH  11  12
ENDBRANCH   8  11
ENDBRANCH   3   5
BRANCH   1  15
ATOM     15  C   UNL     1       4.759  -4.596  -0.066  0.00  0.00    +0.171 C 
BRANCH  15  16
ATOM     16  S   UNL     1       5.227  -2.844  -0.061  0.00  0.00    -0.116 S 
BRANCH  16  22
ATOM     17  C   UNL     1      -0.016   1.357   0.009  0.00  0.00    +0.001 A 
ATOM     18  C   UNL     1       1.168   2.091   0.002  0.00  0.00    +0.001 A 
ATOM     19  C   UNL     1       2.378   1.468  -0.013  0.00  0.00    +0.008 A 
ATOM     20  C   UNL     1       2.437   0.063  -0.021  0.00  0.00    -0.017 A 
ATOM     21  C   UNL     1       3.668  -0.613  -0.036  0.00  0.00    +0.023 A 
ATOM     22  C   UNL     1       3.685  -1.991  -0.043  0.00  0.00    +0.009 A 
ATOM     23  C   UNL     1       2.489  -2.720  -0.036  0.00  0.00    +0.015 A 
ATOM     24  C   UNL     1       1.286  -2.089  -0.022  0.00  0.00    +0.009 A 
ATOM     25  C   UNL     1       1.232  -0.683  -0.013  0.00  0.00    -0.018 A 
ATOM     26  C   UNL     1       0.002  -0.004   0.002  0.00  0.00    +0.008 A 
ENDBRANCH  16  22
ENDBRANCH  15  16
ENDBRANCH   1  15
TORSDOF 6
