REMARK  Name = ZINC55148244
REMARK  8 active torsions:
REMARK  status: ('A' for Active; 'I' for Inactive)
REMARK    1  A    between atoms: C_1  and  C_2
REMARK    2  A    between atoms: C_2  and  C_3
REMARK    3  A    between atoms: C_2  and  C_4
REMARK    4  A    between atoms: C_2  and  C_5
REMARK    5  A    between atoms: C_11  and  C_13
REMARK    6  A    between atoms: C_18  and  C_21
REMARK    7  A    between atoms: C_21  and  C_22
REMARK    8  A    between atoms: C_22  and  N_23
REMARK                            x       y       z     vdW  Elec       q    Type
REMARK                         _______ _______ _______ _____ _____    ______ ____
ROOT
ATOM      1  C   UNL     1       0.330   0.674  -1.347  0.00  0.00    -0.003 C 
ATOM      2  C   UNL     1      -0.257   0.770  -2.757  0.00  0.00    +0.023 C 
ATOM      3  C   UNL     1       0.542  -0.133  -3.702  0.00  0.00    +0.108 C 
ATOM      4  N   UNL     1       1.963   0.230  -3.614  0.00  0.00    -0.301 N 
ATOM      5  C   UNL     1       2.605   0.258  -2.293  0.00  0.00    +0.108 C 
ATOM      6  C   UNL     1       1.782   1.157  -1.364  0.00  0.00    +0.023 C 
ATOM      7  C   UNL     1       2.664   0.532  -4.725  0.00  0.00    +0.219 C 
ATOM      8  O   UNL     1       2.151   0.414  -5.817  0.00  0.00    -0.275 OA
ENDROOT
BRANCH   7   9
ATOM      9  C   UNL     1       4.087   1.016  -4.609  0.00  0.00    +0.075 C 
ATOM     10  C   UNL     1       5.028  -0.186  -4.507  0.00  0.00    +0.013 C 
ATOM     11  C   UNL     1       6.472   0.306  -4.390  0.00  0.00    +0.001 C 
ATOM     12  C   UNL     1       6.832   1.132  -5.627  0.00  0.00    +0.003 C 
ATOM     13  C   UNL     1       5.891   2.334  -5.728  0.00  0.00    -0.012 C 
ATOM     14  C   UNL     1       4.447   1.842  -5.846  0.00  0.00    +0.016 C 
BRANCH  13  15
ATOM     15  C   UNL     1       6.250   3.160  -6.965  0.00  0.00    -0.016 C 
BRANCH  15  16
ATOM     16  C   UNL     1       7.649   3.755  -6.792  0.00  0.00    -0.086 C 
BRANCH  16  17
ATOM     17  N   UNL     1       7.995   4.548  -7.979  0.00  0.00    +0.378 N 
ATOM     18  H   UNL     1       7.980   3.955  -8.795  0.00  0.00    -0.090 HD
ATOM     19  H   UNL     1       7.324   5.293  -8.092  0.00  0.00    -0.090 HD
ATOM     20  H   UNL     1       8.917   4.940  -7.865  0.00  0.00    -0.090 HD
ENDBRANCH  16  17
ENDBRANCH  15  16
ENDBRANCH  13  15
ENDBRANCH   7   9
BRANCH   1  22
ATOM     21  C   UNL     1      -0.438   3.003  -0.867  0.00  0.00    +0.011 C 
ATOM     22  C   UNL     1      -0.487   1.548  -0.394  0.00  0.00    -0.035 C 
ATOM     23  C   UNL     1       0.099   1.451   1.016  0.00  0.00    +0.011 C 
ATOM     24  C   UNL     1      -1.938   1.066  -0.377  0.00  0.00    +0.011 C 
ENDBRANCH   1  22
TORSDOF 5
