REMARK  Name = ZINC41288832
REMARK  9 active torsions:
REMARK  status: ('A' for Active; 'I' for Inactive)
REMARK    1  A    between atoms: C_1  and  C_2
REMARK    2  A    between atoms: C_5  and  C_14
REMARK    3  A    between atoms: C_12  and  C_13
REMARK    4  A    between atoms: C_14  and  N_15
REMARK    5  A    between atoms: C_16  and  C_18
REMARK    6  A    between atoms: C_21  and  C_24
REMARK    7  A    between atoms: C_24  and  C_25
REMARK    8  A    between atoms: C_24  and  C_26
REMARK    9  A    between atoms: C_24  and  C_27
REMARK                            x       y       z     vdW  Elec       q    Type
REMARK                         _______ _______ _______ _____ _____    ______ ____
ROOT
ATOM      1  C   UNL     1       0.013  -2.109  -3.782  0.00  0.00    +0.140 C 
ENDROOT
BRANCH   1   6
ATOM      2  C   UNL     1      -0.018   1.503   0.010  0.00  0.00    +0.044 C 
ATOM      3  C   UNL     1       0.002  -0.004   0.002  0.00  0.00    -0.047 A 
ATOM      4  C   UNL     1       0.006  -0.676  -1.188  0.00  0.00    +0.015 A 
ATOM      5  C   UNL     1       0.025  -2.074  -1.195  0.00  0.00    +0.023 A 
ATOM      6  C   UNL     1       0.029  -2.824  -2.455  0.00  0.00    -0.013 A 
ATOM      7  C   UNL     1       0.049  -4.179  -2.393  0.00  0.00    +0.097 A 
ATOM      8  C   UNL     1       0.063  -4.825  -1.138  0.00  0.00    +0.338 A 
ATOM      9  O   UNL     1       0.080  -6.042  -1.097  0.00  0.00    -0.245 OA
ATOM     10  O   UNL     1       0.059  -4.131   0.011  0.00  0.00    -0.422 OA
ATOM     11  C   UNL     1       0.040  -2.781   0.019  0.00  0.00    +0.140 A 
ATOM     12  C   UNL     1       0.036  -2.078   1.217  0.00  0.00    +0.050 A 
ATOM     13  C   UNL     1       0.023  -0.699   1.202  0.00  0.00    -0.044 A 
ATOM     14  C   UNL     1       0.025   0.061   2.504  0.00  0.00    +0.044 C 
ENDBRANCH   1   6
BRANCH   1  15
ATOM     15  N   UNL     1      -1.369  -1.791  -4.148  0.00  0.00    -0.307 N 
ATOM     16  C   UNL     1      -1.629  -1.147  -5.303  0.00  0.00    +0.244 C 
ATOM     17  O   UNL     1      -0.717  -0.831  -6.041  0.00  0.00    -0.270 OA
ATOM     18  H   UNL     1      -2.098  -2.044  -3.559  0.00  0.00    +0.149 HD
BRANCH  16  19
ATOM     19  C   UNL     1      -3.024  -0.827  -5.673  0.00  0.00    +0.037 A 
ATOM     20  C   UNL     1      -4.074  -1.184  -4.825  0.00  0.00    +0.013 A 
ATOM     21  C   UNL     1      -5.373  -0.881  -5.176  0.00  0.00    +0.005 A 
ATOM     22  C   UNL     1      -5.637  -0.225  -6.365  0.00  0.00    -0.042 A 
ATOM     23  C   UNL     1      -4.601   0.131  -7.210  0.00  0.00    +0.005 A 
ATOM     24  C   UNL     1      -3.297  -0.160  -6.869  0.00  0.00    +0.013 A 
BRANCH  22  25
ATOM     25  C   UNL     1      -7.059   0.102  -6.742  0.00  0.00    -0.013 C 
ATOM     26  C   UNL     1      -7.675   1.008  -5.674  0.00  0.00    +0.015 C 
ATOM     27  C   UNL     1      -7.077   0.821  -8.092  0.00  0.00    +0.015 C 
ATOM     28  C   UNL     1      -7.871  -1.192  -6.843  0.00  0.00    +0.015 C 
ENDBRANCH  22  25
ENDBRANCH  16  19
ENDBRANCH   1  15
TORSDOF 4
