REMARK  Name = ZINC02301926
REMARK  5 active torsions:
REMARK  status: ('A' for Active; 'I' for Inactive)
REMARK    1  A    between atoms: C_1  and  C_2
REMARK    2  A    between atoms: C_5  and  C_29
REMARK    3  A    between atoms: C_8  and  C_10
REMARK    4  A    between atoms: C_11  and  C_23
REMARK    5  A    between atoms: C_33  and  N_35
REMARK                            x       y       z     vdW  Elec       q    Type
REMARK                         _______ _______ _______ _____ _____    ______ ____
ROOT
ATOM      1  C   UNL     1       3.665   3.111   0.081  0.00  0.00    +0.070 A 
ATOM      2  C   UNL     1       3.321   2.286  -0.989  0.00  0.00    +0.005 A 
ATOM      3  C   UNL     1       1.957   1.739  -1.036  0.00  0.00    +0.008 A 
ATOM      4  C   UNL     1       1.561   0.906  -2.087  0.00  0.00    +0.025 A 
ATOM      5  C   UNL     1       0.279   0.404  -2.115  0.00  0.00    +0.019 A 
ATOM      6  C   UNL     1      -0.618   0.716  -1.101  0.00  0.00    +0.017 A 
ATOM      7  C   UNL     1      -0.244   1.540  -0.063  0.00  0.00    +0.027 A 
ATOM      8  C   UNL     1       1.047   2.059  -0.014  0.00  0.00    +0.050 A 
ATOM      9  N   UNL     1       1.426   2.880   1.029  0.00  0.00    -0.322 N 
ATOM     10  H   UNL     1       0.781   3.089   1.724  0.00  0.00    +0.169 HD
ATOM     11  C   UNL     1       2.663   3.399   1.107  0.00  0.00    +0.259 A 
ATOM     12  O   UNL     1       2.954   4.119   2.046  0.00  0.00    -0.267 OA
ATOM     13 BR   UNL     1      -0.260  -0.723  -3.535  0.00  0.00    -0.050 Br
ENDROOT
BRANCH   1  20
ATOM     14  C   UNL     1       6.501   7.735   0.341  0.00  0.00    +0.111 C 
ATOM     15  C   UNL     1       7.301   6.458   0.368  0.00  0.00    +0.229 C 
ATOM     16  O   UNL     1       8.511   6.502   0.444  0.00  0.00    -0.274 OA
ATOM     17  N   UNL     1       6.673   5.267   0.308  0.00  0.00    -0.211 N 
ATOM     18  C   UNL     1       7.298   3.935   0.324  0.00  0.00    +0.152 C 
ATOM     19  C   UNL     1       6.141   2.965   0.240  0.00  0.00    +0.027 C 
ATOM     20  C   UNL     1       5.021   3.687   0.176  0.00  0.00    +0.056 C 
ATOM     21  N   UNL     1       5.292   5.048   0.217  0.00  0.00    -0.261 N 
ATOM     22  H   UNL     1       4.620   5.747   0.187  0.00  0.00    +0.170 HD
BRANCH  18  23
ATOM     23  C   UNL     1       8.214   3.771  -0.862  0.00  0.00    -0.019 A 
ATOM     24  C   UNL     1       7.839   4.264  -2.098  0.00  0.00    +0.006 A 
ATOM     25  C   UNL     1       8.679   4.113  -3.185  0.00  0.00    +0.003 A 
ATOM     26  C   UNL     1       9.894   3.470  -3.037  0.00  0.00    +0.033 A 
ATOM     27  C   UNL     1      10.269   2.978  -1.801  0.00  0.00    +0.127 A 
ATOM     28  C   UNL     1       9.430   3.132  -0.712  0.00  0.00    +0.038 A 
BRANCH  27  29
ATOM     29  N   UNL     1      11.569   2.289  -1.641  0.00  0.00    +0.056 N 
ATOM     30  O   UNL     1      12.309   2.156  -2.600  0.00  0.00    -0.126 OA
ATOM     31  O   UNL     1      11.899   1.856  -0.552  0.00  0.00    -0.126 OA
ENDBRANCH  27  29
ENDBRANCH  18  23
ENDBRANCH   1  20
BRANCH   2  32
ATOM     32  C   UNL     1       4.301   1.970  -2.048  0.00  0.00    -0.016 A 
ATOM     33  C   UNL     1       4.734   2.967  -2.924  0.00  0.00    +0.008 A 
ATOM     34  C   UNL     1       5.655   2.666  -3.906  0.00  0.00    +0.001 A 
ATOM     35  C   UNL     1       6.140   1.377  -4.032  0.00  0.00    +0.000 A 
ATOM     36  C   UNL     1       5.711   0.382  -3.172  0.00  0.00    +0.001 A 
ATOM     37  C   UNL     1       4.795   0.670  -2.181  0.00  0.00    +0.008 A 
ENDBRANCH   2  32
TORSDOF 4
