REMARK  Name = ZINC09222732
REMARK  10 active torsions:
REMARK  status: ('A' for Active; 'I' for Inactive)
REMARK    1  A    between atoms: C_1  and  C_2
REMARK    2  A    between atoms: C_2  and  N_3
REMARK    3  A    between atoms: N_3  and  C_4
REMARK    4  A    between atoms: N_3  and  S_6
REMARK    5  A    between atoms: C_4  and  C_5
REMARK    6  A    between atoms: S_6  and  C_9
REMARK    7  A    between atoms: C_12  and  N_15
REMARK    8  A    between atoms: C_17  and  C_22
REMARK    9  A    between atoms: N_24  and  C_25
REMARK   10  A    between atoms: C_30  and  C_31
REMARK                            x       y       z     vdW  Elec       q    Type
REMARK                         _______ _______ _______ _____ _____    ______ ____
ROOT
ATOM      1  N   UNL     1      -4.843   3.930   3.523  0.00  0.00    -0.271 N 
ATOM      2  C   UNL     1      -4.220   4.858   4.474  0.00  0.00    +0.127 C 
ATOM      3  C   UNL     1      -5.052   6.159   4.383  0.00  0.00    +0.102 C 
ATOM      4  C   UNL     1      -6.420   5.622   3.901  0.00  0.00    +0.110 C 
ATOM      5  C   UNL     1      -6.083   4.330   3.191  0.00  0.00    +0.221 C 
ATOM      6  O   UNL     1      -6.823   3.740   2.433  0.00  0.00    -0.275 OA
ENDROOT
BRANCH   1  10
ATOM      7  C   UNL     1      -3.010   0.489   2.053  0.00  0.00    +0.106 A 
ATOM      8  C   UNL     1      -2.299   1.359   2.859  0.00  0.00    +0.030 A 
ATOM      9  C   UNL     1      -2.902   2.503   3.343  0.00  0.00    +0.025 A 
ATOM     10  C   UNL     1      -4.228   2.774   3.029  0.00  0.00    +0.036 A 
ATOM     11  C   UNL     1      -4.941   1.896   2.224  0.00  0.00    +0.025 A 
ATOM     12  C   UNL     1      -4.330   0.756   1.738  0.00  0.00    +0.030 A 
BRANCH   7  13
ATOM     13  S   UNL     1      -2.236  -0.966   1.432  0.00  0.00    +0.061 S 
ATOM     14  O   UNL     1      -3.276  -1.894   1.156  0.00  0.00    -0.153 OA
ATOM     15  O   UNL     1      -1.164  -1.264   2.316  0.00  0.00    -0.153 OA
BRANCH  13  16
ATOM     16  N   UNL     1      -1.553  -0.574  -0.025  0.00  0.00    -0.177 NA
BRANCH  16  18
ATOM     17  C   UNL     1      -0.181   1.450  -0.083  0.00  0.00    +0.022 C 
ATOM     18  C   UNL     1      -0.175  -0.080  -0.078  0.00  0.00    +0.106 C 
ENDBRANCH  16  18
BRANCH  16  19
ATOM     19  C   UNL     1      -2.327  -0.721  -1.260  0.00  0.00    +0.106 C 
ATOM     20  C   UNL     1      -2.020  -2.079  -1.895  0.00  0.00    +0.022 C 
ENDBRANCH  16  19
ENDBRANCH  13  16
ENDBRANCH   7  13
ENDBRANCH   1  10
BRANCH   3  21
ATOM     21  C   UNL     1      -4.463   7.113   3.377  0.00  0.00    +0.222 C 
ATOM     22  O   UNL     1      -3.401   6.858   2.848  0.00  0.00    -0.275 OA
ATOM     23  N   UNL     1      -5.115   8.250   3.064  0.00  0.00    -0.285 N 
ATOM     24  H   UNL     1      -5.934   8.482   3.528  0.00  0.00    +0.155 HD
BRANCH  23  25
ATOM     25  C   UNL     1      -4.610   9.095   2.072  0.00  0.00    +0.041 A 
ATOM     26  C   UNL     1      -3.253   9.095   1.781  0.00  0.00    +0.024 A 
ATOM     27  C   UNL     1      -2.756   9.931   0.800  0.00  0.00    +0.002 A 
ATOM     28  C   UNL     1      -3.605  10.772   0.103  0.00  0.00    +0.001 A 
ATOM     29  C   UNL     1      -4.957  10.783   0.381  0.00  0.00    +0.010 A 
ATOM     30  C   UNL     1      -5.471   9.941   1.364  0.00  0.00    +0.003 A 
BRANCH  30  31
ATOM     31  C   UNL     1      -6.924   9.944   1.663  0.00  0.00    -0.016 A 
ATOM     32  C   UNL     1      -7.631   8.743   1.711  0.00  0.00    +0.008 A 
ATOM     33  C   UNL     1      -8.981   8.752   1.996  0.00  0.00    +0.001 A 
ATOM     34  C   UNL     1      -9.636   9.949   2.220  0.00  0.00    +0.000 A 
ATOM     35  C   UNL     1      -8.941  11.144   2.167  0.00  0.00    +0.001 A 
ATOM     36  C   UNL     1      -7.589  11.147   1.890  0.00  0.00    +0.008 A 
ENDBRANCH  30  31
ENDBRANCH  23  25
ENDBRANCH   3  21
TORSDOF 8
