REMARK  Name = ZINC63666752
REMARK  12 active torsions:
REMARK  status: ('A' for Active; 'I' for Inactive)
REMARK    1  A    between atoms: C_1  and  C_2
REMARK    2  A    between atoms: C_2  and  N_3
REMARK    3  A    between atoms: N_3  and  C_4
REMARK    4  A    between atoms: N_3  and  S_6
REMARK    5  A    between atoms: C_4  and  C_5
REMARK    6  A    between atoms: S_6  and  C_9
REMARK    7  A    between atoms: C_16  and  C_22
REMARK    8  A    between atoms: C_19  and  C_21
REMARK    9  A    between atoms: N_24  and  C_25
REMARK   10  A    between atoms: C_25  and  C_26
REMARK   11  A    between atoms: C_26  and  C_27
REMARK   12  A    between atoms: C_30  and  C_36
REMARK                            x       y       z     vdW  Elec       q    Type
REMARK                         _______ _______ _______ _____ _____    ______ ____
ROOT
ATOM      1  C   UNL     1      -2.909   0.501   2.087  0.00  0.00    +0.106 A 
ATOM      2  C   UNL     1      -2.230   1.377   2.914  0.00  0.00    +0.030 A 
ATOM      3  C   UNL     1      -2.853   2.512   3.385  0.00  0.00    +0.026 A 
ATOM      4  C   UNL     1      -4.176   2.787   3.032  0.00  0.00    +0.040 A 
ATOM      5  C   UNL     1      -4.848   1.904   2.202  0.00  0.00    -0.022 A 
ATOM      6  C   UNL     1      -4.217   0.770   1.727  0.00  0.00    +0.034 A 
ATOM      7  C   UNL     1      -6.248   2.428   1.974  0.00  0.00    +0.069 C 
ATOM      8  C   UNL     1      -6.308   3.736   2.781  0.00  0.00    +0.171 C 
ATOM      9  N   UNL     1      -4.984   3.869   3.395  0.00  0.00    -0.259 N 
ATOM     10  C   UNL     1      -4.601   4.885   4.194  0.00  0.00    +0.217 C 
ATOM     11  O   UNL     1      -3.508   4.865   4.719  0.00  0.00    -0.276 OA
ATOM     12  C   UNL     1      -5.532   6.045   4.435  0.00  0.00    +0.109 C 
ENDROOT
BRANCH   8  13
ATOM     13  C   UNL     1      -6.581   4.902   1.867  0.00  0.00    +0.234 C 
ATOM     14  O   UNL     1      -5.670   5.615   1.504  0.00  0.00    -0.274 OA
ATOM     15  N   UNL     1      -7.839   5.152   1.452  0.00  0.00    -0.313 N 
ATOM     16  H   UNL     1      -8.568   4.581   1.741  0.00  0.00    +0.149 HD
BRANCH  15  17
ATOM     17  C   UNL     1      -8.105   6.286   0.563  0.00  0.00    +0.108 C 
BRANCH  17  18
ATOM     18  C   UNL     1      -9.601   6.345   0.246  0.00  0.00    +0.052 C 
BRANCH  18  19
ATOM     19  C   UNL     1      -9.875   7.511  -0.669  0.00  0.00    -0.040 C 
ATOM     20  C   UNL     1      -9.963   7.483  -2.018  0.00  0.00    -0.001 A 
ATOM     21  C   UNL     1      -9.835   6.400  -3.001  0.00  0.00    +0.013 A 
ATOM     22  C   UNL     1      -9.977   6.686  -4.315  0.00  0.00    -0.050 A 
ATOM     23  C   UNL     1     -10.243   7.988  -4.761  0.00  0.00    +0.005 A 
ATOM     24  C   UNL     1     -10.375   9.035  -3.919  0.00  0.00    +0.026 A 
ATOM     25  C   UNL     1     -10.245   8.849  -2.515  0.00  0.00    +0.043 A 
ATOM     26  N   UNL     1     -10.328   9.688  -1.511  0.00  0.00    -0.380 N 
ATOM     27  C   UNL     1     -10.113   8.948  -0.263  0.00  0.00    +0.144 C 
ATOM     28  C   UNL     1      -9.846   5.577  -5.326  0.00  0.00    +0.044 C 
ATOM     29  H   UNL     1     -10.505  10.639  -1.582  0.00  0.00    +0.160 HD
ENDBRANCH  18  19
ENDBRANCH  17  18
ENDBRANCH  15  17
ENDBRANCH   8  13
BRANCH   1  30
ATOM     30  S   UNL     1      -2.109  -0.949   1.487  0.00  0.00    +0.061 S 
ATOM     31  O   UNL     1      -3.136  -1.878   1.168  0.00  0.00    -0.153 OA
ATOM     32  O   UNL     1      -1.069  -1.250   2.409  0.00  0.00    -0.153 OA
BRANCH  30  33
ATOM     33  N   UNL     1      -1.373  -0.547   0.059  0.00  0.00    -0.177 NA
BRANCH  33  35
ATOM     34  C   UNL     1      -0.006   1.480   0.062  0.00  0.00    +0.022 C 
ATOM     35  C   UNL     1       0.004  -0.050   0.059  0.00  0.00    +0.106 C 
ENDBRANCH  33  35
BRANCH  33  36
ATOM     36  C   UNL     1      -2.101  -0.690  -1.205  0.00  0.00    +0.106 C 
ATOM     37  C   UNL     1      -1.768  -2.043  -1.836  0.00  0.00    +0.022 C 
ENDBRANCH  33  36
ENDBRANCH  30  33
ENDBRANCH   1  30
TORSDOF 8
