REMARK  Name = ZINC18586658
REMARK  11 active torsions:
REMARK  status: ('A' for Active; 'I' for Inactive)
REMARK    1  A    between atoms: C_1  and  C_2
REMARK    2  A    between atoms: C_4  and  C_19
REMARK    3  A    between atoms: C_6  and  S_9
REMARK    4  A    between atoms: C_7  and  C_8
REMARK    5  A    between atoms: S_9  and  N_12
REMARK    6  A    between atoms: C_15  and  C_18
REMARK    7  A    between atoms: C_19  and  O_21
REMARK    8  A    between atoms: O_21  and  C_22
REMARK    9  A    between atoms: C_22  and  C_24
REMARK   10  A    between atoms: C_22  and  C_25
REMARK   11  A    between atoms: N_30  and  C_31
REMARK                            x       y       z     vdW  Elec       q    Type
REMARK                         _______ _______ _______ _____ _____    ______ ____
ROOT
ATOM      1  C   UNL     1      11.063   5.481   5.677  0.00  0.00    +0.044 C 
ATOM      2  C   UNL     1      11.575   4.417   4.740  0.00  0.00    -0.045 A 
ATOM      3  C   UNL     1      10.736   3.878   3.787  0.00  0.00    +0.018 A 
ATOM      4  C   UNL     1      11.211   2.888   2.924  0.00  0.00    +0.061 A 
ATOM      5  C   UNL     1      12.536   2.459   3.025  0.00  0.00    +0.043 A 
ATOM      6  C   UNL     1      13.365   3.010   3.979  0.00  0.00    +0.109 A 
ATOM      7  C   UNL     1      12.887   3.987   4.835  0.00  0.00    -0.021 A 
ATOM      8  C   UNL     1      13.799   4.586   5.874  0.00  0.00    +0.046 C 
ENDROOT
BRANCH   6   9
ATOM      9  S   UNL     1      15.037   2.471   4.108  0.00  0.00    +0.061 S 
ATOM     10  O   UNL     1      15.270   2.193   5.482  0.00  0.00    -0.153 OA
ATOM     11  O   UNL     1      15.230   1.497   3.091  0.00  0.00    -0.153 OA
BRANCH   9  12
ATOM     12  N   UNL     1      16.000   3.760   3.716  0.00  0.00    -0.177 NA
ATOM     13  C   UNL     1      16.419   3.986   2.326  0.00  0.00    +0.110 C 
ATOM     14  C   UNL     1      17.941   4.110   2.280  0.00  0.00    +0.020 C 
ATOM     15  C   UNL     1      18.393   5.197   3.258  0.00  0.00    -0.012 C 
ATOM     16  C   UNL     1      17.981   4.809   4.680  0.00  0.00    +0.020 C 
ATOM     17  C   UNL     1      16.455   4.697   4.753  0.00  0.00    +0.110 C 
ATOM     18  C   UNL     1      19.914   5.343   3.189  0.00  0.00    +0.007 C 
ENDBRANCH   9  12
ENDBRANCH   6   9
BRANCH   4  19
ATOM     19  C   UNL     1      10.317   2.302   1.905  0.00  0.00    +0.340 C 
ATOM     20  O   UNL     1      10.733   1.444   1.152  0.00  0.00    -0.245 OA
BRANCH  19  21
ATOM     21  O   UNL     1       9.039   2.718   1.810  0.00  0.00    -0.449 OA
BRANCH  21  22
ATOM     22  C   UNL     1       8.218   2.098   0.785  0.00  0.00    +0.259 C 
ATOM     23  C   UNL     1       8.331   2.900  -0.513  0.00  0.00    +0.062 C 
BRANCH  22  24
ATOM     24  C   UNL     1       6.781   2.076   1.238  0.00  0.00    +0.261 C 
ATOM     25  O   UNL     1       6.464   2.617   2.276  0.00  0.00    -0.271 OA
ATOM     26  N   UNL     1       5.848   1.455   0.490  0.00  0.00    -0.237 N 
ATOM     27  C   UNL     1       4.563   1.435   0.895  0.00  0.00    +0.306 C 
ATOM     28  O   UNL     1       4.245   1.978   1.935  0.00  0.00    -0.252 OA
ATOM     29  N   UNL     1       3.630   0.814   0.146  0.00  0.00    -0.296 N 
ATOM     30  H   UNL     1       6.101   1.022  -0.341  0.00  0.00    +0.159 HD
ATOM     31  H   UNL     1       3.883   0.381  -0.684  0.00  0.00    +0.151 HD
BRANCH  29  32
ATOM     32  C   UNL     1       2.232   0.792   0.586  0.00  0.00    +0.074 C 
ATOM     33  C   UNL     1       1.453   1.995  -0.001  0.00  0.00    +0.022 C 
ATOM     34  C   UNL     1      -0.019   1.534   0.011  0.00  0.00    +0.002 C 
ATOM     35  C   UNL     1       0.002  -0.004   0.002  0.00  0.00    +0.002 C 
ATOM     36  C   UNL     1       1.486  -0.425  -0.014  0.00  0.00    +0.022 C 
ENDBRANCH  29  32
ENDBRANCH  22  24
ENDBRANCH  21  22
ENDBRANCH  19  21
ENDBRANCH   4  19
TORSDOF 7
