REMARK  Name = ZINC19901063
REMARK  12 active torsions:
REMARK  status: ('A' for Active; 'I' for Inactive)
REMARK    1  A    between atoms: C_1  and  C_2
REMARK    2  A    between atoms: N_4  and  C_5
REMARK    3  A    between atoms: C_8  and  N_11
REMARK    4  A    between atoms: N_16  and  C_17
REMARK    5  A    between atoms: C_17  and  C_19
REMARK    6  A    between atoms: C_17  and  C_29
REMARK    7  A    between atoms: C_20  and  C_21
REMARK    8  A    between atoms: C_29  and  C_30
REMARK    9  A    between atoms: C_29  and  C_31
REMARK   10  A    between atoms: C_29  and  C_32
REMARK   11  A    between atoms: C_33  and  C_34
REMARK   12  A    between atoms: C_33  and  C_35
REMARK                            x       y       z     vdW  Elec       q    Type
REMARK                         _______ _______ _______ _____ _____    ______ ____
ROOT
ATOM      1  N   UNL     1      -1.339  -2.729   4.901  0.00  0.00    -0.270 N 
ATOM      2  C   UNL     1      -1.635  -1.506   5.373  0.00  0.00    +0.143 C 
ATOM      3  S   UNL     1      -2.475  -1.233   6.839  0.00  0.00    -0.018 S 
ATOM      4  N   UNL     1      -1.195  -0.525   4.577  0.00  0.00    -0.287 N 
ATOM      5  C   UNL     1      -0.558  -1.037   3.468  0.00  0.00    +0.089 C 
ATOM      6  N   UNL     1      -0.019  -0.374   2.499  0.00  0.00    -0.327 N 
ATOM      7  C   UNL     1      -0.619  -2.543   3.630  0.00  0.00    +0.087 C 
ATOM      8  C   UNL     1      -1.395  -3.177   2.474  0.00  0.00    +0.039 C 
ATOM      9  C   UNL     1       0.791  -3.131   3.720  0.00  0.00    +0.039 C 
ATOM     10  H   UNL     1       0.465  -0.909   1.669  0.00  0.00    +0.148 HD
ATOM     11  H   UNL     1      -1.283   0.564   4.707  0.00  0.00    +0.155 HD
ENDROOT
BRANCH   1  15
ATOM     12  C   UNL     1      -2.285  -6.372   6.697  0.00  0.00    +0.033 A 
ATOM     13  C   UNL     1      -1.398  -5.501   7.317  0.00  0.00    +0.025 A 
ATOM     14  C   UNL     1      -1.085  -4.295   6.722  0.00  0.00    +0.025 A 
ATOM     15  C   UNL     1      -1.657  -3.953   5.504  0.00  0.00    +0.036 A 
ATOM     16  C   UNL     1      -2.548  -4.821   4.887  0.00  0.00    +0.025 A 
ATOM     17  C   UNL     1      -2.857  -6.029   5.479  0.00  0.00    +0.025 A 
BRANCH  12  21
ATOM     18  C   UNL     1      -3.291  -9.968   7.177  0.00  0.00    +0.109 C 
ATOM     19  C   UNL     1      -2.830  -8.683   6.538  0.00  0.00    +0.214 C 
ATOM     20  O   UNL     1      -2.664  -8.629   5.338  0.00  0.00    -0.276 OA
ATOM     21  N   UNL     1      -2.602  -7.595   7.300  0.00  0.00    -0.286 N 
ATOM     22  H   UNL     1      -2.665  -7.668   8.396  0.00  0.00    +0.155 HD
ENDBRANCH  12  21
ENDBRANCH   1  15
BRANCH   6  23
ATOM     23  C   UNL     1      -0.054   1.091   2.505  0.00  0.00    +0.100 C 
BRANCH  23  24
ATOM     24  C   UNL     1      -0.793   1.588   1.261  0.00  0.00    -0.016 C 
ATOM     25  C   UNL     1      -0.067   1.100   0.006  0.00  0.00    +0.013 C 
ATOM     26  C   UNL     1      -0.829   3.118   1.267  0.00  0.00    +0.013 C 
ATOM     27  C   UNL     1      -2.223   1.045   1.267  0.00  0.00    +0.013 C 
ENDBRANCH  23  24
BRANCH  23  28
ATOM     28  C   UNL     1       1.355   1.626   2.499  0.00  0.00    -0.004 C 
ATOM     29  C   UNL     1       1.808   2.311   3.540  0.00  0.00    +0.007 C 
BRANCH  29  30
ATOM     30  C   UNL     1       3.189   2.837   3.535  0.00  0.00    -0.007 A 
ATOM     31  C   UNL     1       4.021   2.608   2.438  0.00  0.00    +0.011 A 
ATOM     32  C   UNL     1       5.308   3.105   2.436  0.00  0.00    +0.020 A 
ATOM     33  C   UNL     1       5.779   3.821   3.525  0.00  0.00    +0.042 A 
ATOM     34  C   UNL     1       4.961   4.046   4.618  0.00  0.00    +0.040 A 
ATOM     35  C   UNL     1       3.669   3.558   4.629  0.00  0.00    +0.049 A 
ATOM     36 CL   UNL     1       2.644   3.841   6.002  0.00  0.00    -0.083 Cl
ATOM     37 CL   UNL     1       7.401   4.438   3.517  0.00  0.00    -0.083 Cl
ENDBRANCH  29  30
ENDBRANCH  23  28
ENDBRANCH   6  23
TORSDOF 6
