REMARK  Name = ZINC12819801
REMARK  8 active torsions:
REMARK  status: ('A' for Active; 'I' for Inactive)
REMARK    1  A    between atoms: C_1  and  C_2
REMARK    2  A    between atoms: C_2  and  C_26
REMARK    3  A    between atoms: N_5  and  C_9
REMARK    4  A    between atoms: C_9  and  C_10
REMARK    5  A    between atoms: N_12  and  C_13
REMARK    6  A    between atoms: C_18  and  S_19
REMARK    7  A    between atoms: S_19  and  C_20
REMARK    8  A    between atoms: C_30  and  N_32
REMARK                            x       y       z     vdW  Elec       q    Type
REMARK                         _______ _______ _______ _____ _____    ______ ____
ROOT
ATOM      1  C   UNL     1      -1.021  15.356   1.111  0.00  0.00    +0.047 C 
ATOM      2  C   UNL     1      -1.869  14.168   0.654  0.00  0.00    +0.135 C 
ATOM      3  C   UNL     1      -1.235  12.861   1.088  0.00  0.00    +0.251 C 
ATOM      4  O   UNL     1      -1.014  12.495   2.223  0.00  0.00    -0.272 OA
ATOM      5  N   UNL     1      -0.967  12.191  -0.050  0.00  0.00    -0.215 N 
ATOM      6  C   UNL     1      -1.335  12.888  -1.131  0.00  0.00    +0.310 C 
ATOM      7  O   UNL     1      -1.190  12.492  -2.272  0.00  0.00    -0.252 OA
ATOM      8  N   UNL     1      -1.886  14.073  -0.816  0.00  0.00    -0.281 N 
ATOM      9  H   UNL     1      -2.226  14.738  -1.435  0.00  0.00    +0.152 HD
ENDROOT
BRANCH   2  10
ATOM     10  C   UNL     1      -3.272  14.281   1.195  0.00  0.00    -0.014 A 
ATOM     11  C   UNL     1      -3.602  13.673   2.392  0.00  0.00    +0.006 A 
ATOM     12  C   UNL     1      -4.888  13.775   2.891  0.00  0.00    +0.002 A 
ATOM     13  C   UNL     1      -5.846  14.485   2.194  0.00  0.00    +0.028 A 
ATOM     14  C   UNL     1      -5.517  15.097   0.992  0.00  0.00    +0.069 A 
ATOM     15  C   UNL     1      -4.224  14.997   0.496  0.00  0.00    +0.034 A 
BRANCH  14  16
ATOM     16  N   UNL     1      -6.488  15.818   0.282  0.00  0.00    -0.200 N 
ATOM     17  C   UNL     1      -7.754  16.088   0.667  0.00  0.00    +0.250 A 
ATOM     18  N   UNL     1      -8.310  16.786  -0.288  0.00  0.00    -0.116 NA
ATOM     19  N   UNL     1      -7.485  16.969  -1.254  0.00  0.00    -0.023 NA
ATOM     20  N   UNL     1      -6.354  16.411  -0.986  0.00  0.00    -0.039 NA
ENDBRANCH  14  16
ENDBRANCH   2  10
BRANCH   5  21
ATOM     21  C   UNL     1      -0.343  10.866  -0.098  0.00  0.00    +0.214 C 
BRANCH  21  22
ATOM     22  C   UNL     1      -1.413   9.806  -0.060  0.00  0.00    +0.235 C 
ATOM     23  O   UNL     1      -2.582  10.125   0.001  0.00  0.00    -0.274 OA
ATOM     24  N   UNL     1      -1.071   8.502  -0.094  0.00  0.00    -0.283 N 
ATOM     25  H   UNL     1      -0.144   8.247  -0.221  0.00  0.00    +0.155 HD
BRANCH  24  26
ATOM     26  C   UNL     1      -2.055   7.516   0.055  0.00  0.00    +0.047 A 
ATOM     27  C   UNL     1      -3.238   7.808   0.718  0.00  0.00    +0.024 A 
ATOM     28  C   UNL     1      -4.205   6.832   0.869  0.00  0.00    +0.002 A 
ATOM     29  C   UNL     1      -4.000   5.564   0.354  0.00  0.00    +0.001 A 
ATOM     30  C   UNL     1      -2.828   5.266  -0.314  0.00  0.00    +0.017 A 
ATOM     31  C   UNL     1      -1.851   6.239  -0.469  0.00  0.00    +0.034 A 
BRANCH  31  32
ATOM     32  S   UNL     1      -0.355   5.862  -1.320  0.00  0.00    -0.088 S 
BRANCH  32  33
ATOM     33  C   UNL     1      -0.540   6.659  -2.881  0.00  0.00    +0.013 A 
ATOM     34  C   UNL     1       0.513   6.667  -3.788  0.00  0.00    +0.015 A 
ATOM     35  C   UNL     1       0.365   7.293  -5.010  0.00  0.00    +0.001 A 
ATOM     36  C   UNL     1      -0.829   7.912  -5.331  0.00  0.00    +0.000 A 
ATOM     37  C   UNL     1      -1.877   7.911  -4.429  0.00  0.00    +0.001 A 
ATOM     38  C   UNL     1      -1.739   7.282  -3.208  0.00  0.00    +0.015 A 
ENDBRANCH  32  33
ENDBRANCH  31  32
ENDBRANCH  24  26
ENDBRANCH  21  22
ENDBRANCH   5  21
TORSDOF 7
