REMARK  Name = ZINC65489525
REMARK  8 active torsions:
REMARK  status: ('A' for Active; 'I' for Inactive)
REMARK    1  A    between atoms: C_1  and  C_2
REMARK    2  A    between atoms: C_3  and  C_26
REMARK    3  A    between atoms: C_9  and  C_12
REMARK    4  A    between atoms: C_16  and  N_23
REMARK    5  A    between atoms: C_19  and  C_21
REMARK    6  A    between atoms: C_21  and  O_22
REMARK    7  A    between atoms: N_23  and  C_24
REMARK    8  A    between atoms: N_23  and  C_25
REMARK                            x       y       z     vdW  Elec       q    Type
REMARK                         _______ _______ _______ _____ _____    ______ ____
ROOT
ATOM      1  C   UNL     1       0.056  -0.501   4.920  0.00  0.00    +0.254 C 
ATOM      2  O   UNL     1      -0.000  -1.249   5.878  0.00  0.00    -0.270 OA
ATOM      3  N   UNL     1       0.142   0.831   5.109  0.00  0.00    -0.294 N 
ATOM      4  C   UNL     1       0.124   1.853   4.047  0.00  0.00    +0.093 C 
ATOM      5  C   UNL     1      -0.372   3.143   4.745  0.00  0.00    -0.050 C 
ATOM      6  C   UNL     1       0.304   3.023   6.137  0.00  0.00    +0.011 C 
ATOM      7  C   UNL     1       0.262   1.505   6.410  0.00  0.00    +0.100 C 
ENDROOT
BRANCH   1  16
ATOM      8  C   UNL     1      -3.633  -2.567   1.719  0.00  0.00    +0.065 C 
ATOM      9  C   UNL     1      -2.276  -2.535   1.065  0.00  0.00    +0.035 A 
ATOM     10  C   UNL     1      -2.105  -2.987  -0.177  0.00  0.00    +0.010 A 
ATOM     11  S   UNL     1      -0.361  -2.716  -0.431  0.00  0.00    -0.054 S 
ATOM     12  C   UNL     1       0.007  -2.051   1.065  0.00  0.00    +0.180 A 
ATOM     13  N   UNL     1      -1.181  -2.034   1.734  0.00  0.00    -0.258 N 
ATOM     14  C   UNL     1      -1.175  -1.528   3.003  0.00  0.00    +0.271 A 
ATOM     15  O   UNL     1      -2.206  -1.492   3.653  0.00  0.00    -0.266 OA
ATOM     16  C   UNL     1       0.030  -1.048   3.559  0.00  0.00    +0.120 A 
ATOM     17  C   UNL     1       1.201  -1.101   2.793  0.00  0.00    +0.132 A 
ATOM     18  N   UNL     1       1.141  -1.610   1.575  0.00  0.00    -0.230 NA
ATOM     19  C   UNL     1      -3.121  -3.574  -1.123  0.00  0.00    +0.053 C 
ENDBRANCH   1  16
BRANCH   5  20
ATOM     20  N   UNL     1       0.094   4.340   4.034  0.00  0.00    +0.379 N 
ATOM     21  C   UNL     1      -0.448   4.340   2.668  0.00  0.00    -0.096 C 
ATOM     22  C   UNL     1      -0.365   5.542   4.743  0.00  0.00    -0.096 C 
ATOM     23  H   UNL     1       1.103   4.337   3.995  0.00  0.00    -0.082 HD
ENDBRANCH   5  20
BRANCH   7  24
ATOM     24  C   UNL     1      -0.945   1.165   7.286  0.00  0.00    +0.178 C 
BRANCH  24  25
ATOM     25  O   UNL     1      -0.917  -0.226   7.616  0.00  0.00    -0.393 OA
ATOM     26  H   UNL     1      -1.655  -0.513   8.171  0.00  0.00    +0.209 HD
ENDBRANCH  24  25
ENDBRANCH   7  24
TORSDOF 4
