REMARK  Name = ZINC38701341
REMARK  9 active torsions:
REMARK  status: ('A' for Active; 'I' for Inactive)
REMARK    1  A    between atoms: C_1  and  C_2
REMARK    2  A    between atoms: C_2  and  O_3
REMARK    3  A    between atoms: O_3  and  C_4
REMARK    4  A    between atoms: C_7  and  C_10
REMARK    5  A    between atoms: C_15  and  O_24
REMARK    6  A    between atoms: C_19  and  N_23
REMARK    7  A    between atoms: C_20  and  C_21
REMARK    8  A    between atoms: O_24  and  C_25
REMARK    9  A    between atoms: C_25  and  C_27
REMARK                            x       y       z     vdW  Elec       q    Type
REMARK                         _______ _______ _______ _____ _____    ______ ____
ROOT
ATOM      1  C   UNL     1       1.160  -6.021  -1.882  0.00  0.00    +0.098 C 
ATOM      2  C   UNL     1       0.458  -6.429  -3.150  0.00  0.00    +0.008 A 
ATOM      3  C   UNL     1      -0.917  -6.586  -3.147  0.00  0.00    +0.012 A 
ATOM      4  C   UNL     1      -1.577  -6.959  -4.300  0.00  0.00    +0.047 A 
ATOM      5  C   UNL     1      -0.862  -7.179  -5.469  0.00  0.00    +0.135 A 
ATOM      6  C   UNL     1       0.515  -7.023  -5.476  0.00  0.00    +0.093 A 
ATOM      7  C   UNL     1       1.178  -6.647  -4.314  0.00  0.00    +0.138 A 
ATOM      8  O   UNL     1       2.525  -6.498  -4.338  0.00  0.00    -0.441 OA
ATOM      9  C   UNL     1       3.221  -6.521  -3.189  0.00  0.00    +0.199 C 
ATOM     10  C   UNL     1       2.632  -6.302  -1.993  0.00  0.00    +0.098 C 
ENDROOT
BRANCH   1  14
ATOM     11  C   UNL     1       0.562  -1.843  -1.213  0.00  0.00    +0.121 A 
ATOM     12  C   UNL     1       0.119  -2.766  -0.278  0.00  0.00    +0.046 A 
ATOM     13  C   UNL     1       0.313  -4.117  -0.496  0.00  0.00    +0.008 A 
ATOM     14  C   UNL     1       0.949  -4.548  -1.646  0.00  0.00    -0.034 A 
ATOM     15  C   UNL     1       1.392  -3.629  -2.580  0.00  0.00    +0.008 A 
ATOM     16  C   UNL     1       1.195  -2.278  -2.369  0.00  0.00    +0.046 A 
BRANCH  11  17
ATOM     17  O   UNL     1       0.372  -0.514  -1.001  0.00  0.00    -0.492 OA
BRANCH  17  19
ATOM     18  C   UNL     1      -0.409   1.385   0.273  0.00  0.00    +0.048 C 
ATOM     19  C   UNL     1      -0.286  -0.138   0.210  0.00  0.00    +0.225 C 
ENDBRANCH  17  19
ENDBRANCH  11  17
ENDBRANCH   1  14
BRANCH   9  20
ATOM     20  N   UNL     1       4.570  -6.772  -3.233  0.00  0.00    -0.328 N 
ATOM     21  H   UNL     1       5.006  -6.931  -4.084  0.00  0.00    +0.145 HD
ATOM     22  H   UNL     1       5.087  -6.792  -2.412  0.00  0.00    +0.145 HD
ENDBRANCH   9  20
BRANCH  10  23
ATOM     23  C   UNL     1       3.431  -6.339  -0.805  0.00  0.00    +0.101 C 
ATOM     24  N   UNL     1       4.065  -6.368   0.137  0.00  0.00    -0.191 NA
ENDBRANCH  10  23
BRANCH   5  25
ATOM     25  O   UNL     1      -1.510  -7.547  -6.605  0.00  0.00    -0.422 OA
BRANCH  25  26
ATOM     26  C   UNL     1      -1.323  -8.802  -7.063  0.00  0.00    +0.353 C 
ATOM     27  O   UNL     1      -0.677  -9.598  -6.410  0.00  0.00    -0.244 OA
BRANCH  26  28
ATOM     28  C   UNL     1      -1.899  -9.206  -8.350  0.00  0.00    +0.116 A 
ATOM     29  C   UNL     1      -1.825 -10.416  -8.970  0.00  0.00    +0.070 A 
ATOM     30  C   UNL     1      -2.452 -10.604 -10.216  0.00  0.00    +0.008 A 
ATOM     31  C   UNL     1      -2.488 -11.778 -11.012  0.00  0.00    +0.010 A 
ATOM     32  C   UNL     1      -3.144 -11.791 -12.201  0.00  0.00    +0.001 A 
ATOM     33  C   UNL     1      -3.802 -10.666 -12.682  0.00  0.00    +0.001 A 
ATOM     34  C   UNL     1      -3.793  -9.503 -11.940  0.00  0.00    +0.016 A 
ATOM     35  C   UNL     1      -3.131  -9.474 -10.730  0.00  0.00    +0.022 A 
ATOM     36  S   UNL     1      -2.876  -8.236  -9.485  0.00  0.00    -0.080 S 
ATOM     37 CL   UNL     1      -0.957 -11.723  -8.226  0.00  0.00    -0.082 Cl
ENDBRANCH  26  28
ENDBRANCH  25  26
ENDBRANCH   5  25
TORSDOF 8
