REMARK  Name = ZINC58971285
REMARK  11 active torsions:
REMARK  status: ('A' for Active; 'I' for Inactive)
REMARK    1  A    between atoms: C_1  and  C_2
REMARK    2  A    between atoms: C_5  and  N_8
REMARK    3  A    between atoms: C_9  and  C_30
REMARK    4  A    between atoms: C_10  and  C_13
REMARK    5  A    between atoms: N_15  and  C_16
REMARK    6  A    between atoms: C_16  and  C_17
REMARK    7  A    between atoms: C_17  and  C_18
REMARK    8  A    between atoms: C_18  and  C_19
REMARK    9  A    between atoms: C_19  and  N_20
REMARK   10  A    between atoms: C_22  and  C_29
REMARK   11  A    between atoms: C_25  and  C_28
REMARK                            x       y       z     vdW  Elec       q    Type
REMARK                         _______ _______ _______ _____ _____    ______ ____
ROOT
ATOM      1  C   UNL     1       0.964  -7.468   1.194  0.00  0.00    +0.248 C 
ATOM      2  O   UNL     1       1.658  -7.355   2.186  0.00  0.00    -0.270 OA
ATOM      3  N   UNL     1       0.655  -8.693   0.724  0.00  0.00    -0.311 N 
ATOM      4  H   UNL     1       0.102  -8.784  -0.067  0.00  0.00    +0.149 HD
ENDROOT
BRANCH   1   7
ATOM      5  N   UNL     1       0.057  -4.172  -0.021  0.00  0.00    -0.227 N 
ATOM      6  C   UNL     1       0.694  -4.955   0.869  0.00  0.00    +0.159 A 
ATOM      7  C   UNL     1       0.461  -6.266   0.505  0.00  0.00    +0.086 A 
ATOM      8  C   UNL     1      -0.350  -6.241  -0.652  0.00  0.00    +0.148 A 
ATOM      9  N   UNL     1      -0.589  -4.993  -0.952  0.00  0.00    -0.174 NA
BRANCH   5  14
ATOM     10  C   UNL     1      -0.018   1.503   0.010  0.00  0.00    +0.044 C 
ATOM     11  C   UNL     1       0.002  -0.004   0.002  0.00  0.00    -0.050 A 
ATOM     12  C   UNL     1       0.006  -0.688  -1.200  0.00  0.00    +0.005 A 
ATOM     13  C   UNL     1       0.024  -2.068  -1.211  0.00  0.00    +0.028 A 
ATOM     14  C   UNL     1       0.039  -2.771  -0.013  0.00  0.00    +0.066 A 
ATOM     15  C   UNL     1       0.036  -2.082   1.192  0.00  0.00    +0.028 A 
ATOM     16  C   UNL     1       0.023  -0.700   1.196  0.00  0.00    +0.005 A 
ENDBRANCH   5  14
BRANCH   6  17
ATOM     17  C   UNL     1       1.511  -4.487   2.045  0.00  0.00    +0.435 C 
ATOM     18  F   UNL     1       0.684  -4.360   3.167  0.00  0.00    -0.164 F 
ATOM     19  F   UNL     1       2.519  -5.420   2.313  0.00  0.00    -0.164 F 
ATOM     20  F   UNL     1       2.088  -3.248   1.749  0.00  0.00    -0.164 F 
ENDBRANCH   6  17
ENDBRANCH   1   7
BRANCH   3  21
ATOM     21  C   UNL     1       1.156  -9.888   1.409  0.00  0.00    +0.104 C 
BRANCH  21  22
ATOM     22  C   UNL     1       0.664 -11.139   0.677  0.00  0.00    +0.017 C 
BRANCH  22  23
ATOM     23  C   UNL     1       1.187 -12.386   1.393  0.00  0.00    -0.017 C 
BRANCH  23  24
ATOM     24  C   UNL     1       0.695 -13.637   0.661  0.00  0.00    -0.079 C 
BRANCH  24  25
ATOM     25  N   UNL     1       1.196 -14.835   1.348  0.00  0.00    +0.380 N 
ATOM     26  C   UNL     1       2.661 -14.872   1.257  0.00  0.00    -0.076 C 
ATOM     27  C   UNL     1       3.194 -16.074   2.039  0.00  0.00    -0.031 C 
ATOM     28  C   UNL     1       2.612 -17.360   1.448  0.00  0.00    +0.003 C 
ATOM     29  C   UNL     1       1.083 -17.279   1.480  0.00  0.00    -0.031 C 
ATOM     30  C   UNL     1       0.628 -16.032   0.718  0.00  0.00    -0.076 C 
ATOM     31  C   UNL     1       0.606 -17.194   2.931  0.00  0.00    +0.005 C 
ATOM     32  C   UNL     1       4.721 -16.111   1.941  0.00  0.00    +0.005 C 
ATOM     33  H   UNL     1       0.923 -14.804   2.318  0.00  0.00    -0.082 HD
ENDBRANCH  24  25
ENDBRANCH  23  24
ENDBRANCH  22  23
ENDBRANCH  21  22
ENDBRANCH   3  21
TORSDOF 8
