REMARK  Name = ZINC01121360
REMARK  6 active torsions:
REMARK  status: ('A' for Active; 'I' for Inactive)
REMARK    1  A    between atoms: C_3  and  C_7
REMARK    2  A    between atoms: C_7  and  N_8
REMARK    3  A    between atoms: C_9  and  C_11
REMARK    4  A    between atoms: C_15  and  N_16
REMARK    5  A    between atoms: C_17  and  C_19
REMARK    6  A    between atoms: C_22  and  N_25
REMARK                            x       y       z     vdW  Elec       q    Type
REMARK                         _______ _______ _______ _____ _____    ______ ____
ROOT
ATOM      1  C   UNL     1      -4.458   5.161  -2.941  0.00  0.00    +0.069 A 
ATOM      2  C   UNL     1      -5.325   4.236  -3.650  0.00  0.00    -0.023 A 
ATOM      3  C   UNL     1      -5.647   4.600  -4.910  0.00  0.00    -0.004 A 
ATOM      4  S   UNL     1      -4.808   6.138  -5.165  0.00  0.00    -0.077 S 
ATOM      5  C   UNL     1      -4.046   6.300  -3.618  0.00  0.00    +0.085 A 
ATOM      6  C   UNL     1      -6.519   3.853  -5.872  0.00  0.00    +0.043 C 
ATOM      7  C   UNL     1      -6.704   2.422  -5.346  0.00  0.00    +0.005 C 
ATOM      8  C   UNL     1      -7.075   2.486  -3.862  0.00  0.00    +0.005 C 
ATOM      9  C   UNL     1      -5.869   2.948  -3.043  0.00  0.00    +0.037 C 
ENDROOT
BRANCH   1  11
ATOM     10  N   UNL     1      -2.899   4.201  -1.331  0.00  0.00    -0.307 N 
ATOM     11  C   UNL     1      -4.030   4.897  -1.564  0.00  0.00    +0.247 C 
ATOM     12  O   UNL     1      -4.695   5.308  -0.631  0.00  0.00    -0.270 OA
ATOM     13  H   UNL     1      -2.369   3.874  -2.075  0.00  0.00    +0.149 HD
BRANCH  10  14
ATOM     14  C   UNL     1      -2.471   3.938   0.045  0.00  0.00    +0.141 C 
BRANCH  14  17
ATOM     15  C   UNL     1      -0.013   1.076   0.008  0.00  0.00    +0.020 A 
ATOM     16  C   UNL     1      -1.218   1.762   0.017  0.00  0.00    +0.008 A 
ATOM     17  C   UNL     1      -1.188   3.147   0.029  0.00  0.00    -0.012 A 
ATOM     18  C   UNL     1       0.033   3.795   0.022  0.00  0.00    +0.115 A 
ATOM     19  N   UNL     1       1.159   3.110   0.008  0.00  0.00    -0.263 NA
ATOM     20  C   UNL     1       1.169   1.792   0.001  0.00  0.00    +0.111 A 
ENDBRANCH  14  17
ENDBRANCH  10  14
ENDBRANCH   1  11
BRANCH   5  21
ATOM     21  N   UNL     1      -3.223   7.320  -3.166  0.00  0.00    -0.275 N 
ATOM     22  C   UNL     1      -2.930   8.357  -3.974  0.00  0.00    +0.249 C 
ATOM     23  O   UNL     1      -3.387   8.399  -5.100  0.00  0.00    -0.270 OA
ATOM     24  H   UNL     1      -2.859   7.287  -2.268  0.00  0.00    +0.156 HD
BRANCH  22  25
ATOM     25  C   UNL     1      -2.053   9.445  -3.492  0.00  0.00    +0.037 A 
ATOM     26  C   UNL     1      -1.531   9.403  -2.198  0.00  0.00    +0.015 A 
ATOM     27  C   UNL     1      -0.709  10.419  -1.756  0.00  0.00    +0.033 A 
ATOM     28  C   UNL     1      -0.410  11.483  -2.589  0.00  0.00    +0.126 A 
ATOM     29  C   UNL     1      -0.928  11.533  -3.871  0.00  0.00    +0.033 A 
ATOM     30  C   UNL     1      -1.747  10.521  -4.327  0.00  0.00    +0.015 A 
BRANCH  28  31
ATOM     31  N   UNL     1       0.468  12.572  -2.106  0.00  0.00    +0.056 N 
ATOM     32  O   UNL     1       0.733  13.510  -2.837  0.00  0.00    -0.126 OA
ATOM     33  O   UNL     1       0.925  12.531  -0.978  0.00  0.00    -0.126 OA
ENDBRANCH  28  31
ENDBRANCH  22  25
ENDBRANCH   5  21
TORSDOF 6
