REMARK  Name = ZINC28286852
REMARK  7 active torsions:
REMARK  status: ('A' for Active; 'I' for Inactive)
REMARK    1  A    between atoms: C_1  and  C_2
REMARK    2  A    between atoms: C_5  and  C_8
REMARK    3  A    between atoms: C_10  and  C_13
REMARK    4  A    between atoms: N_15  and  C_16
REMARK    5  A    between atoms: C_16  and  C_17
REMARK    6  A    between atoms: C_17  and  C_19
REMARK    7  A    between atoms: C_17  and  N_26
REMARK                            x       y       z     vdW  Elec       q    Type
REMARK                         _______ _______ _______ _____ _____    ______ ____
ROOT
ATOM      1  C   UNL     1       6.078   0.987   1.247  0.00  0.00    +0.266 C 
ATOM      2  O   UNL     1       5.597   1.680   0.372  0.00  0.00    -0.268 OA
ATOM      3  N   UNL     1       6.147  -0.349   1.087  0.00  0.00    -0.311 N 
ATOM      4  H   UNL     1       6.583  -0.977   1.879  0.00  0.00    +0.149 HD
ENDROOT
BRANCH   1   7
ATOM      5  C   UNL     1       7.161   3.043   4.052  0.00  0.00    +0.168 A 
ATOM      6  C   UNL     1       6.589   2.995   2.811  0.00  0.00    +0.086 A 
ATOM      7  C   UNL     1       6.589   1.612   2.491  0.00  0.00    +0.168 A 
ATOM      8  N   UNL     1       7.130   0.998   3.515  0.00  0.00    -0.073 NA
ATOM      9  O   UNL     1       7.452   1.773   4.385  0.00  0.00    -0.354 OA
BRANCH   5  14
ATOM     10  C   UNL     1       8.111   7.745   7.231  0.00  0.00    +0.044 C 
ATOM     11  C   UNL     1       7.862   6.514   6.398  0.00  0.00    -0.050 A 
ATOM     12  C   UNL     1       8.221   5.270   6.885  0.00  0.00    +0.004 A 
ATOM     13  C   UNL     1       7.996   4.138   6.128  0.00  0.00    +0.012 A 
ATOM     14  C   UNL     1       7.405   4.251   4.869  0.00  0.00    +0.020 A 
ATOM     15  C   UNL     1       7.050   5.510   4.382  0.00  0.00    +0.012 A 
ATOM     16  C   UNL     1       7.275   6.633   5.151  0.00  0.00    +0.004 A 
ENDBRANCH   5  14
ENDBRANCH   1   7
BRANCH   3  17
ATOM     17  C   UNL     1       5.642  -0.967  -0.142  0.00  0.00    +0.094 C 
BRANCH  17  18
ATOM     18  C   UNL     1       5.966  -2.462  -0.132  0.00  0.00    -0.020 C 
BRANCH  18  19
ATOM     19  C   UNL     1       7.461  -2.653  -0.126  0.00  0.00    -0.059 A 
ATOM     20  C   UNL     1       8.175  -2.547  -1.304  0.00  0.00    +0.003 A 
ATOM     21  C   UNL     1       9.547  -2.716  -1.299  0.00  0.00    +0.020 A 
ATOM     22  C   UNL     1      10.204  -3.002  -0.115  0.00  0.00    +0.041 A 
ATOM     23  C   UNL     1       9.488  -3.114   1.063  0.00  0.00    +0.020 A 
ATOM     24  C   UNL     1       8.117  -2.939   1.057  0.00  0.00    +0.003 A 
ATOM     25 CL   UNL     1      11.926  -3.222  -0.108  0.00  0.00    -0.084 Cl
ENDBRANCH  18  19
BRANCH  18  26
ATOM     26  N   UNL     1       5.396  -3.095  -1.329  0.00  0.00    +0.385 N 
ATOM     27  C   UNL     1       3.946  -2.878  -1.399  0.00  0.00    -0.078 C 
ATOM     28  C   UNL     1       3.411  -3.422  -2.726  0.00  0.00    -0.019 C 
ATOM     29  C   UNL     1       3.728  -4.917  -2.823  0.00  0.00    -0.004 C 
ATOM     30  C   UNL     1       5.240  -5.120  -2.699  0.00  0.00    -0.019 C 
ATOM     31  C   UNL     1       5.722  -4.526  -1.373  0.00  0.00    -0.078 C 
ATOM     32  H   UNL     1       5.850  -2.621  -2.212  0.00  0.00    -0.081 HD
ENDBRANCH  18  26
ENDBRANCH  17  18
ENDBRANCH   3  17
TORSDOF 6
