REMARK  Name = ZINC00179942
REMARK  4 active torsions:
REMARK  status: ('A' for Active; 'I' for Inactive)
REMARK    1  A    between atoms: C_1  and  C_2
REMARK    2  A    between atoms: C_5  and  N_9
REMARK    3  A    between atoms: C_10  and  C_16
REMARK    4  A    between atoms: C_20  and  N_22
REMARK                            x       y       z     vdW  Elec       q    Type
REMARK                         _______ _______ _______ _____ _____    ______ ____
ROOT
ATOM      1  N   UNL     1       1.111   1.912   0.002  0.00  0.00    -0.254 N 
ATOM      2  C   UNL     1       1.036   3.381  -0.104  0.00  0.00    +0.170 C 
ATOM      3  S   UNL     1      -0.752   3.626  -0.487  0.00  0.00    -0.124 S 
ATOM      4  C   UNL     1      -1.322   1.981   0.120  0.00  0.00    +0.167 C 
ATOM      5  C   UNL     1      -0.011   1.212   0.117  0.00  0.00    +0.231 C 
ATOM      6  O   UNL     1       0.009   0.003   0.212  0.00  0.00    -0.274 OA
ENDROOT
BRANCH   1  11
ATOM      7  C   UNL     1       6.138  -0.717  -0.080  0.00  0.00    +0.045 C 
ATOM      8  C   UNL     1       4.803  -0.019  -0.059  0.00  0.00    -0.032 A 
ATOM      9  C   UNL     1       4.521   0.900   0.935  0.00  0.00    +0.006 A 
ATOM     10  C   UNL     1       3.298   1.542   0.957  0.00  0.00    +0.024 A 
ATOM     11  C   UNL     1       2.350   1.263  -0.019  0.00  0.00    +0.039 A 
ATOM     12  C   UNL     1       2.633   0.335  -1.012  0.00  0.00    +0.043 A 
ATOM     13  C   UNL     1       3.861  -0.301  -1.032  0.00  0.00    +0.046 A 
ATOM     14 CL   UNL     1       4.219  -1.456  -2.278  0.00  0.00    -0.083 Cl
ENDBRANCH   1  11
BRANCH   2  15
ATOM     15  C   UNL     1       1.905   3.888  -1.226  0.00  0.00    -0.015 A 
ATOM     16  C   UNL     1       2.130   3.097  -2.338  0.00  0.00    +0.006 A 
ATOM     17  C   UNL     1       2.927   3.562  -3.367  0.00  0.00    +0.003 A 
ATOM     18  C   UNL     1       3.499   4.818  -3.284  0.00  0.00    +0.033 A 
ATOM     19  C   UNL     1       3.274   5.609  -2.174  0.00  0.00    +0.127 A 
ATOM     20  C   UNL     1       2.473   5.146  -1.146  0.00  0.00    +0.039 A 
BRANCH  19  21
ATOM     21  N   UNL     1       3.887   6.953  -2.086  0.00  0.00    +0.056 N 
ATOM     22  O   UNL     1       4.590   7.363  -2.992  0.00  0.00    -0.126 OA
ATOM     23  O   UNL     1       3.688   7.650  -1.107  0.00  0.00    -0.126 OA
ENDBRANCH  19  21
ENDBRANCH   2  15
TORSDOF 3
