REMARK  Name = ZINC01142463
REMARK  10 active torsions:
REMARK  status: ('A' for Active; 'I' for Inactive)
REMARK    1  A    between atoms: C_1  and  C_2
REMARK    2  A    between atoms: C_6  and  C_8
REMARK    3  A    between atoms: C_14  and  S_16
REMARK    4  A    between atoms: S_16  and  C_17
REMARK    5  A    between atoms: C_17  and  C_18
REMARK    6  A    between atoms: C_19  and  C_29
REMARK    7  A    between atoms: C_21  and  C_28
REMARK    8  A    between atoms: C_22  and  C_25
REMARK    9  A    between atoms: C_23  and  C_24
REMARK   10  A    between atoms: C_25  and  C_27
REMARK                            x       y       z     vdW  Elec       q    Type
REMARK                         _______ _______ _______ _____ _____    ______ ____
ROOT
ATOM      1  C   UNL     1       0.116   5.309  -0.061  0.00  0.00    +0.250 C 
ATOM      2  O   UNL     1      -0.956   5.883  -0.056  0.00  0.00    -0.270 OA
ATOM      3  N   UNL     1       1.261   6.020  -0.049  0.00  0.00    -0.259 N 
ATOM      4  C   UNL     1       1.216   7.411  -0.031  0.00  0.00    +0.189 A 
ATOM      5  N   UNL     1       0.176   8.228  -0.022  0.00  0.00    -0.125 NA
ATOM      6  N   UNL     1       0.311   9.482  -0.005  0.00  0.00    -0.133 NA
ATOM      7  C   UNL     1       1.504  10.058   0.005  0.00  0.00    +0.160 A 
ATOM      8  S   UNL     1       2.550   8.605  -0.005  0.00  0.00    -0.024 S 
ATOM      9  H   UNL     1       2.116   5.562  -0.054  0.00  0.00    +0.157 HD
ENDROOT
BRANCH   1  15
ATOM     10  C   UNL     1      -2.246   0.915  -0.137  0.00  0.00    +0.044 C 
ATOM     11  C   UNL     1      -0.969   1.714  -0.117  0.00  0.00    -0.050 A 
ATOM     12  C   UNL     1       0.253   1.064  -0.117  0.00  0.00    +0.003 A 
ATOM     13  C   UNL     1       1.430   1.791  -0.105  0.00  0.00    +0.001 A 
ATOM     14  C   UNL     1       1.393   3.170  -0.086  0.00  0.00    +0.013 A 
ATOM     15  C   UNL     1       0.164   3.832  -0.080  0.00  0.00    +0.037 A 
ATOM     16  C   UNL     1      -1.021   3.092  -0.093  0.00  0.00    +0.016 A 
ENDBRANCH   1  15
BRANCH   7  17
ATOM     17  S   UNL     1       1.938  11.766   0.029  0.00  0.00    -0.092 S 
BRANCH  17  18
ATOM     18  C   UNL     1       0.340  12.624   0.039  0.00  0.00    +0.112 C 
BRANCH  18  19
ATOM     19  C   UNL     1       0.570  14.113   0.059  0.00  0.00    -0.031 A 
ATOM     20  C   UNL     1       0.677  14.812  -1.131  0.00  0.00    -0.046 A 
ATOM     21  C   UNL     1       0.887  16.180  -1.122  0.00  0.00    +0.007 A 
ATOM     22  C   UNL     1       0.993  16.857   0.074  0.00  0.00    -0.039 A 
ATOM     23  C   UNL     1       0.886  16.159   1.281  0.00  0.00    +0.023 A 
ATOM     24  C   UNL     1       0.667  14.777   1.264  0.00  0.00    -0.036 A 
ATOM     25  C   UNL     1       0.544  14.016   2.558  0.00  0.00    +0.045 C 
ATOM     26  C   UNL     1       1.222  18.347   0.081  0.00  0.00    +0.044 C 
ATOM     27  C   UNL     1       0.563  14.079  -2.443  0.00  0.00    +0.044 C 
BRANCH  23  28
ATOM     28  C   UNL     1       0.996  16.874   2.562  0.00  0.00    +0.161 C 
ATOM     29  O   UNL     1      -0.004  17.257   3.131  0.00  0.00    -0.292 OA
ATOM     30  C   UNL     1       2.352  17.131   3.167  0.00  0.00    +0.091 C 
ENDBRANCH  23  28
ENDBRANCH  18  19
ENDBRANCH  17  18
ENDBRANCH   7  17
TORSDOF 5
