REMARK  Name = ZINC64338165
REMARK  6 active torsions:
REMARK  status: ('A' for Active; 'I' for Inactive)
REMARK    1  A    between atoms: C_4  and  C_7
REMARK    2  A    between atoms: C_13  and  C_14
REMARK    3  A    between atoms: N_16  and  C_17
REMARK    4  A    between atoms: C_17  and  C_18
REMARK    5  A    between atoms: C_18  and  C_20
REMARK    6  A    between atoms: C_18  and  C_26
REMARK                            x       y       z     vdW  Elec       q    Type
REMARK                         _______ _______ _______ _____ _____    ______ ____
ROOT
ATOM      1  C   UNL     1       0.849  -5.717  -2.788  0.00  0.00    +0.117 C 
ENDROOT
BRANCH   1   4
ATOM      2  C   UNL     1       2.351  -4.435  -1.361  0.00  0.00    +0.238 C 
ATOM      3  O   UNL     1       2.161  -3.469  -2.079  0.00  0.00    -0.271 OA
ATOM      4  N   UNL     1       1.741  -5.606  -1.632  0.00  0.00    -0.311 N 
ATOM      5  H   UNL     1       1.892  -6.375  -1.060  0.00  0.00    +0.149 HD
BRANCH   2  11
ATOM      6  C   UNL     1       4.280  -0.834  -0.480  0.00  0.00    +0.159 C 
ATOM      7  N   UNL     1       3.946  -2.193  -0.946  0.00  0.00    -0.331 N 
ATOM      8  C   UNL     1       3.916  -3.195  -0.042  0.00  0.00    +0.020 C 
ATOM      9  C   UNL     1       4.732  -2.959   1.224  0.00  0.00    +0.121 C 
ATOM     10  S   UNL     1       4.667  -1.111   1.300  0.00  0.00    -0.128 S 
ATOM     11  C   UNL     1       3.212  -4.327  -0.244  0.00  0.00    +0.086 C 
ATOM     12  H   UNL     1       3.752  -2.364  -1.881  0.00  0.00    +0.147 HD
BRANCH   6  16
ATOM     13  C   UNL     1       0.938   1.789  -0.924  0.00  0.00    +0.000 A 
ATOM     14  C   UNL     1       2.223   2.296  -0.953  0.00  0.00    +0.000 A 
ATOM     15  C   UNL     1       3.305   1.447  -0.810  0.00  0.00    +0.006 A 
ATOM     16  C   UNL     1       3.101   0.091  -0.636  0.00  0.00    -0.017 A 
ATOM     17  C   UNL     1       1.815  -0.416  -0.606  0.00  0.00    +0.006 A 
ATOM     18  C   UNL     1       0.734   0.432  -0.751  0.00  0.00    +0.000 A 
ENDBRANCH   6  16
ENDBRANCH   2  11
ENDBRANCH   1   4
BRANCH   1  19
ATOM     19  C   UNL     1       0.291  -7.139  -2.868  0.00  0.00    +0.064 C 
BRANCH  19  20
ATOM     20  C   UNL     1      -0.719  -7.221  -3.983  0.00  0.00    -0.033 C 
ATOM     21  C   UNL     1      -2.027  -7.550  -3.873  0.00  0.00    -0.000 A 
ATOM     22  C   UNL     1      -2.867  -7.916  -2.726  0.00  0.00    +0.010 A 
ATOM     23  C   UNL     1      -4.173  -8.199  -2.934  0.00  0.00    +0.001 A 
ATOM     24  C   UNL     1      -4.743  -8.152  -4.213  0.00  0.00    +0.002 A 
ATOM     25  C   UNL     1      -4.035  -7.824  -5.315  0.00  0.00    +0.026 A 
ATOM     26  C   UNL     1      -2.652  -7.507  -5.213  0.00  0.00    +0.043 A 
ATOM     27  N   UNL     1      -1.766  -7.165  -6.117  0.00  0.00    -0.380 N 
ATOM     28  C   UNL     1      -0.478  -6.947  -5.450  0.00  0.00    +0.145 C 
ATOM     29  H   UNL     1      -1.935  -7.069  -7.068  0.00  0.00    +0.160 HD
ENDBRANCH  19  20
BRANCH  19  30
ATOM     30  C   UNL     1       1.416  -8.105  -3.137  0.00  0.00    -0.039 A 
ATOM     31  C   UNL     1       2.179  -7.976  -4.283  0.00  0.00    +0.004 A 
ATOM     32  C   UNL     1       3.211  -8.862  -4.530  0.00  0.00    +0.000 A 
ATOM     33  C   UNL     1       3.480  -9.877  -3.631  0.00  0.00    +0.000 A 
ATOM     34  C   UNL     1       2.718 -10.006  -2.485  0.00  0.00    +0.000 A 
ATOM     35  C   UNL     1       1.689  -9.117  -2.236  0.00  0.00    +0.004 A 
ENDBRANCH  19  30
ENDBRANCH   1  19
TORSDOF 6
