REMARK  Name = ZINC35747087
REMARK  15 active torsions:
REMARK  status: ('A' for Active; 'I' for Inactive)
REMARK    1  A    between atoms: C_1  and  C_2
REMARK    2  A    between atoms: C_7  and  O_8
REMARK    3  A    between atoms: O_8  and  C_9
REMARK    4  A    between atoms: C_9  and  C_10
REMARK    5  A    between atoms: C_10  and  C_12
REMARK    6  A    between atoms: C_10  and  O_39
REMARK    7  A    between atoms: C_12  and  N_13
REMARK    8  A    between atoms: N_13  and  C_14
REMARK    9  A    between atoms: N_13  and  C_33
REMARK   10  A    between atoms: C_14  and  C_15
REMARK   11  A    between atoms: C_21  and  C_32
REMARK   12  A    between atoms: C_22  and  C_26
REMARK   13  A    between atoms: C_26  and  O_28
REMARK   14  A    between atoms: O_28  and  C_29
REMARK   15  A    between atoms: C_29  and  C_30
REMARK                            x       y       z     vdW  Elec       q    Type
REMARK                         _______ _______ _______ _____ _____    ______ ____
ROOT
ATOM      1  N   UNL     1       0.014   0.165   7.225  0.00  0.00    +0.388 N 
ATOM      2  H   UNL     1      -0.500   1.026   7.340  0.00  0.00    -0.081 HD
ENDROOT
BRANCH   1   3
ATOM      3  C   UNL     1       1.430   0.469   6.980  0.00  0.00    -0.068 C 
ATOM      4  C   UNL     1       2.021   1.169   8.206  0.00  0.00    -0.015 C 
ATOM      5  C   UNL     1       3.495   1.486   7.950  0.00  0.00    -0.002 C 
ATOM      6  C   UNL     1       4.258   0.186   7.688  0.00  0.00    -0.000 C 
ATOM      7  C   UNL     1       3.668  -0.513   6.462  0.00  0.00    -0.002 C 
ATOM      8  C   UNL     1       2.193  -0.830   6.717  0.00  0.00    -0.015 C 
ENDBRANCH   1   3
BRANCH   1   9
ATOM      9  C   UNL     1      -0.531  -0.581   6.083  0.00  0.00    -0.043 C 
BRANCH   9  10
ATOM     10  C   UNL     1      -0.583   0.331   4.855  0.00  0.00    +0.135 C 
BRANCH  10  11
ATOM     11  O   UNL     1       0.747   0.619   4.420  0.00  0.00    -0.390 OA
ATOM     12  H   UNL     1       1.230  -0.152   4.094  0.00  0.00    +0.210 HD
ENDBRANCH  10  11
BRANCH  10  13
ATOM     13  C   UNL     1      -1.347  -0.371   3.731  0.00  0.00    +0.258 C 
BRANCH  13  14
ATOM     14  O   UNL     1      -1.497   0.523   2.626  0.00  0.00    -0.489 OA
BRANCH  14  21
ATOM     15  C   UNL     1      -1.804   2.276   0.432  0.00  0.00    +0.047 C 
ATOM     16  C   UNL     1      -2.339   0.867   0.428  0.00  0.00    -0.009 A 
ATOM     17  C   UNL     1      -3.006   0.384  -0.681  0.00  0.00    +0.007 A 
ATOM     18  C   UNL     1      -3.498  -0.908  -0.685  0.00  0.00    +0.000 A 
ATOM     19  C   UNL     1      -3.324  -1.720   0.420  0.00  0.00    +0.004 A 
ATOM     20  C   UNL     1      -2.657  -1.242   1.532  0.00  0.00    +0.046 A 
ATOM     21  C   UNL     1      -2.158   0.053   1.536  0.00  0.00    +0.124 A 
ENDBRANCH  14  21
ENDBRANCH  13  14
ENDBRANCH  10  13
ENDBRANCH   9  10
ENDBRANCH   1   9
BRANCH   1  22
ATOM     22  C   UNL     1      -0.109  -0.646   8.443  0.00  0.00    -0.003 C 
BRANCH  22  23
ATOM     23  C   UNL     1      -0.106   0.257   9.650  0.00  0.00    +0.094 A 
ATOM     24  N   UNL     1      -0.062  -0.297  10.886  0.00  0.00    -0.312 N 
ATOM     25  H   UNL     1      -0.035  -1.263  10.973  0.00  0.00    +0.170 HD
ATOM     26  C   UNL     1      -0.056   0.466  11.997  0.00  0.00    +0.260 A 
ATOM     27  O   UNL     1      -0.016  -0.042  13.104  0.00  0.00    -0.267 OA
ATOM     28  C   UNL     1      -0.099   1.937  11.838  0.00  0.00    +0.076 A 
ATOM     29  C   UNL     1      -0.102   2.932  12.818  0.00  0.00    -0.015 A 
ATOM     30  C   UNL     1      -0.145   4.246  12.452  0.00  0.00    +0.102 A 
ATOM     31  S   UNL     1      -0.185   4.158  10.670  0.00  0.00    -0.062 S 
ATOM     32  C   UNL     1      -0.143   2.392  10.499  0.00  0.00    +0.116 A 
ATOM     33  N   UNL     1      -0.139   1.550   9.474  0.00  0.00    -0.229 NA
ATOM     34  C   UNL     1      -0.058   2.554  14.276  0.00  0.00    +0.046 C 
BRANCH  30  35
ATOM     35  C   UNL     1      -0.155   5.433  13.309  0.00  0.00    +0.347 C 
ATOM     36  O   UNL     1      -0.123   5.310  14.519  0.00  0.00    -0.244 OA
BRANCH  35  37
ATOM     37  O   UNL     1      -0.201   6.663  12.758  0.00  0.00    -0.457 OA
BRANCH  37  38
ATOM     38  C   UNL     1      -0.208   7.777  13.653  0.00  0.00    +0.259 C 
BRANCH  38  39
ATOM     39  C   UNL     1      -0.261   9.058  12.862  0.00  0.00    +0.006 C 
ATOM     40  C   UNL     1      -1.080  10.016  13.220  0.00  0.00    +0.007 C 
ENDBRANCH  38  39
ENDBRANCH  37  38
ENDBRANCH  35  37
ENDBRANCH  30  35
ENDBRANCH  22  23
ENDBRANCH   1  22
TORSDOF 13
