REMARK  Name = ZINC14159819
REMARK  7 active torsions:
REMARK  status: ('A' for Active; 'I' for Inactive)
REMARK    1  A    between atoms: C_1  and  C_2
REMARK    2  A    between atoms: C_4  and  C_32
REMARK    3  A    between atoms: N_10  and  C_11
REMARK    4  A    between atoms: C_11  and  N_13
REMARK    5  A    between atoms: N_13  and  C_14
REMARK    6  A    between atoms: C_14  and  C_15
REMARK    7  A    between atoms: N_24  and  C_27
REMARK                            x       y       z     vdW  Elec       q    Type
REMARK                         _______ _______ _______ _____ _____    ______ ____
ROOT
ATOM      1  C   UNL     1     -10.145   3.548   4.331  0.00  0.00    +0.066 C 
ATOM      2  C   UNL     1      -9.011   4.531   4.475  0.00  0.00    +0.044 A 
ATOM      3  C   UNL     1      -8.979   5.412   5.545  0.00  0.00    +0.046 A 
ATOM      4  C   UNL     1      -7.919   6.300   5.640  0.00  0.00    +0.044 A 
ATOM      5  N   UNL     1      -6.976   6.280   4.713  0.00  0.00    -0.219 NA
ATOM      6  C   UNL     1      -7.037   5.425   3.703  0.00  0.00    +0.222 A 
ATOM      7  N   UNL     1      -8.038   4.567   3.580  0.00  0.00    -0.219 NA
ATOM      8  N   UNL     1      -6.030   5.432   2.748  0.00  0.00    -0.258 N 
ATOM      9  C   UNL     1      -6.076   4.556   1.697  0.00  0.00    +0.180 C 
ATOM     10  N   UNL     1      -7.131   3.775   1.534  0.00  0.00    -0.164 NA
ATOM     11  N   UNL     1      -5.034   4.487   0.818  0.00  0.00    -0.302 N 
ATOM     12  C   UNL     1      -3.644   4.600   1.285  0.00  0.00    +0.126 C 
ATOM     13  C   UNL     1      -2.933   5.666   0.445  0.00  0.00    +0.125 C 
ATOM     14  N   UNL     1      -3.086   5.343  -0.980  0.00  0.00    -0.314 N 
ATOM     15  C   UNL     1      -4.497   5.377  -1.387  0.00  0.00    +0.125 C 
ATOM     16  C   UNL     1      -5.272   4.300  -0.621  0.00  0.00    +0.126 C 
ATOM     17  C   UNL     1      -7.843   7.276   6.785  0.00  0.00    +0.066 C 
ATOM     18  H   UNL     1      -5.293   6.058   2.824  0.00  0.00    +0.157 HD
ENDROOT
BRANCH  14  19
ATOM     19  C   UNL     1      -2.319   6.193  -1.769  0.00  0.00    +0.099 A 
ATOM     20  C   UNL     1      -2.329   6.047  -3.152  0.00  0.00    +0.042 A 
ATOM     21  C   UNL     1      -1.562   6.900  -3.924  0.00  0.00    +0.005 A 
ATOM     22  C   UNL     1      -0.807   7.875  -3.285  0.00  0.00    +0.018 A 
ATOM     23  C   UNL     1      -0.845   7.964  -1.908  0.00  0.00    +0.084 A 
ATOM     24  N   UNL     1      -1.582   7.139  -1.117  0.00  0.00    -0.350 N 
ATOM     25  H   UNL     1      -1.584   7.222  -0.094  0.00  0.00    +0.166 HD
ENDBRANCH  14  19
BRANCH  10  26
ATOM     26  C   UNL     1      -7.110   2.805   0.609  0.00  0.00    +0.157 C 
ATOM     27  S   UNL     1      -5.874   1.621   0.637  0.00  0.00    -0.017 S 
BRANCH  26  28
ATOM     28  N   UNL     1      -8.062   2.763  -0.344  0.00  0.00    -0.322 N 
ATOM     29  H   UNL     1      -8.762   3.434  -0.360  0.00  0.00    +0.148 HD
BRANCH  28  30
ATOM     30  C   UNL     1      -8.040   1.703  -1.355  0.00  0.00    +0.134 C 
BRANCH  30  31
ATOM     31  C   UNL     1      -9.222   1.884  -2.310  0.00  0.00    +0.135 C 
ATOM     32  C   UNL     1      -9.291   0.708  -3.309  0.00  0.00    +0.035 C 
ATOM     33  C   UNL     1      -9.738   1.366  -4.634  0.00  0.00    +0.031 C 
ATOM     34  C   UNL     1      -9.886   2.862  -4.278  0.00  0.00    +0.160 C 
ATOM     35  O   UNL     1      -9.029   3.056  -3.132  0.00  0.00    -0.375 OA
ENDBRANCH  30  31
ENDBRANCH  28  30
ENDBRANCH  26  28
ENDBRANCH  10  26
TORSDOF 5
