REMARK  Name = ZINC46551180
REMARK  8 active torsions:
REMARK  status: ('A' for Active; 'I' for Inactive)
REMARK    1  A    between atoms: C_1  and  O_2
REMARK    2  A    between atoms: O_2  and  C_3
REMARK    3  A    between atoms: C_10  and  C_32
REMARK    4  A    between atoms: C_11  and  C_14
REMARK    5  A    between atoms: C_19  and  C_22
REMARK    6  A    between atoms: C_24  and  C_28
REMARK    7  A    between atoms: C_28  and  O_30
REMARK    8  A    between atoms: O_30  and  C_31
REMARK                            x       y       z     vdW  Elec       q    Type
REMARK                         _______ _______ _______ _____ _____    ______ ____
ROOT
ATOM      1  C   UNL     1       3.171  -2.481  -7.851  0.00  0.00    +0.253 C 
ATOM      2  O   UNL     1       2.746  -1.491  -8.415  0.00  0.00    -0.270 OA
ATOM      3  N   UNL     1       3.731  -3.477  -8.566  0.00  0.00    -0.261 N 
ATOM      4  C   UNL     1       3.823  -3.371  -9.948  0.00  0.00    +0.165 A 
ATOM      5  N   UNL     1       4.328  -4.236 -10.799  0.00  0.00    -0.225 NA
ATOM      6  C   UNL     1       4.343  -3.987 -12.102  0.00  0.00    +0.082 A 
ATOM      7  C   UNL     1       3.811  -2.795 -12.504  0.00  0.00    +0.077 A 
ATOM      8  S   UNL     1       3.309  -2.108 -10.934  0.00  0.00    -0.060 S 
ATOM      9  H   UNL     1       4.069  -4.266  -8.116  0.00  0.00    +0.157 HD
ENDROOT
BRANCH   1  18
ATOM     10  C   UNL     1       1.305  -0.242  -0.912  0.00  0.00    +0.234 A 
ATOM     11  C   UNL     1       2.377  -1.121  -0.765  0.00  0.00    +0.072 A 
ATOM     12  C   UNL     1       2.839  -1.775  -1.895  0.00  0.00    +0.055 A 
ATOM     13  C   UNL     1       2.204  -1.513  -3.108  0.00  0.00    +0.177 A 
ATOM     14  N   UNL     1       1.192  -0.662  -3.151  0.00  0.00    -0.126 NA
ATOM     15  N   UNL     1       0.760  -0.060  -2.103  0.00  0.00    -0.110 NA
ATOM     16  N   UNL     1       2.636  -2.150  -4.277  0.00  0.00    -0.208 N 
ATOM     17  C   UNL     1       2.527  -1.659  -5.526  0.00  0.00    +0.161 A 
ATOM     18  C   UNL     1       3.072  -2.593  -6.384  0.00  0.00    +0.087 A 
ATOM     19  C   UNL     1       3.518  -3.677  -5.594  0.00  0.00    +0.148 A 
ATOM     20  N   UNL     1       3.259  -3.401  -4.345  0.00  0.00    -0.172 NA
BRANCH  17  21
ATOM     21  C   UNL     1       1.922  -0.335  -5.915  0.00  0.00    +0.435 C 
ATOM     22  F   UNL     1       1.993   0.547  -4.831  0.00  0.00    -0.164 F 
ATOM     23  F   UNL     1       2.628   0.200  -6.998  0.00  0.00    -0.164 F 
ATOM     24  F   UNL     1       0.584  -0.522  -6.277  0.00  0.00    -0.164 F 
ENDBRANCH  17  21
BRANCH  10  26
ATOM     25  C   UNL     1      -0.286   1.301  -0.057  0.00  0.00    +0.279 C 
ATOM     26  O   UNL     1       0.817   0.421   0.167  0.00  0.00    -0.479 OA
ENDBRANCH  10  26
ENDBRANCH   1  18
BRANCH   6  27
ATOM     27  C   UNL     1       4.911  -4.956 -13.075  0.00  0.00    +0.019 A 
ATOM     28  C   UNL     1       5.385  -6.248 -12.782  0.00  0.00    +0.044 A 
ATOM     29  C   UNL     1       5.819  -6.795 -13.970  0.00  0.00    +0.125 A 
ATOM     30  N   UNL     1       5.615  -5.861 -14.961  0.00  0.00    -0.355 N 
ATOM     31  H   UNL     1       5.829  -5.979 -15.900  0.00  0.00    +0.166 HD
ATOM     32  C   UNL     1       5.061  -4.757 -14.417  0.00  0.00    +0.093 A 
BRANCH  29  33
ATOM     33  C   UNL     1       6.396  -8.130 -14.147  0.00  0.00    +0.355 C 
ATOM     34  O   UNL     1       6.527  -8.868 -13.189  0.00  0.00    -0.243 OA
BRANCH  33  35
ATOM     35  O   UNL     1       6.781  -8.541 -15.372  0.00  0.00    -0.463 OA
ATOM     36  C   UNL     1       7.334  -9.855 -15.471  0.00  0.00    +0.280 C 
ENDBRANCH  33  35
ENDBRANCH  29  33
ENDBRANCH   6  27
TORSDOF 6
