REMARK  Name = ZINC40386842
REMARK  5 active torsions:
REMARK  status: ('A' for Active; 'I' for Inactive)
REMARK    1  A    between atoms: C_4  and  C_7
REMARK    2  A    between atoms: C_7  and  N_8
REMARK    3  A    between atoms: C_9  and  N_36
REMARK    4  A    between atoms: C_11  and  C_29
REMARK    5  A    between atoms: N_20  and  C_23
REMARK                            x       y       z     vdW  Elec       q    Type
REMARK                         _______ _______ _______ _____ _____    ______ ____
ROOT
ATOM      1  N   UNL     1       4.466  -1.438   1.427  0.00  0.00    -0.244 N 
ATOM      2  C   UNL     1       4.952  -0.379   2.098  0.00  0.00    +0.126 A 
ATOM      3  C   UNL     1       4.888  -0.677   3.454  0.00  0.00    +0.086 A 
ATOM      4  C   UNL     1       5.229  -0.013   4.654  0.00  0.00    +0.091 A 
ATOM      5  N   UNL     1       5.014  -0.642   5.803  0.00  0.00    -0.213 NA
ATOM      6  C   UNL     1       4.492  -1.864   5.854  0.00  0.00    +0.220 A 
ATOM      7  N   UNL     1       4.145  -2.553   4.786  0.00  0.00    -0.193 NA
ATOM      8  C   UNL     1       4.312  -2.030   3.556  0.00  0.00    +0.188 A 
ATOM      9  N   UNL     1       4.074  -2.434   2.328  0.00  0.00    -0.149 NA
ATOM     10  N   UNL     1       4.303  -2.442   7.096  0.00  0.00    -0.297 N 
ATOM     11  C   UNL     1       4.665  -1.718   8.322  0.00  0.00    +0.127 C 
ATOM     12  C   UNL     1       3.436  -1.655   9.236  0.00  0.00    +0.124 C 
ATOM     13  N   UNL     1       2.868  -3.005   9.353  0.00  0.00    -0.327 N 
ATOM     14  C   UNL     1       2.505  -3.730   8.127  0.00  0.00    +0.124 C 
ATOM     15  C   UNL     1       3.729  -3.791   7.213  0.00  0.00    +0.127 C 
ENDROOT
BRANCH   4  16
ATOM     16  C   UNL     1       5.812   1.346   4.630  0.00  0.00    +0.036 A 
ATOM     17  C   UNL     1       5.134   2.389   3.997  0.00  0.00    +0.013 A 
ATOM     18  C   UNL     1       5.683   3.654   3.978  0.00  0.00    +0.001 A 
ATOM     19  C   UNL     1       6.904   3.892   4.585  0.00  0.00    +0.003 A 
ATOM     20  C   UNL     1       7.583   2.866   5.214  0.00  0.00    +0.039 A 
ATOM     21  C   UNL     1       7.042   1.593   5.246  0.00  0.00    +0.133 A 
ATOM     22  F   UNL     1       7.703   0.592   5.867  0.00  0.00    -0.205 F 
ENDBRANCH   4  16
BRANCH  13  23
ATOM     23  C   UNL     1       2.677  -3.590  10.607  0.00  0.00    +0.030 A 
ATOM     24  C   UNL     1       2.905  -2.851  11.762  0.00  0.00    +0.023 A 
ATOM     25  C   UNL     1       2.714  -3.432  13.000  0.00  0.00    +0.002 A 
ATOM     26  C   UNL     1       2.298  -4.747  13.092  0.00  0.00    +0.000 A 
ATOM     27  C   UNL     1       2.070  -5.485  11.945  0.00  0.00    +0.002 A 
ATOM     28  C   UNL     1       2.253  -4.909  10.703  0.00  0.00    +0.023 A 
ENDBRANCH  13  23
BRANCH   2  29
ATOM     29  N   UNL     1       5.429   0.793   1.541  0.00  0.00    -0.343 N 
ATOM     30  H   UNL     1       5.324   0.956   0.591  0.00  0.00    +0.144 HD
ATOM     31  H   UNL     1       5.869   1.452   2.100  0.00  0.00    +0.144 HD
ENDBRANCH   2  29
BRANCH   1  32
ATOM     32  C   UNL     1       4.357  -1.531  -0.031  0.00  0.00    +0.180 C 
BRANCH  32  36
ATOM     33  C   UNL     1       0.562  -0.018  -1.278  0.00  0.00    +0.000 A 
ATOM     34  C   UNL     1       1.648   0.833  -1.181  0.00  0.00    +0.000 A 
ATOM     35  C   UNL     1       2.876   0.343  -0.777  0.00  0.00    +0.005 A 
ATOM     36  C   UNL     1       3.018  -0.997  -0.470  0.00  0.00    -0.026 A 
ATOM     37  C   UNL     1       1.933  -1.848  -0.566  0.00  0.00    +0.005 A 
ATOM     38  C   UNL     1       0.705  -1.358  -0.971  0.00  0.00    +0.000 A 
ENDBRANCH  32  36
ENDBRANCH   1  32
TORSDOF 5
