REMARK  Name = ZINC09589950
REMARK  5 active torsions:
REMARK  status: ('A' for Active; 'I' for Inactive)
REMARK    1  A    between atoms: C_1  and  C_2
REMARK    2  A    between atoms: C_8  and  N_10
REMARK    3  A    between atoms: C_11  and  C_13
REMARK    4  A    between atoms: N_23  and  C_26
REMARK    5  A    between atoms: C_26  and  C_27
REMARK                            x       y       z     vdW  Elec       q    Type
REMARK                         _______ _______ _______ _____ _____    ______ ____
ROOT
ATOM      1  C   UNL     1       1.023  -2.537   3.147  0.00  0.00    +0.039 A 
ATOM      2  C   UNL     1       0.032  -3.243   2.457  0.00  0.00    +0.014 A 
ATOM      3  C   UNL     1       0.043  -4.620   2.443  0.00  0.00    +0.016 A 
ATOM      4  C   UNL     1       1.046  -5.310   3.120  0.00  0.00    +0.063 A 
ATOM      5  C   UNL     1       2.044  -4.606   3.816  0.00  0.00    +0.056 A 
ATOM      6  C   UNL     1       2.031  -3.220   3.822  0.00  0.00    +0.039 A 
ATOM      7  N   UNL     1       3.028  -5.325   4.479  0.00  0.00    -0.307 N 
ATOM      8  H   UNL     1       3.724  -4.853   4.963  0.00  0.00    +0.170 HD
ATOM      9  C   UNL     1       3.029  -6.669   4.458  0.00  0.00    +0.330 A 
ATOM     10  O   UNL     1       3.909  -7.260   5.052  0.00  0.00    -0.246 OA
ATOM     11  N   UNL     1       2.099  -7.386   3.809  0.00  0.00    -0.256 N 
ATOM     12  C   UNL     1       1.096  -6.785   3.132  0.00  0.00    +0.265 A 
ATOM     13  O   UNL     1       0.257  -7.442   2.547  0.00  0.00    -0.267 OA
ENDROOT
BRANCH   1  15
ATOM     14  N   UNL     1       0.031  -0.392   2.498  0.00  0.00    -0.308 N 
ATOM     15  C   UNL     1       1.002  -1.057   3.155  0.00  0.00    +0.244 C 
ATOM     16  O   UNL     1       1.862  -0.441   3.754  0.00  0.00    -0.270 OA
ATOM     17  H   UNL     1      -0.655  -0.884   2.020  0.00  0.00    +0.149 HD
BRANCH  14  24
ATOM     18  C   UNL     1      -0.013   1.086   0.008  0.00  0.00    +0.009 C 
ATOM     19  C   UNL     1      -0.729   1.579   1.267  0.00  0.00    +0.006 C 
ATOM     20  C   UNL     1      -2.164   1.050   1.278  0.00  0.00    +0.005 C 
ATOM     21  C   UNL     1      -2.880   1.543   2.537  0.00  0.00    +0.000 C 
ATOM     22  C   UNL     1      -2.140   1.036   3.776  0.00  0.00    +0.002 C 
ATOM     23  C   UNL     1      -0.705   1.566   3.765  0.00  0.00    +0.022 C 
ATOM     24  C   UNL     1       0.011   1.072   2.506  0.00  0.00    +0.076 C 
ENDBRANCH  14  24
ENDBRANCH   1  15
BRANCH  11  25
ATOM     25  C   UNL     1       2.172  -8.849   3.835  0.00  0.00    +0.165 C 
BRANCH  25  26
ATOM     26  C   UNL     1       1.394  -9.370   5.016  0.00  0.00    -0.024 A 
ATOM     27  C   UNL     1       0.051  -9.670   4.879  0.00  0.00    +0.009 A 
ATOM     28  C   UNL     1      -0.667 -10.148   5.959  0.00  0.00    +0.050 A 
ATOM     29  C   UNL     1      -0.042 -10.327   7.183  0.00  0.00    +0.166 A 
ATOM     30  C   UNL     1       1.311 -10.025   7.320  0.00  0.00    +0.167 A 
ATOM     31  C   UNL     1       2.025  -9.552   6.232  0.00  0.00    +0.055 A 
ATOM     32  O   UNL     1       1.687 -10.285   8.607  0.00  0.00    -0.453 OA
ATOM     33  C   UNL     1       0.655 -11.132   9.145  0.00  0.00    +0.466 C 
ATOM     34  O   UNL     1      -0.513 -10.776   8.383  0.00  0.00    -0.453 OA
ENDBRANCH  25  26
ENDBRANCH  11  25
TORSDOF 4
