REMARK  Name = ZINC12309765
REMARK  14 active torsions:
REMARK  status: ('A' for Active; 'I' for Inactive)
REMARK    1  A    between atoms: C_1  and  C_2
REMARK    2  A    between atoms: C_2  and  C_3
REMARK    3  A    between atoms: C_3  and  C_4
REMARK    4  A    between atoms: C_4  and  C_5
REMARK    5  A    between atoms: C_11  and  N_12
REMARK    6  A    between atoms: N_12  and  O_13
REMARK    7  A    between atoms: O_13  and  C_14
REMARK    8  A    between atoms: C_14  and  C_15
REMARK    9  A    between atoms: N_17  and  C_18
REMARK   10  A    between atoms: C_19  and  C_26
REMARK   11  A    between atoms: C_21  and  C_25
REMARK   12  A    between atoms: C_23  and  C_24
REMARK   13  A    between atoms: N_29  and  C_34
REMARK   14  A    between atoms: N_32  and  C_33
REMARK                            x       y       z     vdW  Elec       q    Type
REMARK                         _______ _______ _______ _____ _____    ______ ____
ROOT
ATOM      1  C   UNL     1      -0.801   6.724   2.949  0.00  0.00    -0.005 A 
ATOM      2  C   UNL     1      -0.318   5.927   3.915  0.00  0.00    +0.090 A 
ATOM      3  N   UNL     1      -0.968   4.787   4.304  0.00  0.00    -0.347 N 
ATOM      4  H   UNL     1      -0.447   4.039   4.920  0.00  0.00    +0.167 HD
ATOM      5  C   UNL     1      -2.258   4.536   3.954  0.00  0.00    +0.129 A 
ATOM      6  C   UNL     1      -2.861   5.288   2.949  0.00  0.00    +0.106 A 
ATOM      7  C   UNL     1      -2.074   6.352   2.299  0.00  0.00    +0.082 A 
ATOM      8  C   UNL     1      -4.200   5.014   2.583  0.00  0.00    +0.268 A 
ATOM      9  O   UNL     1      -4.747   5.657   1.705  0.00  0.00    -0.267 OA
ATOM     10  N   UNL     1      -4.858   4.023   3.223  0.00  0.00    -0.263 N 
ATOM     11  C   UNL     1      -4.259   3.316   4.196  0.00  0.00    +0.333 A 
ATOM     12  O   UNL     1      -4.884   2.436   4.755  0.00  0.00    -0.246 OA
ATOM     13  N   UNL     1      -2.986   3.549   4.566  0.00  0.00    -0.282 N 
ATOM     14  C   UNL     1      -2.377   2.746   5.629  0.00  0.00    +0.155 C 
ATOM     15  C   UNL     1      -6.243   3.719   2.855  0.00  0.00    +0.157 C 
ENDROOT
BRANCH   7  16
ATOM     16  N   UNL     1      -2.485   6.940   1.198  0.00  0.00    -0.264 N 
ATOM     17  H   UNL     1      -2.115   7.944   0.940  0.00  0.00    +0.194 HD
BRANCH  16  18
ATOM     18  O   UNL     1      -3.402   6.282   0.344  0.00  0.00    -0.265 OA
BRANCH  18  19
ATOM     19  C   UNL     1      -3.761   7.037  -0.815  0.00  0.00    +0.288 C 
BRANCH  19  20
ATOM     20  C   UNL     1      -4.737   6.245  -1.647  0.00  0.00    +0.246 C 
ATOM     21  O   UNL     1      -5.090   5.143  -1.284  0.00  0.00    -0.273 OA
ATOM     22  N   UNL     1      -5.217   6.762  -2.796  0.00  0.00    -0.283 N 
ATOM     23  H   UNL     1      -4.824   7.717  -3.176  0.00  0.00    +0.155 HD
BRANCH  22  24
ATOM     24  C   UNL     1      -6.215   6.084  -3.505  0.00  0.00    +0.039 A 
ATOM     25  C   UNL     1      -5.945   4.847  -4.076  0.00  0.00    -0.029 A 
ATOM     26  C   UNL     1      -6.934   4.178  -4.769  0.00  0.00    +0.008 A 
ATOM     27  C   UNL     1      -8.189   4.743  -4.905  0.00  0.00    -0.050 A 
ATOM     28  C   UNL     1      -8.459   5.978  -4.343  0.00  0.00    +0.008 A 
ATOM     29  C   UNL     1      -7.476   6.649  -3.643  0.00  0.00    -0.029 A 
ATOM     30  C   UNL     1      -7.772   7.994  -3.030  0.00  0.00    +0.045 C 
ATOM     31  C   UNL     1      -9.264   4.013  -5.668  0.00  0.00    +0.044 C 
ATOM     32  C   UNL     1      -4.576   4.234  -3.934  0.00  0.00    +0.045 C 
ENDBRANCH  22  24
ENDBRANCH  19  20
ENDBRANCH  18  19
ENDBRANCH  16  18
ENDBRANCH   7  16
BRANCH   1  33
ATOM     33  C   UNL     1      -0.061   7.970   2.536  0.00  0.00    +0.039 C 
BRANCH  33  34
ATOM     34  C   UNL     1      -0.536   9.151   3.385  0.00  0.00    +0.004 C 
BRANCH  34  36
ATOM     35  C   UNL     1      -0.260  11.596   3.814  0.00  0.00    +0.004 C 
ATOM     36  C   UNL     1       0.216  10.416   2.966  0.00  0.00    -0.003 C 
ENDBRANCH  34  36
ENDBRANCH  33  34
ENDBRANCH   1  33
TORSDOF 8
