REMARK  Name = ZINC00888569
REMARK  10 active torsions:
REMARK  status: ('A' for Active; 'I' for Inactive)
REMARK    1  A    between atoms: C_1  and  C_2
REMARK    2  A    between atoms: C_5  and  C_7
REMARK    3  A    between atoms: N_10  and  C_12
REMARK    4  A    between atoms: C_12  and  C_13
REMARK    5  A    between atoms: N_15  and  C_16
REMARK    6  A    between atoms: N_15  and  C_28
REMARK    7  A    between atoms: C_19  and  C_22
REMARK    8  A    between atoms: C_28  and  C_30
REMARK    9  A    between atoms: C_28  and  C_35
REMARK   10  A    between atoms: N_37  and  C_38
REMARK                            x       y       z     vdW  Elec       q    Type
REMARK                         _______ _______ _______ _____ _____    ______ ____
ROOT
ATOM      1  C   UNL     1       6.112  -4.997  -2.429  0.00  0.00    +0.244 C 
ATOM      2  O   UNL     1       5.982  -4.938  -3.633  0.00  0.00    -0.273 OA
ATOM      3  N   UNL     1       7.336  -5.159  -1.889  0.00  0.00    -0.253 N 
ENDROOT
BRANCH   3   4
ATOM      4  C   UNL     1       8.470  -5.133  -2.708  0.00  0.00    +0.038 A 
ATOM      5  C   UNL     1       9.715  -5.455  -2.183  0.00  0.00    +0.024 A 
ATOM      6  C   UNL     1      10.833  -5.429  -2.995  0.00  0.00    +0.006 A 
ATOM      7  C   UNL     1      10.713  -5.082  -4.328  0.00  0.00    -0.044 A 
ATOM      8  C   UNL     1       9.475  -4.760  -4.853  0.00  0.00    +0.006 A 
ATOM      9  C   UNL     1       8.353  -4.790  -4.049  0.00  0.00    +0.024 A 
BRANCH   7  10
ATOM     10  C   UNL     1      11.935  -5.053  -5.210  0.00  0.00    +0.019 C 
ATOM     11  C   UNL     1      12.126  -3.643  -5.772  0.00  0.00    +0.008 C 
ATOM     12  C   UNL     1      13.366  -3.615  -6.668  0.00  0.00    +0.001 C 
ATOM     13  C   UNL     1      13.185  -4.604  -7.821  0.00  0.00    +0.000 C 
ATOM     14  C   UNL     1      12.994  -6.014  -7.259  0.00  0.00    +0.001 C 
ATOM     15  C   UNL     1      11.754  -6.042  -6.363  0.00  0.00    +0.008 C 
ENDBRANCH   7  10
ENDBRANCH   3   4
BRANCH   1  16
ATOM     16  C   UNL     1       4.903  -4.888  -1.535  0.00  0.00    +0.264 C 
BRANCH  16  20
ATOM     17  C   UNL     1       2.211  -3.554  -3.387  0.00  0.00    +0.239 A 
ATOM     18  N   UNL     1       2.003  -4.873  -3.520  0.00  0.00    -0.105 NA
ATOM     19  N   UNL     1       2.942  -5.476  -2.873  0.00  0.00    -0.045 NA
ATOM     20  N   UNL     1       3.720  -4.595  -2.347  0.00  0.00    -0.154 N 
ATOM     21  N   UNL     1       3.298  -3.416  -2.651  0.00  0.00    -0.127 NA
BRANCH  17  26
ATOM     22  C   UNL     1       0.564   1.042  -4.555  0.00  0.00    +0.086 C 
ATOM     23  C   UNL     1       0.662  -0.459  -4.472  0.00  0.00    +0.103 A 
ATOM     24  C   UNL     1      -0.190  -1.335  -5.041  0.00  0.00    +0.045 A 
ATOM     25  C   UNL     1       0.269  -2.627  -4.715  0.00  0.00    +0.053 A 
ATOM     26  C   UNL     1       1.387  -2.467  -3.959  0.00  0.00    +0.175 A 
ATOM     27  O   UNL     1       1.617  -1.147  -3.825  0.00  0.00    -0.457 OA
ENDBRANCH  17  26
ENDBRANCH  16  20
ENDBRANCH   1  16
BRANCH   3  28
ATOM     28  C   UNL     1       7.480  -5.362  -0.446  0.00  0.00    +0.204 C 
BRANCH  28  29
ATOM     29  C   UNL     1       8.335  -4.265   0.134  0.00  0.00    +0.019 A 
ATOM     30  C   UNL     1       8.335  -3.755   1.390  0.00  0.00    +0.013 A 
ATOM     31  C   UNL     1       9.220  -2.740   1.701  0.00  0.00    +0.008 A 
ATOM     32  C   UNL     1      10.061  -2.283   0.741  0.00  0.00    +0.045 A 
ATOM     33  S   UNL     1       9.618  -3.305  -0.654  0.00  0.00    -0.099 S 
ENDBRANCH  28  29
BRANCH  28  34
ATOM     34  C   UNL     1       8.131  -6.696  -0.188  0.00  0.00    +0.239 C 
ATOM     35  O   UNL     1       8.399  -7.429  -1.117  0.00  0.00    -0.273 OA
ATOM     36  N   UNL     1       8.417  -7.075   1.073  0.00  0.00    -0.311 N 
ATOM     37  H   UNL     1       8.203  -6.489   1.816  0.00  0.00    +0.149 HD
BRANCH  36  38
ATOM     38  C   UNL     1       9.050  -8.372   1.323  0.00  0.00    +0.073 C 
ATOM     39  C   UNL     1       7.976  -9.459   1.396  0.00  0.00    +0.022 C 
ATOM     40  C   UNL     1       8.637 -10.813   1.657  0.00  0.00    +0.002 C 
ATOM     41  C   UNL     1       9.401 -10.761   2.982  0.00  0.00    +0.000 C 
ATOM     42  C   UNL     1      10.476  -9.675   2.909  0.00  0.00    +0.002 C 
ATOM     43  C   UNL     1       9.814  -8.320   2.648  0.00  0.00    +0.022 C 
ENDBRANCH  36  38
ENDBRANCH  28  34
ENDBRANCH   3  28
TORSDOF 9
