REMARK  Name = ZINC59503407
REMARK  6 active torsions:
REMARK  status: ('A' for Active; 'I' for Inactive)
REMARK    1  A    between atoms: C_1  and  C_2
REMARK    2  A    between atoms: C_5  and  C_8
REMARK    3  A    between atoms: N_9  and  N_10
REMARK    4  A    between atoms: C_11  and  C_13
REMARK    5  A    between atoms: N_18  and  C_20
REMARK    6  A    between atoms: C_23  and  C_26
REMARK                            x       y       z     vdW  Elec       q    Type
REMARK                         _______ _______ _______ _____ _____    ______ ____
ROOT
ATOM      1  N   UNL     1       0.062  -6.307   1.103  0.00  0.00    -0.207 N 
ATOM      2  C   UNL     1       0.083  -6.993   2.263  0.00  0.00    +0.237 C 
ATOM      3  O   UNL     1       0.072  -6.397   3.320  0.00  0.00    -0.274 OA
ATOM      4  H   UNL     1       0.071  -6.784   0.258  0.00  0.00    +0.177 HD
ENDROOT
BRANCH   2   5
ATOM      5  C   UNL     1       0.119  -8.499   2.248  0.00  0.00    +0.103 C 
ATOM      6  C   UNL     1       1.432  -9.015   1.615  0.00  0.00    +0.110 C 
ATOM      7  C   UNL     1       2.358  -9.217   2.795  0.00  0.00    +0.221 C 
ATOM      8  O   UNL     1       3.562  -9.344   2.720  0.00  0.00    -0.275 OA
ATOM      9  N   UNL     1       1.651  -9.236   3.939  0.00  0.00    -0.271 N 
ATOM     10  C   UNL     1       0.215  -9.065   3.682  0.00  0.00    +0.127 C 
BRANCH   9  11
ATOM     11  C   UNL     1       2.212  -9.397   5.211  0.00  0.00    +0.036 A 
ATOM     12  C   UNL     1       3.568  -9.664   5.344  0.00  0.00    +0.024 A 
ATOM     13  C   UNL     1       4.119  -9.823   6.601  0.00  0.00    +0.005 A 
ATOM     14  C   UNL     1       3.321  -9.716   7.725  0.00  0.00    -0.050 A 
ATOM     15  C   UNL     1       1.970  -9.450   7.596  0.00  0.00    +0.005 A 
ATOM     16  C   UNL     1       1.415  -9.285   6.342  0.00  0.00    +0.024 A 
ATOM     17  C   UNL     1       3.925  -9.890   9.095  0.00  0.00    +0.044 C 
ENDBRANCH   9  11
ENDBRANCH   2   5
BRANCH   1  19
ATOM     18  C   UNL     1       0.009  -4.247   0.001  0.00  0.00    +0.138 C 
ATOM     19  N   UNL     1       0.029  -4.907   1.117  0.00  0.00    -0.188 NA
BRANCH  18  24
ATOM     20  C   UNL     1      -0.131   1.503   0.060  0.00  0.00    +0.044 C 
ATOM     21  C   UNL     1      -0.094  -0.004   0.044  0.00  0.00    -0.050 A 
ATOM     22  C   UNL     1      -0.081  -0.680  -1.163  0.00  0.00    +0.004 A 
ATOM     23  C   UNL     1      -0.048  -2.058  -1.185  0.00  0.00    +0.010 A 
ATOM     24  C   UNL     1      -0.026  -2.772   0.016  0.00  0.00    -0.005 A 
ATOM     25  C   UNL     1      -0.039  -2.083   1.231  0.00  0.00    +0.010 A 
ATOM     26  C   UNL     1      -0.067  -0.704   1.237  0.00  0.00    +0.004 A 
ENDBRANCH  18  24
ENDBRANCH   1  19
TORSDOF 4
