REMARK  Name = ZINC61720693
REMARK  6 active torsions:
REMARK  status: ('A' for Active; 'I' for Inactive)
REMARK    1  A    between atoms: C_1  and  C_2
REMARK    2  A    between atoms: C_2  and  C_4
REMARK    3  A    between atoms: C_2  and  N_8
REMARK    4  A    between atoms: C_4  and  O_6
REMARK    5  A    between atoms: O_6  and  C_7
REMARK    6  A    between atoms: C_20  and  C_22
REMARK                            x       y       z     vdW  Elec       q    Type
REMARK                         _______ _______ _______ _____ _____    ______ ____
ROOT
ATOM      1  N   UNL     1      -1.468  -0.368  -2.024  0.00  0.00    -0.286 N 
ATOM      2  C   UNL     1      -2.189  -0.673  -0.927  0.00  0.00    +0.304 C 
ATOM      3  O   UNL     1      -1.668  -0.642   0.171  0.00  0.00    -0.253 OA
ATOM      4  N   UNL     1      -3.488  -1.012  -1.047  0.00  0.00    -0.273 N 
ATOM      5  C   UNL     1      -4.323  -1.234   0.143  0.00  0.00    +0.116 C 
ATOM      6  C   UNL     1      -5.431  -0.175   0.186  0.00  0.00    +0.076 C 
ATOM      7  C   UNL     1      -6.039  -0.051  -1.188  0.00  0.00    +0.066 A 
ATOM      8  C   UNL     1      -5.453  -0.487  -2.324  0.00  0.00    +0.064 A 
ATOM      9  N   UNL     1      -6.296  -0.195  -3.351  0.00  0.00    -0.346 N 
ATOM     10  H   UNL     1      -6.148  -0.385  -4.290  0.00  0.00    +0.167 HD
ATOM     11  C   UNL     1      -7.380   0.410  -2.812  0.00  0.00    +0.197 A 
ATOM     12  N   UNL     1      -7.216   0.491  -1.518  0.00  0.00    -0.240 NA
ATOM     13  C   UNL     1      -4.111  -1.164  -2.375  0.00  0.00    +0.159 C 
ATOM     14  H   UNL     1      -1.863  -0.464  -2.906  0.00  0.00    +0.151 HD
ENDROOT
BRANCH  13  15
ATOM     15  C   UNL     1      -4.290  -2.626  -2.693  0.00  0.00    +0.015 A 
ATOM     16  C   UNL     1      -5.540  -3.207  -2.591  0.00  0.00    +0.024 A 
ATOM     17  C   UNL     1      -5.705  -4.549  -2.882  0.00  0.00    +0.018 A 
ATOM     18  C   UNL     1      -4.620  -5.311  -3.277  0.00  0.00    +0.018 A 
ATOM     19  C   UNL     1      -3.370  -4.731  -3.380  0.00  0.00    +0.040 A 
ATOM     20  C   UNL     1      -3.205  -3.386  -3.094  0.00  0.00    +0.129 A 
ATOM     21  F   UNL     1      -1.984  -2.817  -3.200  0.00  0.00    -0.205 F 
ATOM     22 BR   UNL     1      -7.416  -5.344  -2.741  0.00  0.00    -0.050 Br
ENDBRANCH  13  15
BRANCH   1  24
ATOM     23  C   UNL     1       0.855  -1.091  -1.778  0.00  0.00    +0.040 C 
ATOM     24  C   UNL     1      -0.090   0.107  -1.886  0.00  0.00    +0.180 C 
BRANCH  24  25
ATOM     25  C   UNL     1       0.281   0.932  -3.092  0.00  0.00    +0.327 C 
ATOM     26  O   UNL     1      -0.524   1.104  -3.976  0.00  0.00    -0.249 OA
BRANCH  25  27
ATOM     27  O   UNL     1       1.505   1.474  -3.184  0.00  0.00    -0.467 OA
ATOM     28  C   UNL     1       1.788   2.243  -4.355  0.00  0.00    +0.280 C 
ENDBRANCH  25  27
ENDBRANCH  24  25
ENDBRANCH   1  24
TORSDOF 4
