REMARK  Name = ZINC19500577
REMARK  16 active torsions:
REMARK  status: ('A' for Active; 'I' for Inactive)
REMARK    1  A    between atoms: C_1  and  C_2
REMARK    2  A    between atoms: C_2  and  C_3
REMARK    3  A    between atoms: C_3  and  C_5
REMARK    4  A    between atoms: C_3  and  N_15
REMARK    5  A    between atoms: N_9  and  C_10
REMARK    6  A    between atoms: C_10  and  C_11
REMARK    7  A    between atoms: C_10  and  C_12
REMARK    8  A    between atoms: C_10  and  C_13
REMARK    9  A    between atoms: C_13  and  C_14
REMARK   10  A    between atoms: N_15  and  C_16
REMARK   11  A    between atoms: N_15  and  C_24
REMARK   12  A    between atoms: C_16  and  C_17
REMARK   13  A    between atoms: C_17  and  N_18
REMARK   14  A    between atoms: C_24  and  C_25
REMARK   15  A    between atoms: C_28  and  C_38
REMARK   16  A    between atoms: C_30  and  C_37
REMARK                            x       y       z     vdW  Elec       q    Type
REMARK                         _______ _______ _______ _____ _____    ______ ____
ROOT
ATOM      1  N   UNL     1       5.641   4.766  -1.293  0.00  0.00    +0.390 N 
ATOM      2  H   UNL     1       5.769   3.894  -1.952  0.00  0.00    -0.080 HD
ENDROOT
BRANCH   1   3
ATOM      3  C   UNL     1       6.879   5.556  -1.346  0.00  0.00    +0.003 C 
BRANCH   3   4
ATOM      4  C   UNL     1       6.870   6.578  -0.238  0.00  0.00    +0.139 A 
ATOM      5  N   UNL     1       6.522   6.376   1.010  0.00  0.00    -0.115 NA
ATOM      6  N   UNL     1       6.652   7.490   1.644  0.00  0.00    -0.023 NA
ATOM      7  N   UNL     1       7.066   8.399   0.832  0.00  0.00    -0.043 NA
ATOM      8  N   UNL     1       7.213   7.875  -0.338  0.00  0.00    -0.225 N 
BRANCH   8   9
ATOM      9  C   UNL     1       7.668   8.564  -1.549  0.00  0.00    +0.061 C 
ATOM     10  C   UNL     1       8.864   7.818  -2.141  0.00  0.00    +0.036 C 
ATOM     11  C   UNL     1       6.531   8.600  -2.573  0.00  0.00    +0.036 C 
BRANCH   9  12
ATOM     12  C   UNL     1       8.082   9.994  -1.197  0.00  0.00    +0.026 C 
ATOM     13  C   UNL     1       8.556  10.714  -2.461  0.00  0.00    +0.006 C 
ENDBRANCH   9  12
ENDBRANCH   8   9
ENDBRANCH   3   4
BRANCH   3  15
ATOM     14  C   UNL     1       8.166   3.675  -2.369  0.00  0.00    +0.002 C 
ATOM     15  C   UNL     1       8.084   4.629  -1.176  0.00  0.00    -0.011 C 
ENDBRANCH   3  15
ENDBRANCH   1   3
BRANCH   1  16
ATOM     16  C   UNL     1       4.498   5.544  -1.789  0.00  0.00    -0.062 C 
BRANCH  16  17
ATOM     17  C   UNL     1       4.615   5.711  -3.306  0.00  0.00    +0.066 C 
BRANCH  17  18
ATOM     18  N   UNL     1       3.457   6.463  -3.806  0.00  0.00    -0.300 NA
ATOM     19  C   UNL     1       2.216   5.693  -3.640  0.00  0.00    +0.112 C 
ATOM     20  C   UNL     1       1.030   6.535  -4.118  0.00  0.00    +0.175 C 
ATOM     21  O   UNL     1       1.247   6.927  -5.476  0.00  0.00    -0.377 OA
ATOM     22  C   UNL     1       2.447   7.680  -5.674  0.00  0.00    +0.175 C 
ATOM     23  C   UNL     1       3.647   6.849  -5.212  0.00  0.00    +0.112 C 
ENDBRANCH  17  18
ENDBRANCH  16  17
ENDBRANCH   1  16
BRANCH   1  24
ATOM     24  C   UNL     1       5.391   4.271   0.067  0.00  0.00    -0.036 C 
BRANCH  24  25
ATOM     25  C   UNL     1       4.480   3.072   0.005  0.00  0.00    +0.001 A 
ATOM     26  C   UNL     1       5.008   1.823  -0.005  0.00  0.00    +0.017 A 
ATOM     27  C   UNL     1       4.096   0.679  -0.065  0.00  0.00    +0.002 A 
ATOM     28  C   UNL     1       4.582  -0.633  -0.078  0.00  0.00    -0.041 A 
ATOM     29  C   UNL     1       3.705  -1.679  -0.135  0.00  0.00    +0.007 A 
ATOM     30  C   UNL     1       2.336  -1.451  -0.180  0.00  0.00    -0.048 A 
ATOM     31  C   UNL     1       1.835  -0.168  -0.168  0.00  0.00    +0.029 A 
ATOM     32  C   UNL     1       2.709   0.913  -0.110  0.00  0.00    +0.050 A 
ATOM     33  N   UNL     1       2.236   2.208  -0.097  0.00  0.00    -0.322 N 
ATOM     34  H   UNL     1       1.153   2.399  -0.133  0.00  0.00    +0.169 HD
ATOM     35  C   UNL     1       3.081   3.253  -0.042  0.00  0.00    +0.251 A 
ATOM     36  O   UNL     1       2.628   4.384  -0.033  0.00  0.00    -0.268 OA
ATOM     37  C   UNL     1       1.387  -2.621  -0.242  0.00  0.00    +0.044 C 
ATOM     38  C   UNL     1       6.066  -0.891  -0.029  0.00  0.00    +0.044 C 
ENDBRANCH  24  25
ENDBRANCH   1  24
TORSDOF 10
