REMARK  Name = ZINC39457900
REMARK  7 active torsions:
REMARK  status: ('A' for Active; 'I' for Inactive)
REMARK    1  A    between atoms: C_1  and  C_2
REMARK    2  A    between atoms: C_3  and  O_26
REMARK    3  A    between atoms: N_6  and  S_7
REMARK    4  A    between atoms: S_7  and  C_8
REMARK    5  A    between atoms: C_11  and  C_15
REMARK    6  A    between atoms: C_20  and  O_21
REMARK    7  A    between atoms: O_26  and  C_27
REMARK                            x       y       z     vdW  Elec       q    Type
REMARK                         _______ _______ _______ _____ _____    ______ ____
ROOT
ATOM      1  C   UNL     1      -0.018   1.503   0.010  0.00  0.00    +0.068 C 
ATOM      2  C   UNL     1       0.002  -0.004   0.002  0.00  0.00    +0.070 A 
ATOM      3  C   UNL     1       0.008  -0.791  -1.105  0.00  0.00    +0.145 A 
ATOM      4  C   UNL     1       0.032  -2.122  -0.679  0.00  0.00    +0.023 A 
ATOM      5  C   UNL     1       0.049  -2.107   0.694  0.00  0.00    +0.086 A 
ATOM      6  N   UNL     1       0.024  -0.808   1.107  0.00  0.00    -0.282 N 
ATOM      7  C   UNL     1       0.114  -3.340   1.498  0.00  0.00    +0.100 A 
ATOM      8  C   UNL     1       1.045  -4.324   1.081  0.00  0.00    +0.053 A 
ATOM      9  C   UNL     1       1.107  -5.541   1.785  0.00  0.00    -0.000 A 
ATOM     10  C   UNL     1       0.264  -5.694   2.891  0.00  0.00    +0.029 A 
ATOM     11  C   UNL     1      -0.591  -4.669   3.245  0.00  0.00    +0.112 A 
ATOM     12  N   UNL     1      -0.649  -3.543   2.558  0.00  0.00    -0.253 NA
ATOM     13  C   UNL     1       1.919  -4.028  -0.047  0.00  0.00    +0.166 C 
ATOM     14  O   UNL     1       3.083  -3.756   0.158  0.00  0.00    -0.292 OA
ATOM     15  C   UNL     1       1.403  -4.054  -1.468  0.00  0.00    +0.084 C 
ATOM     16  C   UNL     1       0.029  -3.370  -1.516  0.00  0.00    +0.049 C 
ENDROOT
BRANCH   9  17
ATOM     17  C   UNL     1       2.030  -6.620   1.369  0.00  0.00    +0.024 A 
ATOM     18  C   UNL     1       1.525  -7.834   0.903  0.00  0.00    +0.012 A 
ATOM     19  C   UNL     1       2.390  -8.837   0.518  0.00  0.00    +0.001 A 
ATOM     20  C   UNL     1       3.759  -8.644   0.591  0.00  0.00    +0.004 A 
ATOM     21  C   UNL     1       4.271  -7.446   1.051  0.00  0.00    +0.046 A 
ATOM     22  C   UNL     1       3.415  -6.426   1.437  0.00  0.00    +0.125 A 
BRANCH  22  23
ATOM     23  O   UNL     1       3.917  -5.247   1.883  0.00  0.00    -0.506 OA
ATOM     24  H   UNL     1       4.066  -5.220   2.838  0.00  0.00    +0.292 HD
ENDBRANCH  22  23
ENDBRANCH   9  17
BRANCH   6  25
ATOM     25  S   UNL     1       0.017  -0.292   2.681  0.00  0.00    -0.047 S 
ATOM     26  C   UNL     1      -1.744  -0.197   3.104  0.00  0.00    +0.110 C 
ENDBRANCH   6  25
BRANCH   3  27
ATOM     27  O   UNL     1      -0.008  -0.361  -2.397  0.00  0.00    -0.493 OA
ATOM     28  C   UNL     1       1.258  -0.136  -3.022  0.00  0.00    +0.277 C 
ENDBRANCH   3  27
TORSDOF 4
