REMARK  Name = ZINC33024417
REMARK  11 active torsions:
REMARK  status: ('A' for Active; 'I' for Inactive)
REMARK    1  A    between atoms: C_1  and  C_2
REMARK    2  A    between atoms: C_3  and  C_32
REMARK    3  A    between atoms: C_4  and  C_9
REMARK    4  A    between atoms: C_7  and  C_8
REMARK    5  A    between atoms: C_14  and  C_17
REMARK    6  A    between atoms: C_17  and  C_18
REMARK    7  A    between atoms: N_20  and  C_21
REMARK    8  A    between atoms: C_21  and  C_22
REMARK    9  A    between atoms: C_22  and  C_23
REMARK   10  A    between atoms: C_23  and  N_24
REMARK   11  A    between atoms: C_29  and  C_31
REMARK                            x       y       z     vdW  Elec       q    Type
REMARK                         _______ _______ _______ _____ _____    ______ ____
ROOT
ATOM      1  C   UNL     1      -1.767   3.505  13.400  0.00  0.00    +0.263 C 
ATOM      2  O   UNL     1      -1.167   3.032  14.348  0.00  0.00    -0.268 OA
ATOM      3  N   UNL     1      -2.193   2.704  12.404  0.00  0.00    -0.296 N 
ATOM      4  C   UNL     1      -1.849   1.276  12.393  0.00  0.00    +0.108 C 
ATOM      5  C   UNL     1      -1.199   0.936  11.048  0.00  0.00    +0.023 C 
ATOM      6  C   UNL     1      -2.131   1.366   9.913  0.00  0.00    +0.001 C 
ATOM      7  C   UNL     1      -2.348   2.880   9.975  0.00  0.00    +0.023 C 
ATOM      8  C   UNL     1      -3.011   3.242  11.308  0.00  0.00    +0.108 C 
ENDROOT
BRANCH   1  12
ATOM      9  C   UNL     1      -4.063   8.023  13.612  0.00  0.00    +0.046 C 
ATOM     10  C   UNL     1      -3.026   6.943  13.433  0.00  0.00    -0.027 A 
ATOM     11  C   UNL     1      -3.230   5.570  13.600  0.00  0.00    -0.018 A 
ATOM     12  C   UNL     1      -2.027   4.948  13.343  0.00  0.00    +0.105 A 
ATOM     13  N   UNL     1      -1.115   5.926  13.018  0.00  0.00    -0.354 N 
ATOM     14  H   UNL     1      -0.079   5.652  12.769  0.00  0.00    +0.166 HD
ATOM     15  C   UNL     1      -1.733   7.131  13.076  0.00  0.00    +0.017 A 
ATOM     16  C   UNL     1      -1.087   8.462  12.789  0.00  0.00    +0.063 C 
ATOM     17  C   UNL     1      -4.521   4.897  13.990  0.00  0.00    +0.046 C 
ENDBRANCH   1  12
BRANCH   6  18
ATOM     18  C   UNL     1      -1.500   0.997   8.568  0.00  0.00    +0.099 C 
BRANCH  18  19
ATOM     19  C   UNL     1      -2.469   1.309   7.457  0.00  0.00    +0.213 C 
ATOM     20  O   UNL     1      -3.557   1.780   7.715  0.00  0.00    -0.276 OA
ATOM     21  N   UNL     1      -2.127   1.064   6.176  0.00  0.00    -0.315 N 
ATOM     22  H   UNL     1      -1.141   0.637   5.943  0.00  0.00    +0.149 HD
BRANCH  21  23
ATOM     23  C   UNL     1      -3.069   1.367   5.096  0.00  0.00    +0.102 C 
BRANCH  23  24
ATOM     24  C   UNL     1      -2.439   0.997   3.752  0.00  0.00    +0.000 C 
BRANCH  24  25
ATOM     25  C   UNL     1      -3.423   1.314   2.623  0.00  0.00    -0.077 C 
BRANCH  25  26
ATOM     26  N   UNL     1      -2.818   0.959   1.332  0.00  0.00    +0.381 N 
ATOM     27  C   UNL     1      -1.434   1.446   1.248  0.00  0.00    -0.078 C 
ATOM     28  C   UNL     1      -0.791   0.936  -0.043  0.00  0.00    -0.019 C 
ATOM     29  C   UNL     1      -1.601   1.433  -1.244  0.00  0.00    -0.003 C 
ATOM     30  C   UNL     1      -3.049   0.953  -1.106  0.00  0.00    -0.016 C 
ATOM     31  C   UNL     1      -3.627   1.463   0.216  0.00  0.00    -0.072 C 
ATOM     32  C   UNL     1      -5.067   0.968   0.366  0.00  0.00    -0.013 C 
ATOM     33  H   UNL     1      -2.792  -0.138   1.259  0.00  0.00    -0.081 HD
ENDBRANCH  25  26
ENDBRANCH  24  25
ENDBRANCH  23  24
ENDBRANCH  21  23
ENDBRANCH  18  19
ENDBRANCH   6  18
TORSDOF 7
