REMARK  Name = ZINC63798840
REMARK  9 active torsions:
REMARK  status: ('A' for Active; 'I' for Inactive)
REMARK    1  A    between atoms: C_1  and  C_2
REMARK    2  A    between atoms: C_4  and  C_29
REMARK    3  A    between atoms: C_5  and  C_9
REMARK    4  A    between atoms: C_6  and  C_8
REMARK    5  A    between atoms: C_9  and  N_10
REMARK    6  A    between atoms: N_13  and  C_14
REMARK    7  A    between atoms: C_14  and  C_15
REMARK    8  A    between atoms: C_23  and  C_28
REMARK    9  A    between atoms: C_25  and  C_27
REMARK                            x       y       z     vdW  Elec       q    Type
REMARK                         _______ _______ _______ _____ _____    ______ ____
ROOT
ATOM      1  N   UNL     1       1.444  -4.750   0.023  0.00  0.00    -0.295 N 
ATOM      2  C   UNL     1       1.708  -6.071  -0.010  0.00  0.00    +0.300 C 
ATOM      3  O   UNL     1       0.795  -6.873  -0.026  0.00  0.00    -0.253 OA
ATOM      4  N   UNL     1       2.985  -6.503  -0.024  0.00  0.00    -0.295 N 
ATOM      5  H   UNL     1       2.173  -4.110   0.036  0.00  0.00    +0.151 HD
ATOM      6  H   UNL     1       3.714  -5.862  -0.011  0.00  0.00    +0.151 HD
ENDROOT
BRANCH   1   7
ATOM      7  C   UNL     1       0.057  -4.281   0.038  0.00  0.00    +0.141 C 
BRANCH   7  12
ATOM      8  C   UNL     1      -0.025   1.496   0.177  0.00  0.00    +0.044 C 
ATOM      9  C   UNL     1      -0.004  -0.011   0.141  0.00  0.00    -0.050 A 
ATOM     10  C   UNL     1       0.003  -0.673  -1.073  0.00  0.00    +0.007 A 
ATOM     11  C   UNL     1       0.023  -2.054  -1.106  0.00  0.00    -0.045 A 
ATOM     12  C   UNL     1       0.036  -2.774   0.074  0.00  0.00    -0.024 A 
ATOM     13  C   UNL     1       0.029  -2.112   1.288  0.00  0.00    -0.045 A 
ATOM     14  C   UNL     1       0.014  -0.730   1.321  0.00  0.00    +0.007 A 
ATOM     15  C   UNL     1       0.043  -2.897   2.574  0.00  0.00    +0.044 C 
ATOM     16  C   UNL     1       0.030  -2.776  -2.429  0.00  0.00    +0.044 C 
ENDBRANCH   7  12
ENDBRANCH   1   7
BRANCH   4  17
ATOM     17  C   UNL     1       3.272  -7.939  -0.059  0.00  0.00    +0.142 C 
BRANCH  17  18
ATOM     18  C   UNL     1       4.764  -8.153  -0.069  0.00  0.00    -0.014 A 
ATOM     19  C   UNL     1       5.456  -8.218  -1.271  0.00  0.00    +0.010 A 
ATOM     20  C   UNL     1       6.824  -8.415  -1.236  0.00  0.00    +0.042 A 
ATOM     21  C   UNL     1       7.458  -8.541  -0.004  0.00  0.00    +0.099 A 
ATOM     22  N   UNL     1       6.763  -8.473   1.121  0.00  0.00    -0.349 N 
ATOM     23  C   UNL     1       5.458  -8.280   1.118  0.00  0.00    +0.089 A 
ATOM     24  N   UNL     1       8.833  -8.740   0.047  0.00  0.00    -0.312 N 
ATOM     25  C   UNL     1       9.550  -8.751   1.332  0.00  0.00    +0.137 C 
ATOM     26  C   UNL     1      10.418 -10.014   1.391  0.00  0.00    +0.133 C 
ATOM     27  O   UNL     1      11.224 -10.085   0.212  0.00  0.00    -0.371 OA
ATOM     28  C   UNL     1      10.478 -10.200  -1.002  0.00  0.00    +0.133 C 
ATOM     29  C   UNL     1       9.613  -8.953  -1.183  0.00  0.00    +0.137 C 
ATOM     30  C   UNL     1      11.442 -10.331  -2.183  0.00  0.00    +0.039 C 
ATOM     31  C   UNL     1      11.320  -9.957   2.625  0.00  0.00    +0.039 C 
ATOM     32  H   UNL     1       7.226  -8.564   1.969  0.00  0.00    +0.167 HD
ENDBRANCH  17  18
ENDBRANCH   4  17
TORSDOF 4
