REMARK  Name = ZINC39992056
REMARK  9 active torsions:
REMARK  status: ('A' for Active; 'I' for Inactive)
REMARK    1  A    between atoms: C_1  and  C_2
REMARK    2  A    between atoms: C_4  and  N_10
REMARK    3  A    between atoms: C_5  and  C_9
REMARK    4  A    between atoms: N_7  and  C_8
REMARK    5  A    between atoms: C_11  and  C_13
REMARK    6  A    between atoms: C_13  and  S_14
REMARK    7  A    between atoms: S_14  and  C_15
REMARK    8  A    between atoms: C_18  and  C_23
REMARK    9  A    between atoms: N_19  and  C_20
REMARK                            x       y       z     vdW  Elec       q    Type
REMARK                         _______ _______ _______ _____ _____    ______ ____
ROOT
ATOM      1  C   UNL     1       1.747  -0.677  -7.727  0.00  0.00    +0.193 A 
ATOM      2  N   UNL     1       0.679   0.050  -7.959  0.00  0.00    -0.122 NA
ATOM      3  N   UNL     1       0.508   0.194  -9.224  0.00  0.00    -0.128 NA
ATOM      4  C   UNL     1       1.457  -0.433  -9.880  0.00  0.00    +0.167 A 
ATOM      5  N   UNL     1       2.285  -1.006  -8.941  0.00  0.00    -0.299 N 
ENDROOT
BRANCH   4   6
ATOM      6  C   UNL     1       1.611  -0.505 -11.347  0.00  0.00    +0.044 A 
ATOM      7  C   UNL     1       0.662  -0.009 -12.357  0.00  0.00    +0.010 A 
ATOM      8  C   UNL     1      -0.575   0.631 -12.289  0.00  0.00    +0.011 A 
ATOM      9  C   UNL     1      -1.228   0.976 -13.451  0.00  0.00    +0.001 A 
ATOM     10  C   UNL     1      -0.662   0.690 -14.685  0.00  0.00    +0.002 A 
ATOM     11  C   UNL     1       0.559   0.057 -14.768  0.00  0.00    +0.026 A 
ATOM     12  C   UNL     1       1.236  -0.299 -13.605  0.00  0.00    +0.047 A 
ATOM     13  N   UNL     1       2.442  -0.923 -13.370  0.00  0.00    -0.360 N 
ATOM     14  C   UNL     1       2.659  -1.037 -12.027  0.00  0.00    +0.095 A 
ATOM     15  H   UNL     1       3.050  -1.234 -14.059  0.00  0.00    +0.165 HD
ENDBRANCH   4   6
BRANCH   5  16
ATOM     16  C   UNL     1       3.488  -1.803  -9.190  0.00  0.00    +0.091 C 
ATOM     17  C   UNL     1       4.032  -2.643  -8.032  0.00  0.00    +0.027 C 
ATOM     18  C   UNL     1       4.775  -1.382  -8.478  0.00  0.00    +0.027 C 
ENDBRANCH   5  16
BRANCH   1  19
ATOM     19  S   UNL     1       2.376  -1.136  -6.146  0.00  0.00    -0.077 S 
BRANCH  19  20
ATOM     20  C   UNL     1       1.211  -0.386  -4.976  0.00  0.00    +0.173 C 
BRANCH  20  22
ATOM     21  N   UNL     1       0.917  -0.251  -2.523  0.00  0.00    -0.286 N 
ATOM     22  C   UNL     1       1.639  -0.707  -3.567  0.00  0.00    +0.227 C 
ATOM     23  O   UNL     1       2.632  -1.376  -3.371  0.00  0.00    -0.275 OA
ATOM     24  H   UNL     1       0.085   0.222  -2.679  0.00  0.00    +0.155 HD
BRANCH  21  27
ATOM     25  C   UNL     1       0.402  -2.655  -0.515  0.00  0.00    +0.032 C 
ATOM     26  C   UNL     1       1.666  -1.793  -0.563  0.00  0.00    +0.118 C 
ATOM     27  C   UNL     1       1.371  -0.459  -1.214  0.00  0.00    +0.047 C 
ATOM     28  C   UNL     1       1.623   0.472  -0.309  0.00  0.00    +0.034 C 
ATOM     29  N   UNL     1       2.057  -0.085   0.887  0.00  0.00    -0.280 N 
ATOM     30  N   UNL     1       2.108  -1.450   0.802  0.00  0.00    -0.224 NA
ATOM     31  C   UNL     1       1.239  -2.073   1.810  0.00  0.00    +0.128 C 
ATOM     32  C   UNL     1       1.459   1.952  -0.546  0.00  0.00    +0.063 C 
ATOM     33  H   UNL     1       2.295   0.425   1.677  0.00  0.00    +0.166 HD
ENDBRANCH  21  27
ENDBRANCH  20  22
ENDBRANCH  19  20
ENDBRANCH   1  19
TORSDOF 6
