REMARK  Name = ZINC09843463
REMARK  6 active torsions:
REMARK  status: ('A' for Active; 'I' for Inactive)
REMARK    1  A    between atoms: C_1  and  C_2
REMARK    2  A    between atoms: C_2  and  C_3
REMARK    3  A    between atoms: C_3  and  N_4
REMARK    4  A    between atoms: N_13  and  C_16
REMARK    5  A    between atoms: C_16  and  C_17
REMARK    6  A    between atoms: C_20  and  C_23
REMARK                            x       y       z     vdW  Elec       q    Type
REMARK                         _______ _______ _______ _____ _____    ______ ____
ROOT
ATOM      1  N   UNL     1      -2.345   3.904   0.045  0.00  0.00    -0.292 N 
ATOM      2  C   UNL     1      -1.185   3.147   0.029  0.00  0.00    +0.077 A 
ATOM      3  C   UNL     1      -1.218   1.756   0.017  0.00  0.00    +0.030 A 
ATOM      4  C   UNL     1      -0.013   1.076   0.008  0.00  0.00    +0.022 A 
ATOM      5  C   UNL     1       1.178   1.791   0.000  0.00  0.00    +0.112 A 
ATOM      6  N   UNL     1       1.185   3.106   0.007  0.00  0.00    -0.248 NA
ATOM      7  C   UNL     1       0.057   3.801   0.021  0.00  0.00    +0.152 A 
ATOM      8  C   UNL     1       0.060   5.279   0.029  0.00  0.00    +0.283 A 
ATOM      9  O   UNL     1       1.105   5.901   0.023  0.00  0.00    -0.265 OA
ATOM     10  N   UNL     1      -1.127   5.923   0.044  0.00  0.00    -0.255 N 
ATOM     11  C   UNL     1      -2.287   5.247   0.052  0.00  0.00    +0.333 A 
ATOM     12  O   UNL     1      -3.328   5.875   0.066  0.00  0.00    -0.246 OA
ENDROOT
BRANCH   1  13
ATOM     13  C   UNL     1      -3.648   3.234   0.054  0.00  0.00    +0.127 C 
BRANCH  13  15
ATOM     14  C   UNL     1      -5.448   2.293   1.510  0.00  0.00    +0.005 C 
ATOM     15  C   UNL     1      -4.087   2.993   1.500  0.00  0.00    +0.018 C 
ENDBRANCH  13  15
ENDBRANCH   1  13
BRANCH  10  16
ATOM     16  C   UNL     1      -1.150   7.387   0.052  0.00  0.00    +0.165 C 
BRANCH  16  17
ATOM     17  C   UNL     1      -1.144   7.882   1.476  0.00  0.00    -0.027 A 
ATOM     18  C   UNL     1      -2.338   8.095   2.139  0.00  0.00    +0.005 A 
ATOM     19  C   UNL     1      -2.332   8.545   3.446  0.00  0.00    +0.004 A 
ATOM     20  C   UNL     1      -1.132   8.790   4.088  0.00  0.00    -0.050 A 
ATOM     21  C   UNL     1       0.062   8.581   3.423  0.00  0.00    +0.004 A 
ATOM     22  C   UNL     1       0.056   8.127   2.117  0.00  0.00    +0.005 A 
ATOM     23  C   UNL     1      -1.126   9.284   5.511  0.00  0.00    +0.044 C 
ENDBRANCH  16  17
ENDBRANCH  10  16
TORSDOF 4
