REMARK  Name = ZINC24959047
REMARK  2 active torsions:
REMARK  status: ('A' for Active; 'I' for Inactive)
REMARK    1  A    between atoms: C_13  and  C_16
REMARK    2  A    between atoms: N_18  and  C_19
REMARK                            x       y       z     vdW  Elec       q    Type
REMARK                         _______ _______ _______ _____ _____    ______ ____
ROOT
ATOM      1  C   UNL     1       1.104  -0.328  -6.430  0.00  0.00    +0.002 A 
ATOM      2  C   UNL     1       2.034  -1.027  -5.675  0.00  0.00    +0.004 A 
ATOM      3  C   UNL     1       2.037  -0.923  -4.298  0.00  0.00    +0.048 A 
ATOM      4  C   UNL     1       1.107  -0.115  -3.665  0.00  0.00    +0.157 A 
ATOM      5  C   UNL     1       0.165   0.594  -4.426  0.00  0.00    +0.111 A 
ATOM      6  C   UNL     1       0.172   0.479  -5.816  0.00  0.00    +0.031 A 
ATOM      7  N   UNL     1      -0.604   1.290  -3.544  0.00  0.00    -0.195 NA
ATOM      8  C   UNL     1      -0.182   1.040  -2.331  0.00  0.00    +0.291 A 
ATOM      9  O   UNL     1       0.862   0.193  -2.370  0.00  0.00    -0.424 OA
ATOM     10  N   UNL     1      -0.723   1.572  -1.182  0.00  0.00    -0.285 N 
ATOM     11  C   UNL     1      -0.013   1.086   0.008  0.00  0.00    +0.110 C 
ATOM     12  C   UNL     1      -0.729   1.579   1.267  0.00  0.00    +0.032 C 
ATOM     13  C   UNL     1      -0.764   3.110   1.262  0.00  0.00    +0.078 C 
ATOM     14  C   UNL     1      -1.466   3.591  -0.011  0.00  0.00    +0.032 C 
ATOM     15  C   UNL     1      -0.729   3.040  -1.234  0.00  0.00    +0.110 C 
ENDROOT
BRANCH  13  16
ATOM     16  C   UNL     1      -1.520   3.600   2.470  0.00  0.00    +0.216 C 
ATOM     17  O   UNL     1      -2.522   4.269   2.328  0.00  0.00    -0.276 OA
ATOM     18  N   UNL     1      -1.083   3.296   3.708  0.00  0.00    -0.312 N 
ATOM     19  H   UNL     1      -0.175   2.689   3.837  0.00  0.00    +0.149 HD
BRANCH  18  20
ATOM     20  C   UNL     1      -1.818   3.773   4.882  0.00  0.00    +0.079 C 
ATOM     21  C   UNL     1      -1.361   5.191   5.229  0.00  0.00    +0.010 C 
ATOM     22  C   UNL     1      -2.128   5.689   6.455  0.00  0.00    +0.009 C 
ATOM     23  C   UNL     1      -1.854   4.761   7.640  0.00  0.00    -0.010 C 
ATOM     24  C   UNL     1      -0.355   4.753   7.945  0.00  0.00    +0.007 C 
ATOM     25  C   UNL     1       0.412   4.255   6.719  0.00  0.00    -0.010 C 
ATOM     26  C   UNL     1       0.138   5.183   5.534  0.00  0.00    +0.009 C 
ATOM     27  C   UNL     1      -0.045   2.836   6.372  0.00  0.00    +0.009 C 
ATOM     28  C   UNL     1      -1.544   2.844   6.067  0.00  0.00    +0.010 C 
ATOM     29  C   UNL     1      -2.312   3.342   7.293  0.00  0.00    +0.009 C 
ENDBRANCH  18  20
ENDBRANCH  13  16
TORSDOF 2
