REMARK  Name = ZINC04571313
REMARK  6 active torsions:
REMARK  status: ('A' for Active; 'I' for Inactive)
REMARK    1  A    between atoms: C_6  and  N_12
REMARK    2  A    between atoms: C_7  and  N_11
REMARK    3  A    between atoms: N_12  and  C_13
REMARK    4  A    between atoms: C_15  and  C_24
REMARK    5  A    between atoms: C_16  and  C_22
REMARK    6  A    between atoms: C_18  and  N_19
REMARK                            x       y       z     vdW  Elec       q    Type
REMARK                         _______ _______ _______ _____ _____    ______ ____
ROOT
ATOM      1  N   UNL     1      -3.536  -0.737   0.014  0.00  0.00    -0.311 N 
ATOM      2  H   UNL     1      -4.364  -0.243   0.121  0.00  0.00    +0.152 HD
ENDROOT
BRANCH   1   8
ATOM      3  C   UNL     1       2.477   1.311  -0.251  0.00  0.00    +0.001 A 
ATOM      4  C   UNL     1       2.467  -0.083  -0.264  0.00  0.00    +0.001 A 
ATOM      5  C   UNL     1       1.296  -0.775  -0.215  0.00  0.00    +0.008 A 
ATOM      6  C   UNL     1       0.077  -0.078  -0.151  0.00  0.00    -0.016 A 
ATOM      7  C   UNL     1      -1.150  -0.762  -0.099  0.00  0.00    +0.033 A 
ATOM      8  C   UNL     1      -2.317  -0.055  -0.038  0.00  0.00    +0.053 A 
ATOM      9  C   UNL     1      -2.306   1.351  -0.026  0.00  0.00    +0.047 A 
ATOM     10  C   UNL     1      -1.129   2.041  -0.070  0.00  0.00    +0.033 A 
ATOM     11  C   UNL     1       0.088   1.340  -0.139  0.00  0.00    -0.016 A 
ATOM     12  C   UNL     1       1.316   2.020  -0.191  0.00  0.00    +0.008 A 
BRANCH   9  13
ATOM     13  N   UNL     1      -3.514   2.051   0.038  0.00  0.00    -0.357 N 
ATOM     14  H   UNL     1      -4.354   1.566   0.073  0.00  0.00    +0.142 HD
ATOM     15  H   UNL     1      -3.513   3.021   0.047  0.00  0.00    +0.142 HD
ENDBRANCH   9  13
ENDBRANCH   1   8
BRANCH   1  16
ATOM     16  C   UNL     1      -3.561  -2.126  -0.088  0.00  0.00    +0.063 A 
ATOM     17  C   UNL     1      -3.933  -2.724  -1.286  0.00  0.00    +0.045 A 
ATOM     18  C   UNL     1      -3.954  -4.111  -1.391  0.00  0.00    +0.071 A 
ATOM     19  C   UNL     1      -3.609  -4.900  -0.274  0.00  0.00    +0.071 A 
ATOM     20  C   UNL     1      -3.244  -4.283   0.923  0.00  0.00    +0.054 A 
ATOM     21  C   UNL     1      -3.221  -2.908   1.012  0.00  0.00    +0.148 A 
BRANCH  21  22
ATOM     22  N   UNL     1      -2.832  -2.259   2.285  0.00  0.00    +0.058 N 
ATOM     23  O   UNL     1      -2.419  -2.933   3.211  0.00  0.00    -0.126 OA
ATOM     24  O   UNL     1      -2.926  -1.051   2.406  0.00  0.00    -0.126 OA
ENDBRANCH  21  22
BRANCH  19  25
ATOM     25  C   UNL     1      -3.632  -6.329  -0.367  0.00  0.00    +0.101 C 
ATOM     26  N   UNL     1      -3.651  -7.463  -0.442  0.00  0.00    -0.191 NA
ENDBRANCH  19  25
BRANCH  18  27
ATOM     27  C   UNL     1      -4.330  -4.734  -2.624  0.00  0.00    +0.101 C 
ATOM     28  N   UNL     1      -4.628  -5.229  -3.602  0.00  0.00    -0.191 NA
ENDBRANCH  18  27
ENDBRANCH   1  16
TORSDOF 6
