REMARK  Name = ZINC40914121
REMARK  7 active torsions:
REMARK  status: ('A' for Active; 'I' for Inactive)
REMARK    1  A    between atoms: C_1  and  C_2
REMARK    2  A    between atoms: C_5  and  C_8
REMARK    3  A    between atoms: C_8  and  O_9
REMARK    4  A    between atoms: O_9  and  C_10
REMARK    5  A    between atoms: C_11  and  O_32
REMARK    6  A    between atoms: C_13  and  C_17
REMARK    7  A    between atoms: O_32  and  C_33
REMARK                            x       y       z     vdW  Elec       q    Type
REMARK                         _______ _______ _______ _____ _____    ______ ____
ROOT
ATOM      1  C   UNL     1       1.608  -6.080  -0.040  0.00  0.00    +0.176 A 
ATOM      2  C   UNL     1       1.710  -6.778   1.160  0.00  0.00    +0.163 A 
ATOM      3  C   UNL     1       1.909  -8.149   1.146  0.00  0.00    +0.055 A 
ATOM      4  C   UNL     1       2.007  -8.821  -0.058  0.00  0.00    -0.014 A 
ATOM      5  C   UNL     1       1.907  -8.129  -1.250  0.00  0.00    +0.025 A 
ATOM      6  C   UNL     1       1.702  -6.761  -1.244  0.00  0.00    +0.063 A 
ATOM      7 BR   UNL     1       1.557  -5.819  -2.877  0.00  0.00    -0.046 Br
ENDROOT
BRANCH   4   8
ATOM      8  C   UNL     1       2.224 -10.313  -0.070  0.00  0.00    +0.176 C 
ATOM      9  C   UNL     1       1.069 -10.982  -0.783  0.00  0.00    +0.041 C 
ATOM     10  C   UNL     1       1.194 -11.495  -2.026  0.00  0.00    +0.020 C 
ATOM     11  C   UNL     1       0.018 -12.142  -2.719  0.00  0.00    +0.052 C 
ATOM     12  C   UNL     1      -0.897 -12.793  -1.681  0.00  0.00    +0.014 C 
ATOM     13  C   UNL     1      -1.362 -11.711  -0.700  0.00  0.00    +0.080 C 
ATOM     14  C   UNL     1      -0.155 -11.052  -0.093  0.00  0.00    +0.163 C 
ATOM     15  O   UNL     1      -0.238 -10.569   1.019  0.00  0.00    -0.292 OA
ATOM     16  N   UNL     1       2.385 -11.458  -2.709  0.00  0.00    -0.287 N 
ATOM     17  C   UNL     1       3.534 -11.149  -1.999  0.00  0.00    +0.218 A 
ATOM     18  N   UNL     1       3.473 -10.614  -0.757  0.00  0.00    -0.221 N 
ATOM     19  N   UNL     1       4.792 -10.438  -0.340  0.00  0.00    -0.156 NA
ATOM     20  C   UNL     1       5.556 -10.856  -1.319  0.00  0.00    +0.247 A 
ATOM     21  N   UNL     1       4.791 -11.284  -2.320  0.00  0.00    -0.201 NA
ATOM     22  H   UNL     1       2.421 -11.644  -3.661  0.00  0.00    +0.155 HD
ENDBRANCH   4   8
BRANCH   2  23
ATOM     23  O   UNL     1       1.614  -6.115   2.344  0.00  0.00    -0.491 OA
ATOM     24  C   UNL     1       1.727  -6.895   3.535  0.00  0.00    +0.277 C 
ENDBRANCH   2  23
BRANCH   1  25
ATOM     25  O   UNL     1       1.413  -4.734  -0.032  0.00  0.00    -0.483 OA
BRANCH  25  26
ATOM     26  C   UNL     1       0.059  -4.275  -0.021  0.00  0.00    +0.264 C 
BRANCH  26  31
ATOM     27  C   UNL     1      -0.018   1.503   0.010  0.00  0.00    +0.044 C 
ATOM     28  C   UNL     1       0.002  -0.004   0.002  0.00  0.00    -0.050 A 
ATOM     29  C   UNL     1       0.006  -0.689  -1.199  0.00  0.00    +0.004 A 
ATOM     30  C   UNL     1       0.025  -2.071  -1.206  0.00  0.00    +0.007 A 
ATOM     31  C   UNL     1       0.040  -2.768  -0.013  0.00  0.00    -0.010 A 
ATOM     32  C   UNL     1       0.037  -2.084   1.188  0.00  0.00    +0.007 A 
ATOM     33  C   UNL     1       0.023  -0.702   1.195  0.00  0.00    +0.004 A 
ENDBRANCH  26  31
ENDBRANCH  25  26
ENDBRANCH   1  25
TORSDOF 5
