REMARK  Name = ZINC66903473
REMARK  11 active torsions:
REMARK  status: ('A' for Active; 'I' for Inactive)
REMARK    1  A    between atoms: C_1  and  C_2
REMARK    2  A    between atoms: C_2  and  N_3
REMARK    3  A    between atoms: N_3  and  C_4
REMARK    4  A    between atoms: N_3  and  S_16
REMARK    5  A    between atoms: C_4  and  C_6
REMARK    6  A    between atoms: C_4  and  C_7
REMARK    7  A    between atoms: C_7  and  C_8
REMARK    8  A    between atoms: C_11  and  O_14
REMARK    9  A    between atoms: O_14  and  C_15
REMARK   10  A    between atoms: S_16  and  C_19
REMARK   11  A    between atoms: C_22  and  N_25
REMARK                            x       y       z     vdW  Elec       q    Type
REMARK                         _______ _______ _______ _____ _____    ______ ____
ROOT
ATOM      1  N   UNL     1       0.599  -0.404  -1.528  0.00  0.00    -0.174 NA
ENDROOT
BRANCH   1   2
ATOM      2  S   UNL     1      -0.165  -0.779  -2.948  0.00  0.00    +0.061 S 
ATOM      3  O   UNL     1       0.587  -1.823  -3.551  0.00  0.00    -0.153 OA
ATOM      4  O   UNL     1      -1.546  -0.914  -2.642  0.00  0.00    -0.153 OA
BRANCH   2   5
ATOM      5  C   UNL     1      -0.018   0.623  -4.005  0.00  0.00    +0.106 A 
ATOM      6  C   UNL     1      -0.983   1.613  -3.978  0.00  0.00    +0.031 A 
ATOM      7  C   UNL     1      -0.867   2.713  -4.807  0.00  0.00    +0.034 A 
ATOM      8  C   UNL     1       0.213   2.824  -5.662  0.00  0.00    +0.126 A 
ATOM      9  C   UNL     1       1.179   1.834  -5.688  0.00  0.00    +0.034 A 
ATOM     10  C   UNL     1       1.065   0.736  -4.856  0.00  0.00    +0.031 A 
BRANCH   8  11
ATOM     11  N   UNL     1       0.337   4.001  -6.551  0.00  0.00    +0.056 N 
ATOM     12  O   UNL     1      -0.508   4.866  -6.529  0.00  0.00    -0.126 OA
ATOM     13  O   UNL     1       1.282   4.098  -7.299  0.00  0.00    -0.126 OA
ENDBRANCH   8  11
ENDBRANCH   2   5
ENDBRANCH   1   2
BRANCH   1  15
ATOM     14  C   UNL     1       0.003   1.744  -0.524  0.00  0.00    +0.022 C 
ATOM     15  C   UNL     1      -0.149   0.224  -0.437  0.00  0.00    +0.106 C 
ENDBRANCH   1  15
BRANCH   1  16
ATOM     16  C   UNL     1       2.024  -0.702  -1.363  0.00  0.00    +0.081 C 
ATOM     17  C   UNL     1       2.769   0.574  -0.964  0.00  0.00    +0.026 C 
BRANCH  16  18
ATOM     18  C   UNL     1       2.202  -1.758  -0.270  0.00  0.00    +0.055 C 
BRANCH  18  19
ATOM     19  C   UNL     1       1.573  -3.053  -0.717  0.00  0.00    -0.046 A 
ATOM     20  C   UNL     1       0.244  -3.309  -0.434  0.00  0.00    +0.007 A 
ATOM     21  C   UNL     1      -0.334  -4.495  -0.842  0.00  0.00    +0.046 A 
ATOM     22  C   UNL     1       0.420  -5.430  -1.536  0.00  0.00    +0.120 A 
ATOM     23  C   UNL     1       1.753  -5.171  -1.819  0.00  0.00    +0.046 A 
ATOM     24  C   UNL     1       2.325  -3.981  -1.413  0.00  0.00    +0.007 A 
BRANCH  22  25
ATOM     25  O   UNL     1      -0.146  -6.598  -1.938  0.00  0.00    -0.495 OA
ATOM     26  C   UNL     1       0.690  -7.514  -2.648  0.00  0.00    +0.277 C 
ENDBRANCH  22  25
ENDBRANCH  18  19
ENDBRANCH  16  18
ENDBRANCH   1  16
TORSDOF 8
