REMARK  Name = ZINC13063839
REMARK  9 active torsions:
REMARK  status: ('A' for Active; 'I' for Inactive)
REMARK    1  A    between atoms: C_1  and  C_2
REMARK    2  A    between atoms: C_2  and  C_3
REMARK    3  A    between atoms: C_3  and  C_5
REMARK    4  A    between atoms: C_3  and  N_69
REMARK    5  A    between atoms: N_9  and  C_10
REMARK    6  A    between atoms: C_16  and  C_17
REMARK    7  A    between atoms: C_16  and  N_69
REMARK    8  A    between atoms: C_22  and  C_29
REMARK    9  A    between atoms: C_30  and  N_69
REMARK                            x       y       z     vdW  Elec       q    Type
REMARK                         _______ _______ _______ _____ _____    ______ ____
ROOT
ATOM      1  N   UNL     1      -2.845   0.759  -0.978  0.00  0.00    +0.391 N 
ATOM      2  H   UNL     1      -2.722   1.635  -1.499  0.00  0.00    -0.080 HD
ENDROOT
BRANCH   1   3
ATOM      3  C   UNL     1      -1.700  -0.132  -1.258  0.00  0.00    -0.067 C 
ATOM      4  C   UNL     1      -1.921  -1.530  -0.643  0.00  0.00    -0.015 C 
ATOM      5  C   UNL     1      -0.513  -1.957  -0.157  0.00  0.00    -0.002 C 
ATOM      6  C   UNL     1       0.080  -0.631   0.381  0.00  0.00    -0.002 C 
ATOM      7  C   UNL     1      -0.428   0.439  -0.608  0.00  0.00    -0.015 C 
ENDBRANCH   1   3
BRANCH   1   8
ATOM      8  C   UNL     1      -4.104   0.116  -1.411  0.00  0.00    +0.003 C 
BRANCH   8   9
ATOM      9  C   UNL     1      -3.853  -0.678  -2.666  0.00  0.00    +0.138 A 
ATOM     10  N   UNL     1      -3.129  -0.308  -3.695  0.00  0.00    -0.115 NA
ATOM     11  N   UNL     1      -3.156  -1.260  -4.563  0.00  0.00    -0.023 NA
ATOM     12  N   UNL     1      -3.885  -2.223  -4.119  0.00  0.00    -0.044 NA
ATOM     13  N   UNL     1      -4.332  -1.903  -2.952  0.00  0.00    -0.228 N 
BRANCH  13  14
ATOM     14  C   UNL     1      -5.200  -2.718  -2.098  0.00  0.00    +0.111 C 
ATOM     15  C   UNL     1      -4.499  -4.039  -1.774  0.00  0.00    +0.027 C 
ATOM     16  C   UNL     1      -5.405  -4.891  -0.882  0.00  0.00    +0.002 C 
ATOM     17  C   UNL     1      -6.718  -5.177  -1.614  0.00  0.00    +0.000 C 
ATOM     18  C   UNL     1      -7.418  -3.856  -1.938  0.00  0.00    +0.002 C 
ATOM     19  C   UNL     1      -6.513  -3.004  -2.830  0.00  0.00    +0.027 C 
ENDBRANCH  13  14
ENDBRANCH   8   9
BRANCH   8  21
ATOM     20  C   UNL     1      -5.104   2.248  -0.574  0.00  0.00    +0.002 C 
ATOM     21  C   UNL     1      -5.137   1.208  -1.696  0.00  0.00    -0.011 C 
ENDBRANCH   8  21
ENDBRANCH   1   8
BRANCH   1  22
ATOM     22  C   UNL     1      -2.905   1.065   0.467  0.00  0.00    -0.036 C 
BRANCH  22  23
ATOM     23  C   UNL     1      -3.287  -0.164   1.252  0.00  0.00    +0.001 A 
ATOM     24  C   UNL     1      -2.350  -0.813   1.988  0.00  0.00    +0.017 A 
ATOM     25  C   UNL     1      -2.752  -2.007   2.733  0.00  0.00    -0.001 A 
ATOM     26  C   UNL     1      -1.829  -2.723   3.504  0.00  0.00    +0.010 A 
ATOM     27  C   UNL     1      -2.235  -3.833   4.188  0.00  0.00    +0.004 A 
ATOM     28  C   UNL     1      -3.555  -4.259   4.124  0.00  0.00    -0.048 A 
ATOM     29  C   UNL     1      -4.481  -3.570   3.371  0.00  0.00    +0.029 A 
ATOM     30  C   UNL     1      -4.091  -2.436   2.666  0.00  0.00    +0.049 A 
ATOM     31  N   UNL     1      -4.995  -1.728   1.904  0.00  0.00    -0.322 N 
ATOM     32  H   UNL     1      -5.918  -2.024   1.859  0.00  0.00    +0.169 HD
ATOM     33  C   UNL     1      -4.618  -0.632   1.223  0.00  0.00    +0.251 A 
ATOM     34  O   UNL     1      -5.444  -0.031   0.559  0.00  0.00    -0.268 OA
ATOM     35  C   UNL     1      -3.980  -5.487   4.887  0.00  0.00    +0.044 C 
ENDBRANCH  22  23
ENDBRANCH   1  22
TORSDOF 7
