REMARK  Name = ZINC63941245
REMARK  11 active torsions:
REMARK  status: ('A' for Active; 'I' for Inactive)
REMARK    1  A    between atoms: C_1  and  C_2
REMARK    2  A    between atoms: C_2  and  C_3
REMARK    3  A    between atoms: C_3  and  C_4
REMARK    4  A    between atoms: C_4  and  C_5
REMARK    5  A    between atoms: C_5  and  C_6
REMARK    6  A    between atoms: C_10  and  N_13
REMARK    7  A    between atoms: C_14  and  C_16
REMARK    8  A    between atoms: N_21  and  C_23
REMARK    9  A    between atoms: C_23  and  C_24
REMARK   10  A    between atoms: C_24  and  C_25
REMARK   11  A    between atoms: C_28  and  C_34
REMARK                            x       y       z     vdW  Elec       q    Type
REMARK                         _______ _______ _______ _____ _____    ______ ____
ROOT
ATOM      1  C   UNL     1      -5.789  -6.657  -4.718  0.00  0.00    +0.101 C 
ATOM      2  C   UNL     1      -6.824  -5.533  -4.480  0.00  0.00    +0.110 C 
ATOM      3  C   UNL     1      -8.051  -5.993  -5.236  0.00  0.00    +0.216 C 
ATOM      4  O   UNL     1      -8.987  -5.283  -5.538  0.00  0.00    -0.276 OA
ATOM      5  N   UNL     1      -7.954  -7.302  -5.523  0.00  0.00    -0.300 N 
ATOM      6  C   UNL     1      -6.701  -7.869  -5.009  0.00  0.00    +0.121 C 
ENDROOT
BRANCH   1   8
ATOM      7  N   UNL     1      -4.138  -5.923  -3.028  0.00  0.00    -0.290 N 
ATOM      8  C   UNL     1      -4.955  -6.892  -3.485  0.00  0.00    +0.220 C 
ATOM      9  O   UNL     1      -5.020  -7.954  -2.903  0.00  0.00    -0.275 OA
ATOM     10  H   UNL     1      -4.087  -5.073  -3.494  0.00  0.00    +0.151 HD
BRANCH   7  14
ATOM     11  C   UNL     1      -2.827  -4.123   0.007  0.00  0.00    +0.130 C 
ATOM     12  N   UNL     1      -4.210  -4.688  -0.086  0.00  0.00    -0.241 NA
ATOM     13  N   UNL     1      -4.158  -6.053  -0.596  0.00  0.00    -0.227 NA
ATOM     14  C   UNL     1      -3.328  -6.151  -1.830  0.00  0.00    +0.216 C 
ATOM     15  S   UNL     1      -2.125  -4.779  -1.569  0.00  0.00    -0.102 S 
ATOM     16  H   UNL     1      -4.799  -4.108  -0.665  0.00  0.00    +0.142 HD
ATOM     17  H   UNL     1      -5.086  -6.416  -0.755  0.00  0.00    +0.143 HD
BRANCH  11  18
ATOM     18  C   UNL     1      -2.848  -2.593   0.015  0.00  0.00    +0.031 C 
BRANCH  18  19
ATOM     19  C   UNL     1      -1.413  -2.063   0.004  0.00  0.00    +0.002 C 
BRANCH  19  20
ATOM     20  C   UNL     1      -1.433  -0.534   0.013  0.00  0.00    -0.000 C 
BRANCH  20  22
ATOM     21  C   UNL     1      -0.019   1.526   0.010  0.00  0.00    +0.004 C 
ATOM     22  C   UNL     1       0.002  -0.004   0.002  0.00  0.00    -0.003 C 
ENDBRANCH  20  22
ENDBRANCH  19  20
ENDBRANCH  18  19
ENDBRANCH  11  18
ENDBRANCH   7  14
ENDBRANCH   1   8
BRANCH   5  23
ATOM     23  C   UNL     1      -8.967  -8.065  -6.256  0.00  0.00    +0.112 C 
BRANCH  23  24
ATOM     24  C   UNL     1      -8.662  -8.010  -7.754  0.00  0.00    +0.052 C 
BRANCH  24  25
ATOM     25  C   UNL     1      -9.705  -8.795  -8.508  0.00  0.00    -0.040 C 
ATOM     26  C   UNL     1     -10.825  -8.310  -9.090  0.00  0.00    -0.001 A 
ATOM     27  C   UNL     1     -11.387  -6.958  -9.191  0.00  0.00    +0.013 A 
ATOM     28  C   UNL     1     -12.553  -6.780  -9.853  0.00  0.00    -0.050 A 
ATOM     29  C   UNL     1     -13.237  -7.852 -10.443  0.00  0.00    +0.005 A 
ATOM     30  C   UNL     1     -12.783  -9.123 -10.392  0.00  0.00    +0.026 A 
ATOM     31  C   UNL     1     -11.566  -9.425  -9.722  0.00  0.00    +0.043 A 
ATOM     32  N   UNL     1     -10.928 -10.556  -9.538  0.00  0.00    -0.380 N 
ATOM     33  C   UNL     1      -9.707 -10.284  -8.772  0.00  0.00    +0.144 C 
ATOM     34  C   UNL     1     -13.133  -5.393  -9.959  0.00  0.00    +0.044 C 
ATOM     35  H   UNL     1     -11.215 -11.425  -9.857  0.00  0.00    +0.160 HD
ENDBRANCH  24  25
ENDBRANCH  23  24
ENDBRANCH   5  23
TORSDOF 9
