REMARK  Name = ZINC06780436
REMARK  6 active torsions:
REMARK  status: ('A' for Active; 'I' for Inactive)
REMARK    1  A    between atoms: C_1  and  C_2
REMARK    2  A    between atoms: C_4  and  C_28
REMARK    3  A    between atoms: C_8  and  N_23
REMARK    4  A    between atoms: C_9  and  C_11
REMARK    5  A    between atoms: C_15  and  C_22
REMARK    6  A    between atoms: C_18  and  C_21
REMARK                            x       y       z     vdW  Elec       q    Type
REMARK                         _______ _______ _______ _____ _____    ______ ____
ROOT
ATOM      1  C   UNL     1      -6.012   5.132  -4.582  0.00  0.00    +0.044 C 
ATOM      2  C   UNL     1      -5.753   3.685  -4.251  0.00  0.00    -0.037 A 
ATOM      3  C   UNL     1      -5.811   2.724  -5.232  0.00  0.00    +0.027 A 
ATOM      4  C   UNL     1      -5.572   1.392  -4.925  0.00  0.00    +0.040 A 
ATOM      5  N   UNL     1      -5.287   1.032  -3.689  0.00  0.00    -0.245 NA
ATOM      6  C   UNL     1      -5.220   1.914  -2.716  0.00  0.00    +0.111 A 
ATOM      7  C   UNL     1      -5.446   3.294  -2.924  0.00  0.00    +0.035 A 
ATOM      8  C   UNL     1      -5.330   4.125  -1.736  0.00  0.00    +0.075 A 
ATOM      9  C   UNL     1      -5.019   3.519  -0.542  0.00  0.00    +0.100 A 
ATOM     10  S   UNL     1      -4.863   1.798  -0.980  0.00  0.00    -0.062 S 
ATOM     11  C   UNL     1      -5.639   0.350  -6.012  0.00  0.00    +0.065 C 
ENDROOT
BRANCH   9  12
ATOM     12  C   UNL     1      -4.850   4.139   0.773  0.00  0.00    +0.255 C 
ATOM     13  O   UNL     1      -4.935   5.347   0.892  0.00  0.00    -0.269 OA
ATOM     14  N   UNL     1      -4.600   3.372   1.853  0.00  0.00    -0.297 N 
ATOM     15  C   UNL     1      -4.695   1.908   1.770  0.00  0.00    +0.111 C 
ATOM     16  C   UNL     1      -5.635   1.411   2.873  0.00  0.00    +0.004 C 
ATOM     17  C   UNL     1      -5.147   1.933   4.226  0.00  0.00    +0.009 C 
ATOM     18  C   UNL     1      -5.172   3.463   4.223  0.00  0.00    +0.004 C 
ATOM     19  C   UNL     1      -4.227   3.983   3.136  0.00  0.00    +0.111 C 
ATOM     20  C   UNL     1      -6.594   3.951   3.940  0.00  0.00    +0.009 C 
ATOM     21  C   UNL     1      -5.641  -0.119   2.887  0.00  0.00    +0.009 C 
ENDBRANCH   9  12
BRANCH   8  22
ATOM     22  N   UNL     1      -5.530   5.504  -1.807  0.00  0.00    -0.321 N 
ATOM     23  C   UNL     1      -6.550   6.193  -1.213  0.00  0.00    +0.091 A 
ATOM     24  C   UNL     1      -6.402   7.500  -1.506  0.00  0.00    +0.019 A 
ATOM     25  C   UNL     1      -5.256   7.625  -2.318  0.00  0.00    +0.019 A 
ATOM     26  C   UNL     1      -4.742   6.390  -2.486  0.00  0.00    +0.091 A 
ENDBRANCH   8  22
TORSDOF 2
