REMARK  Name = ZINC31808815
REMARK  6 active torsions:
REMARK  status: ('A' for Active; 'I' for Inactive)
REMARK    1  A    between atoms: C_1  and  N_2
REMARK    2  A    between atoms: C_7  and  N_24
REMARK    3  A    between atoms: C_11  and  N_23
REMARK    4  A    between atoms: C_12  and  C_14
REMARK    5  A    between atoms: N_16  and  C_17
REMARK    6  A    between atoms: C_17  and  C_18
REMARK                            x       y       z     vdW  Elec       q    Type
REMARK                         _______ _______ _______ _____ _____    ______ ____
ROOT
ATOM      1  C   UNL     1      -0.800   1.616 -11.526  0.00  0.00    +0.105 C 
ATOM      2  N   UNL     1      -0.859   1.863 -10.079  0.00  0.00    -0.301 NA
ATOM      3  C   UNL     1      -0.474   0.660  -9.323  0.00  0.00    +0.089 C 
ATOM      4  C   UNL     1      -0.215   1.065  -7.870  0.00  0.00    +0.051 C 
ATOM      5  C   UNL     1      -1.366   1.886  -7.354  0.00  0.00    -0.027 A 
ATOM      6  C   UNL     1      -2.272   2.466  -8.180  0.00  0.00    +0.009 A 
ATOM      7  C   UNL     1      -3.317   3.232  -7.644  0.00  0.00    +0.104 A 
ATOM      8  N   UNL     1      -3.433   3.393  -6.336  0.00  0.00    -0.337 N 
ATOM      9  C   UNL     1      -2.576   2.842  -5.503  0.00  0.00    +0.089 A 
ATOM     10  C   UNL     1      -1.491   2.055  -5.948  0.00  0.00    +0.031 A 
ATOM     11  C   UNL     1      -0.643   1.521  -4.894  0.00  0.00    +0.054 A 
ATOM     12  C   UNL     1      -0.958   1.820  -3.586  0.00  0.00    +0.097 A 
ATOM     13  S   UNL     1      -2.419   2.829  -3.735  0.00  0.00    -0.064 S 
ATOM     14  C   UNL     1      -2.196   2.310  -9.677  0.00  0.00    +0.123 C 
ATOM     15  H   UNL     1      -4.256   3.997  -5.927  0.00  0.00    +0.168 HD
ENDROOT
BRANCH   7  16
ATOM     16  N   UNL     1      -4.239   3.827  -8.493  0.00  0.00    -0.312 N 
ATOM     17  C   UNL     1      -4.117   5.292  -8.460  0.00  0.00    +0.134 C 
ATOM     18  C   UNL     1      -5.109   5.903  -9.453  0.00  0.00    +0.178 C 
ATOM     19  O   UNL     1      -6.431   5.462  -9.132  0.00  0.00    -0.377 OA
ATOM     20  C   UNL     1      -6.585   4.040  -9.156  0.00  0.00    +0.178 C 
ATOM     21  C   UNL     1      -5.608   3.410  -8.159  0.00  0.00    +0.134 C 
ENDBRANCH   7  16
BRANCH  12  22
ATOM     22  C   UNL     1      -0.286   1.417  -2.407  0.00  0.00    +0.253 C 
ATOM     23  O   UNL     1       0.707   0.715  -2.482  0.00  0.00    -0.270 OA
ATOM     24  N   UNL     1      -0.744   1.811  -1.202  0.00  0.00    -0.304 N 
ATOM     25  H   UNL     1      -1.640   2.445  -1.135  0.00  0.00    +0.149 HD
BRANCH  24  26
ATOM     26  C   UNL     1      -0.048   1.394   0.018  0.00  0.00    +0.179 C 
BRANCH  26  27
ATOM     27  C   UNL     1      -0.756   1.964   1.220  0.00  0.00    +0.122 A 
ATOM     28  C   UNL     1      -1.753   1.370   1.900  0.00  0.00    +0.046 A 
ATOM     29  C   UNL     1      -2.118   2.250   2.944  0.00  0.00    +0.041 A 
ATOM     30  C   UNL     1      -1.322   3.330   2.839  0.00  0.00    +0.195 A 
ATOM     31  O   UNL     1      -0.496   3.148   1.796  0.00  0.00    -0.466 OA
ENDBRANCH  26  27
ENDBRANCH  24  26
ENDBRANCH  12  22
BRANCH  11  32
ATOM     32  N   UNL     1       0.456   0.729  -5.199  0.00  0.00    -0.356 N 
ATOM     33  H   UNL     1       1.088   0.333  -4.391  0.00  0.00    +0.142 HD
ATOM     34  H   UNL     1       0.694   0.499  -6.247  0.00  0.00    +0.142 HD
ENDBRANCH  11  32
TORSDOF 5
