REMARK  Name = ZINC06753206
REMARK  10 active torsions:
REMARK  status: ('A' for Active; 'I' for Inactive)
REMARK    1  A    between atoms: C_1  and  C_2
REMARK    2  A    between atoms: C_2  and  O_3
REMARK    3  A    between atoms: O_3  and  C_4
REMARK    4  A    between atoms: C_8  and  C_10
REMARK    5  A    between atoms: C_13  and  C_24
REMARK    6  A    between atoms: N_20  and  C_21
REMARK    7  A    between atoms: C_21  and  C_22
REMARK    8  A    between atoms: C_22  and  O_23
REMARK    9  A    between atoms: C_26  and  C_31
REMARK   10  A    between atoms: C_29  and  O_30
REMARK                            x       y       z     vdW  Elec       q    Type
REMARK                         _______ _______ _______ _____ _____    ______ ____
ROOT
ATOM      1  C   UNL     1       2.230  -4.334  -3.678  0.00  0.00    +0.141 C 
ATOM      2  C   UNL     1       3.693  -4.609  -3.460  0.00  0.00    +0.035 A 
ATOM      3  C   UNL     1       4.949  -4.101  -3.113  0.00  0.00    +0.102 A 
ATOM      4  N   UNL     1       5.807  -5.101  -3.164  0.00  0.00    -0.173 NA
ATOM      5  N   UNL     1       5.217  -6.189  -3.509  0.00  0.00    -0.272 N 
ATOM      6  H   UNL     1       5.651  -7.051  -3.610  0.00  0.00    +0.189 HD
ATOM      7  C   UNL     1       3.887  -5.953  -3.711  0.00  0.00    +0.126 A 
ATOM      8  C   UNL     1       2.598  -6.549  -4.082  0.00  0.00    +0.266 C 
ATOM      9  O   UNL     1       2.430  -7.720  -4.365  0.00  0.00    -0.268 OA
ATOM     10  N   UNL     1       1.628  -5.615  -4.067  0.00  0.00    -0.283 N 
ENDROOT
BRANCH   3  11
ATOM     11  C   UNL     1       5.260  -2.695  -2.753  0.00  0.00    +0.044 A 
ATOM     12  C   UNL     1       4.744  -1.648  -3.514  0.00  0.00    +0.017 A 
ATOM     13  C   UNL     1       5.036  -0.342  -3.175  0.00  0.00    -0.050 A 
ATOM     14  C   UNL     1       5.840  -0.068  -2.083  0.00  0.00    +0.007 A 
ATOM     15  C   UNL     1       6.357  -1.099  -1.322  0.00  0.00    +0.046 A 
ATOM     16  C   UNL     1       6.067  -2.415  -1.647  0.00  0.00    +0.126 A 
ATOM     17  C   UNL     1       4.477   0.789  -3.999  0.00  0.00    +0.044 C 
BRANCH  16  18
ATOM     18  O   UNL     1       6.570  -3.429  -0.896  0.00  0.00    -0.506 OA
ATOM     19  H   UNL     1       7.456  -3.712  -1.160  0.00  0.00    +0.292 HD
ENDBRANCH  16  18
ENDBRANCH   3  11
BRANCH   1  24
ATOM     20  C   UNL     1       0.634  -2.046  -1.129  0.00  0.00    +0.121 A 
ATOM     21  C   UNL     1       0.447  -2.913  -0.062  0.00  0.00    +0.045 A 
ATOM     22  C   UNL     1       0.836  -4.234  -0.170  0.00  0.00    +0.004 A 
ATOM     23  C   UNL     1       1.413  -4.692  -1.340  0.00  0.00    +0.006 A 
ATOM     24  C   UNL     1       1.601  -3.831  -2.405  0.00  0.00    -0.019 A 
ATOM     25  C   UNL     1       1.208  -2.510  -2.304  0.00  0.00    +0.051 A 
BRANCH  20  26
ATOM     26  O   UNL     1       0.251  -0.746  -1.026  0.00  0.00    -0.492 OA
BRANCH  26  28
ATOM     27  C   UNL     1      -0.697   1.146   0.141  0.00  0.00    +0.048 C 
ATOM     28  C   UNL     1      -0.333  -0.339   0.213  0.00  0.00    +0.225 C 
ENDBRANCH  26  28
ENDBRANCH  20  26
ENDBRANCH   1  24
BRANCH  10  29
ATOM     29  C   UNL     1       0.215  -5.839  -4.384  0.00  0.00    +0.137 C 
BRANCH  29  30
ATOM     30  C   UNL     1      -0.013  -5.619  -5.880  0.00  0.00    +0.175 C 
BRANCH  30  31
ATOM     31  O   UNL     1       0.701  -6.610  -6.622  0.00  0.00    -0.393 OA
ATOM     32  H   UNL     1       0.602  -6.531  -7.581  0.00  0.00    +0.209 HD
ENDBRANCH  30  31
ENDBRANCH  29  30
ENDBRANCH  10  29
TORSDOF 8
