REMARK  Name = ZINC02062020
REMARK  13 active torsions:
REMARK  status: ('A' for Active; 'I' for Inactive)
REMARK    1  A    between atoms: C_1  and  C_2
REMARK    2  A    between atoms: C_3  and  C_30
REMARK    3  A    between atoms: C_5  and  N_10
REMARK    4  A    between atoms: C_6  and  C_7
REMARK    5  A    between atoms: C_11  and  C_13
REMARK    6  A    between atoms: C_13  and  C_14
REMARK    7  A    between atoms: C_14  and  C_15
REMARK    8  A    between atoms: C_15  and  C_16
REMARK    9  A    between atoms: C_16  and  C_17
REMARK   10  A    between atoms: N_19  and  C_20
REMARK   11  A    between atoms: C_21  and  C_27
REMARK   12  A    between atoms: C_22  and  C_26
REMARK   13  A    between atoms: C_23  and  C_25
REMARK                            x       y       z     vdW  Elec       q    Type
REMARK                         _______ _______ _______ _____ _____    ______ ____
ROOT
ATOM      1  C   UNL     1      -0.753   1.593  -1.232  0.00  0.00    +0.010 C 
ENDROOT
BRANCH   1   2
ATOM      2  C   UNL     1      -0.013   1.086   0.008  0.00  0.00    +0.096 C 
BRANCH   2   4
ATOM      3  N   UNL     1      -0.242   1.246   2.466  0.00  0.00    -0.279 N 
ATOM      4  C   UNL     1      -0.718   1.572   1.248  0.00  0.00    +0.218 C 
ATOM      5  O   UNL     1      -1.714   2.256   1.150  0.00  0.00    -0.275 OA
ATOM      6  H   UNL     1       0.555   0.699   2.544  0.00  0.00    +0.155 HD
BRANCH   3  11
ATOM      7  C   UNL     1      -1.151   1.876   7.406  0.00  0.00    +0.045 C 
ATOM      8  C   UNL     1      -1.415   2.057   5.933  0.00  0.00    -0.027 A 
ATOM      9  C   UNL     1      -2.463   2.776   5.492  0.00  0.00    -0.008 A 
ATOM     10  S   UNL     1      -2.310   2.678   3.720  0.00  0.00    -0.078 S 
ATOM     11  C   UNL     1      -0.891   1.693   3.607  0.00  0.00    +0.084 A 
ATOM     12  C   UNL     1      -0.556   1.465   4.936  0.00  0.00    +0.068 A 
ATOM     13  C   UNL     1      -3.509   3.498   6.302  0.00  0.00    +0.052 C 
BRANCH  12  14
ATOM     14  C   UNL     1       0.613   0.661   5.308  0.00  0.00    +0.244 C 
ATOM     15  O   UNL     1       1.696   1.196   5.461  0.00  0.00    -0.270 OA
ATOM     16  N   UNL     1       0.489  -0.670   5.479  0.00  0.00    -0.325 N 
ATOM     17  H   UNL     1      -0.374  -1.096   5.357  0.00  0.00    +0.145 HD
ATOM     18  H   UNL     1       1.262  -1.202   5.725  0.00  0.00    +0.145 HD
ENDBRANCH  12  14
ENDBRANCH   3  11
ENDBRANCH   2   4
ENDBRANCH   1   2
BRANCH   1  19
ATOM     19  C   UNL     1      -0.037   1.099  -2.490  0.00  0.00    +0.010 C 
BRANCH  19  20
ATOM     20  C   UNL     1      -0.777   1.606  -3.730  0.00  0.00    +0.096 C 
BRANCH  20  21
ATOM     21  C   UNL     1      -0.071   1.120  -4.970  0.00  0.00    +0.218 C 
ATOM     22  O   UNL     1       0.925   0.436  -4.872  0.00  0.00    -0.275 OA
ATOM     23  N   UNL     1      -0.548   1.446  -6.188  0.00  0.00    -0.279 N 
ATOM     24  H   UNL     1      -1.345   1.993  -6.266  0.00  0.00    +0.155 HD
BRANCH  23  25
ATOM     25  C   UNL     1       0.101   0.999  -7.328  0.00  0.00    +0.084 A 
ATOM     26  C   UNL     1      -0.234   1.227  -8.658  0.00  0.00    +0.068 A 
ATOM     27  C   UNL     1       0.627   0.636  -9.655  0.00  0.00    -0.027 A 
ATOM     28  C   UNL     1       1.675  -0.083  -9.214  0.00  0.00    -0.008 A 
ATOM     29  S   UNL     1       1.530   0.027  -7.442  0.00  0.00    -0.078 S 
ATOM     30  C   UNL     1       2.722  -0.802 -10.023  0.00  0.00    +0.052 C 
ATOM     31  C   UNL     1       0.362   0.816 -11.127  0.00  0.00    +0.045 C 
BRANCH  26  32
ATOM     32  C   UNL     1      -1.403   2.029  -9.029  0.00  0.00    +0.244 C 
ATOM     33  O   UNL     1      -1.293   3.231  -9.185  0.00  0.00    -0.270 OA
ATOM     34  N   UNL     1      -2.601   1.435  -9.199  0.00  0.00    -0.325 N 
ATOM     35  H   UNL     1      -2.690   0.477  -9.075  0.00  0.00    +0.145 HD
ATOM     36  H   UNL     1      -3.375   1.966  -9.445  0.00  0.00    +0.145 HD
ENDBRANCH  26  32
ENDBRANCH  23  25
ENDBRANCH  20  21
ENDBRANCH  19  20
ENDBRANCH   1  19
TORSDOF 9
