REMARK  Name = ZINC06135232
REMARK  10 active torsions:
REMARK  status: ('A' for Active; 'I' for Inactive)
REMARK    1  A    between atoms: C_1  and  C_2
REMARK    2  A    between atoms: C_2  and  C_3
REMARK    3  A    between atoms: C_10  and  C_15
REMARK    4  A    between atoms: C_15  and  C_17
REMARK    5  A    between atoms: C_15  and  N_76
REMARK    6  A    between atoms: N_21  and  C_22
REMARK    7  A    between atoms: C_22  and  C_23
REMARK    8  A    between atoms: N_31  and  C_34
REMARK    9  A    between atoms: C_38  and  C_41
REMARK   10  A    between atoms: C_39  and  C_40
REMARK                            x       y       z     vdW  Elec       q    Type
REMARK                         _______ _______ _______ _____ _____    ______ ____
ROOT
ATOM      1  C   UNL     1      -1.334   2.140   0.020  0.00  0.00    +0.039 C 
ENDROOT
BRANCH   1   9
ATOM      2  C   UNL     1       3.292  -1.341  -2.164  0.00  0.00    -0.047 A 
ATOM      3  C   UNL     1       4.066  -1.313  -1.012  0.00  0.00    +0.005 A 
ATOM      4  C   UNL     1       3.641  -0.624   0.104  0.00  0.00    +0.026 A 
ATOM      5  C   UNL     1       2.425   0.051   0.077  0.00  0.00    +0.049 A 
ATOM      6  C   UNL     1       1.643   0.020  -1.093  0.00  0.00    -0.001 A 
ATOM      7  C   UNL     1       2.095  -0.685  -2.214  0.00  0.00    +0.013 A 
ATOM      8  C   UNL     1       0.365   0.733  -1.112  0.00  0.00    +0.017 A 
ATOM      9  C   UNL     1      -0.021   1.401   0.004  0.00  0.00    +0.011 A 
ATOM     10  C   UNL     1       0.801   1.401   1.151  0.00  0.00    +0.251 A 
ATOM     11  O   UNL     1       0.435   2.007   2.143  0.00  0.00    -0.268 OA
ATOM     12  N   UNL     1       1.976   0.748   1.178  0.00  0.00    -0.322 N 
ATOM     13  H   UNL     1       2.532   0.769   2.009  0.00  0.00    +0.169 HD
BRANCH   2  15
ATOM     14  C   UNL     1       3.274  -3.544  -3.302  0.00  0.00    +0.009 C 
ATOM     15  C   UNL     1       3.778  -2.101  -3.371  0.00  0.00    +0.032 C 
ENDBRANCH   2  15
ENDBRANCH   1   9
BRANCH   1  21
ATOM     16  C   UNL     1      -2.375   0.146   0.917  0.00  0.00    -0.058 C 
ATOM     17  C   UNL     1      -3.204  -0.396   2.084  0.00  0.00    +0.086 C 
ATOM     18  N   UNL     1      -4.499   0.297   2.124  0.00  0.00    -0.333 N 
ATOM     19  C   UNL     1      -4.314   1.745   2.289  0.00  0.00    +0.086 C 
ATOM     20  C   UNL     1      -3.485   2.287   1.122  0.00  0.00    -0.058 C 
ATOM     21  N   UNL     1      -2.177   1.599   1.107  0.00  0.00    +0.391 N 
ATOM     22  H   UNL     1      -1.706   1.757   2.005  0.00  0.00    -0.080 HD
BRANCH  18  23
ATOM     23  C   UNL     1      -5.313  -0.222   3.134  0.00  0.00    +0.033 A 
ATOM     24  C   UNL     1      -4.928  -0.111   4.465  0.00  0.00    +0.023 A 
ATOM     25  C   UNL     1      -5.737  -0.620   5.461  0.00  0.00    +0.002 A 
ATOM     26  C   UNL     1      -6.925  -1.250   5.135  0.00  0.00    +0.004 A 
ATOM     27  C   UNL     1      -7.308  -1.367   3.811  0.00  0.00    -0.046 A 
ATOM     28  C   UNL     1      -6.506  -0.855   2.810  0.00  0.00    -0.027 A 
ATOM     29  C   UNL     1      -6.925  -0.983   1.368  0.00  0.00    +0.046 C 
ATOM     30  C   UNL     1      -8.603  -2.054   3.461  0.00  0.00    +0.044 C 
ENDBRANCH  18  23
ENDBRANCH   1  21
BRANCH   1  31
ATOM     31  C   UNL     1      -2.019   1.976  -1.312  0.00  0.00    +0.143 A 
ATOM     32  N   UNL     1      -2.629   0.901  -1.751  0.00  0.00    -0.115 NA
ATOM     33  N   UNL     1      -3.087   1.157  -2.928  0.00  0.00    -0.023 NA
ATOM     34  N   UNL     1      -2.779   2.364  -3.254  0.00  0.00    -0.044 NA
ATOM     35  N   UNL     1      -2.120   2.901  -2.284  0.00  0.00    -0.228 N 
BRANCH  35  36
ATOM     36  C   UNL     1      -1.583   4.264  -2.246  0.00  0.00    +0.178 C 
BRANCH  36  37
ATOM     37  C   UNL     1      -0.161   4.268  -2.810  0.00  0.00    +0.140 C 
ATOM     38  C   UNL     1       0.455   5.676  -2.669  0.00  0.00    +0.035 C 
ATOM     39  C   UNL     1       1.238   5.828  -4.001  0.00  0.00    +0.031 C 
ATOM     40  C   UNL     1       0.318   5.048  -4.974  0.00  0.00    +0.160 C 
ATOM     41  O   UNL     1      -0.191   3.946  -4.205  0.00  0.00    -0.375 OA
ENDBRANCH  36  37
ENDBRANCH  35  36
ENDBRANCH   1  31
TORSDOF 7
