REMARK  Name = ZINC48228486
REMARK  9 active torsions:
REMARK  status: ('A' for Active; 'I' for Inactive)
REMARK    1  A    between atoms: C_1  and  C_2
REMARK    2  A    between atoms: C_2  and  C_3
REMARK    3  A    between atoms: C_4  and  C_25
REMARK    4  A    between atoms: C_6  and  C_8
REMARK    5  A    between atoms: N_10  and  N_11
REMARK    6  A    between atoms: N_11  and  C_12
REMARK    7  A    between atoms: C_12  and  N_14
REMARK    8  A    between atoms: N_14  and  C_15
REMARK    9  A    between atoms: C_20  and  C_21
REMARK                            x       y       z     vdW  Elec       q    Type
REMARK                         _______ _______ _______ _____ _____    ______ ____
ROOT
ATOM      1  N   UNL     1      -6.344  -2.772   2.965  0.00  0.00    -0.245 N 
ATOM      2  H   UNL     1      -6.938  -3.290   2.400  0.00  0.00    +0.172 HD
ENDROOT
BRANCH   1   5
ATOM      3  C   UNL     1      -5.229  -1.910   1.046  0.00  0.00    +0.267 C 
ATOM      4  O   UNL     1      -5.974  -2.559   0.338  0.00  0.00    -0.268 OA
ATOM      5  N   UNL     1      -5.354  -1.966   2.387  0.00  0.00    -0.231 N 
ATOM      6  H   UNL     1      -4.760  -1.448   2.952  0.00  0.00    +0.173 HD
BRANCH   3  10
ATOM      7  C   UNL     1      -2.208   0.573  -0.125  0.00  0.00    -0.007 A 
ATOM      8  C   UNL     1      -2.859  -0.009  -1.161  0.00  0.00    -0.040 A 
ATOM      9  C   UNL     1      -3.899  -0.869  -0.899  0.00  0.00    +0.024 A 
ATOM     10  C   UNL     1      -4.193  -1.066   0.442  0.00  0.00    +0.076 A 
ATOM     11  S   UNL     1      -2.980  -0.031   1.239  0.00  0.00    -0.088 S 
ATOM     12  C   UNL     1      -2.450   0.282  -2.582  0.00  0.00    +0.044 C 
BRANCH   7  14
ATOM     13  C   UNL     1      -1.584   2.971  -0.236  0.00  0.00    +0.009 C 
ATOM     14  C   UNL     1      -1.051   1.538  -0.183  0.00  0.00    +0.039 C 
ENDBRANCH   7  14
ENDBRANCH   3  10
ENDBRANCH   1   5
BRANCH   1  15
ATOM     15  C   UNL     1      -6.469  -2.828   4.306  0.00  0.00    +0.151 C 
ATOM     16  S   UNL     1      -7.679  -3.813   5.011  0.00  0.00    -0.017 S 
BRANCH  15  17
ATOM     17  N   UNL     1      -5.643  -2.108   5.090  0.00  0.00    -0.295 N 
ATOM     18  H   UNL     1      -4.909  -1.613   4.696  0.00  0.00    +0.154 HD
BRANCH  17  19
ATOM     19  C   UNL     1      -5.846  -2.076   6.474  0.00  0.00    +0.044 A 
ATOM     20  C   UNL     1      -7.125  -1.904   6.987  0.00  0.00    +0.024 A 
ATOM     21  C   UNL     1      -7.321  -1.873   8.353  0.00  0.00    +0.002 A 
ATOM     22  C   UNL     1      -6.246  -2.012   9.211  0.00  0.00    +0.001 A 
ATOM     23  C   UNL     1      -4.971  -2.183   8.704  0.00  0.00    +0.014 A 
ATOM     24  C   UNL     1      -4.768  -2.221   7.338  0.00  0.00    +0.076 A 
BRANCH  24  25
ATOM     25  C   UNL     1      -3.379  -2.413   6.787  0.00  0.00    +0.419 C 
ATOM     26  F   UNL     1      -2.470  -2.534   7.843  0.00  0.00    -0.166 F 
ATOM     27  F   UNL     1      -3.344  -3.573   6.006  0.00  0.00    -0.166 F 
ATOM     28  F   UNL     1      -3.034  -1.309   5.999  0.00  0.00    -0.166 F 
ENDBRANCH  24  25
ENDBRANCH  17  19
ENDBRANCH  15  17
ENDBRANCH   1  15
TORSDOF 7
