REMARK  Name = ZINC43213912
REMARK  6 active torsions:
REMARK  status: ('A' for Active; 'I' for Inactive)
REMARK    1  A    between atoms: C_4  and  C_7
REMARK    2  A    between atoms: C_7  and  C_8
REMARK    3  A    between atoms: C_8  and  C_10
REMARK    4  A    between atoms: C_8  and  N_28
REMARK    5  A    between atoms: C_12  and  C_15
REMARK    6  A    between atoms: N_17  and  C_18
REMARK                            x       y       z     vdW  Elec       q    Type
REMARK                         _______ _______ _______ _____ _____    ______ ____
ROOT
ATOM      1  C   UNL     1       5.422  -1.804   1.383  0.00  0.00    +0.182 A 
ATOM      2  N   UNL     1       5.481  -3.069   1.676  0.00  0.00    -0.210 NA
ATOM      3  C   UNL     1       6.772  -3.481   1.550  0.00  0.00    +0.163 A 
ATOM      4  C   UNL     1       7.501  -2.398   1.163  0.00  0.00    +0.230 A 
ATOM      5  O   UNL     1       6.647  -1.368   1.060  0.00  0.00    -0.449 OA
ENDROOT
BRANCH   3   6
ATOM      6  C   UNL     1       7.284  -4.842   1.787  0.00  0.00    +0.266 C 
ATOM      7  O   UNL     1       8.467  -5.082   1.638  0.00  0.00    -0.268 OA
ATOM      8  N   UNL     1       6.441  -5.822   2.170  0.00  0.00    -0.304 N 
ATOM      9  H   UNL     1       5.498  -5.631   2.289  0.00  0.00    +0.150 HD
BRANCH   8  10
ATOM     10  C   UNL     1       6.951  -7.176   2.406  0.00  0.00    +0.036 C 
ATOM     11  C   UNL     1       8.002  -7.138   3.517  0.00  0.00    +0.029 C 
ATOM     12  C   UNL     1       8.534  -8.552   3.763  0.00  0.00    -0.008 C 
ATOM     13  C   UNL     1       7.380  -9.464   4.184  0.00  0.00    +0.007 C 
ATOM     14  C   UNL     1       6.329  -9.502   3.073  0.00  0.00    -0.008 C 
ATOM     15  C   UNL     1       5.797  -8.088   2.826  0.00  0.00    +0.029 C 
ATOM     16  C   UNL     1       6.962 -10.039   1.788  0.00  0.00    +0.007 C 
ATOM     17  C   UNL     1       8.116  -9.127   1.368  0.00  0.00    -0.008 C 
ATOM     18  C   UNL     1       9.168  -9.089   2.479  0.00  0.00    +0.007 C 
ATOM     19  C   UNL     1       7.584  -7.713   1.121  0.00  0.00    +0.029 C 
ENDBRANCH   8  10
ENDBRANCH   3   6
BRANCH   1  20
ATOM     20  C   UNL     1       4.171  -0.963   1.399  0.00  0.00    +0.017 C 
BRANCH  20  21
ATOM     21  N   UNL     1       4.452   0.319   2.059  0.00  0.00    +0.386 N 
ATOM     22  H   UNL     1       4.755   0.150   3.006  0.00  0.00    -0.089 HD
ATOM     23  H   UNL     1       5.178   0.805   1.555  0.00  0.00    -0.089 HD
ATOM     24  H   UNL     1       3.615   0.882   2.070  0.00  0.00    -0.089 HD
ENDBRANCH  20  21
BRANCH  20  25
ATOM     25  C   UNL     1       3.711  -0.707  -0.038  0.00  0.00    +0.028 C 
BRANCH  25  29
ATOM     26  C   UNL     1      -0.017   1.378   0.010  0.00  0.00    +0.000 A 
ATOM     27  C   UNL     1       1.171   2.086   0.002  0.00  0.00    +0.000 A 
ATOM     28  C   UNL     1       2.377   1.411  -0.013  0.00  0.00    +0.003 A 
ATOM     29  C   UNL     1       2.396   0.029  -0.020  0.00  0.00    -0.048 A 
ATOM     30  C   UNL     1       1.208  -0.679  -0.012  0.00  0.00    +0.003 A 
ATOM     31  C   UNL     1       0.002  -0.004   0.002  0.00  0.00    +0.000 A 
ENDBRANCH  25  29
ENDBRANCH  20  25
ENDBRANCH   1  20
TORSDOF 6
