REMARK  Name = ZINC14775309
REMARK  15 active torsions:
REMARK  status: ('A' for Active; 'I' for Inactive)
REMARK    1  A    between atoms: C_1  and  C_2
REMARK    2  A    between atoms: C_2  and  C_3
REMARK    3  A    between atoms: C_2  and  C_4
REMARK    4  A    between atoms: C_4  and  C_5
REMARK    5  A    between atoms: C_5  and  O_6
REMARK    6  A    between atoms: O_6  and  C_7
REMARK    7  A    between atoms: C_7  and  C_9
REMARK    8  A    between atoms: C_9  and  C_10
REMARK    9  A    between atoms: N_17  and  C_18
REMARK   10  A    between atoms: C_18  and  N_20
REMARK   11  A    between atoms: C_21  and  C_23
REMARK   12  A    between atoms: C_26  and  O_30
REMARK   13  A    between atoms: O_30  and  C_31
REMARK   14  A    between atoms: C_31  and  C_32
REMARK   15  A    between atoms: C_31  and  C_33
REMARK                            x       y       z     vdW  Elec       q    Type
REMARK                         _______ _______ _______ _____ _____    ______ ____
ROOT
ATOM      1  C   UNL     1      -2.249  -7.887  -0.137  0.00  0.00    +0.171 C 
ATOM      2  C   UNL     1      -3.226  -8.265   0.943  0.00  0.00    +0.234 C 
ATOM      3  O   UNL     1      -3.333  -9.436   1.242  0.00  0.00    -0.274 OA
ATOM      4  N   UNL     1      -3.980  -7.373   1.587  0.00  0.00    -0.312 N 
ATOM      5  C   UNL     1      -3.896  -5.931   1.399  0.00  0.00    +0.123 C 
ATOM      6  C   UNL     1      -3.265  -5.596   0.051  0.00  0.00    +0.126 C 
ATOM      7  N   UNL     1      -2.062  -6.428  -0.120  0.00  0.00    -0.299 N 
ATOM      8  H   UNL     1      -4.630  -7.707   2.224  0.00  0.00    +0.149 HD
ENDROOT
BRANCH   7   9
ATOM      9  C   UNL     1      -0.840  -5.877  -0.251  0.00  0.00    +0.140 C 
ATOM     10  S   UNL     1      -0.677  -4.176  -0.370  0.00  0.00    -0.018 S 
BRANCH   9  11
ATOM     11  N   UNL     1       0.254  -6.663  -0.287  0.00  0.00    -0.264 N 
ATOM     12  C   UNL     1       1.482  -6.108  -0.313  0.00  0.00    +0.250 C 
ATOM     13  O   UNL     1       1.603  -4.898  -0.303  0.00  0.00    -0.270 OA
ATOM     14  H   UNL     1       0.158  -7.628  -0.295  0.00  0.00    +0.157 HD
BRANCH  12  15
ATOM     15  C   UNL     1       2.680  -6.968  -0.353  0.00  0.00    +0.038 A 
ATOM     16  C   UNL     1       3.954  -6.395  -0.380  0.00  0.00    +0.017 A 
ATOM     17  C   UNL     1       5.070  -7.201  -0.417  0.00  0.00    +0.047 A 
ATOM     18  C   UNL     1       4.930  -8.584  -0.428  0.00  0.00    +0.135 A 
ATOM     19  C   UNL     1       3.664  -9.159  -0.407  0.00  0.00    +0.060 A 
ATOM     20  C   UNL     1       2.543  -8.359  -0.364  0.00  0.00    +0.032 A 
ATOM     21 BR   UNL     1       3.481 -11.041  -0.430  0.00  0.00    -0.046 Br
BRANCH  18  22
ATOM     22  O   UNL     1       6.032  -9.376  -0.464  0.00  0.00    -0.488 OA
BRANCH  22  23
ATOM     23  C   UNL     1       7.294  -8.723  -0.619  0.00  0.00    +0.167 C 
ATOM     24  C   UNL     1       7.913  -8.476   0.758  0.00  0.00    +0.051 C 
ATOM     25  C   UNL     1       8.228  -9.609  -1.446  0.00  0.00    +0.051 C 
ENDBRANCH  22  23
ENDBRANCH  18  22
ENDBRANCH  12  15
ENDBRANCH   9  11
ENDBRANCH   7   9
BRANCH   1  26
ATOM     26  C   UNL     1      -2.798  -8.318  -1.498  0.00  0.00    +0.152 C 
BRANCH  26  27
ATOM     27  C   UNL     1      -1.762  -8.060  -2.562  0.00  0.00    +0.309 C 
ATOM     28  O   UNL     1      -0.660  -7.675  -2.251  0.00  0.00    -0.251 OA
BRANCH  27  29
ATOM     29  O   UNL     1      -2.064  -8.259  -3.854  0.00  0.00    -0.465 OA
BRANCH  29  30
ATOM     30  C   UNL     1      -1.017  -7.991  -4.824  0.00  0.00    +0.232 C 
BRANCH  30  31
ATOM     31  C   UNL     1      -1.543  -8.272  -6.233  0.00  0.00    +0.044 C 
BRANCH  31  33
ATOM     32  C   UNL     1       0.712  -8.975  -7.049  0.00  0.00    +0.007 C 
ATOM     33  C   UNL     1      -0.440  -7.989  -7.255  0.00  0.00    -0.014 C 
ATOM     34  C   UNL     1      -1.002  -8.150  -8.669  0.00  0.00    +0.007 C 
ENDBRANCH  31  33
ENDBRANCH  30  31
ENDBRANCH  29  30
ENDBRANCH  27  29
ENDBRANCH  26  27
ENDBRANCH   1  26
TORSDOF 11
