REMARK  Name = ZINC37069299
REMARK  7 active torsions:
REMARK  status: ('A' for Active; 'I' for Inactive)
REMARK    1  A    between atoms: C_1  and  C_2
REMARK    2  A    between atoms: C_5  and  N_12
REMARK    3  A    between atoms: C_8  and  C_10
REMARK    4  A    between atoms: C_8  and  C_11
REMARK    5  A    between atoms: N_12  and  C_13
REMARK    6  A    between atoms: C_15  and  C_20
REMARK    7  A    between atoms: N_22  and  C_23
REMARK                            x       y       z     vdW  Elec       q    Type
REMARK                         _______ _______ _______ _____ _____    ______ ____
ROOT
ATOM      1  C   UNL     1      -3.491  -2.707  -1.185  0.00  0.00    +0.047 A 
ATOM      2  C   UNL     1      -2.886  -2.368  -2.385  0.00  0.00    +0.037 A 
ATOM      3  C   UNL     1      -3.593  -2.506  -3.580  0.00  0.00    +0.039 A 
ATOM      4  C   UNL     1      -4.904  -2.986  -3.560  0.00  0.00    +0.014 A 
ATOM      5  C   UNL     1      -5.498  -3.321  -2.361  0.00  0.00    +0.022 A 
ATOM      6  C   UNL     1      -4.796  -3.188  -1.175  0.00  0.00    +0.062 A 
ATOM      7 CL   UNL     1      -5.548  -3.619   0.329  0.00  0.00    -0.082 Cl
ENDROOT
BRANCH   3   8
ATOM      8  C   UNL     1      -2.955  -2.147  -4.864  0.00  0.00    +0.244 C 
ATOM      9  O   UNL     1      -1.814  -1.729  -4.880  0.00  0.00    -0.270 OA
ATOM     10  N   UNL     1      -3.640  -2.281  -6.018  0.00  0.00    -0.314 N 
ATOM     11  C   UNL     1      -3.008  -1.925  -7.290  0.00  0.00    +0.128 C 
ATOM     12  H   UNL     1      -4.551  -2.614  -6.005  0.00  0.00    +0.149 HD
ENDBRANCH   3   8
BRANCH   1  13
ATOM     13  N   UNL     1      -2.787  -2.571   0.015  0.00  0.00    -0.340 N 
ATOM     14  H   UNL     1      -3.209  -2.812   0.855  0.00  0.00    +0.146 HD
BRANCH  13  18
ATOM     15  C   UNL     1      -0.019   1.526   0.010  0.00  0.00    +0.007 C 
ATOM     16  C   UNL     1       0.002  -0.004   0.002  0.00  0.00    -0.012 C 
ATOM     17  C   UNL     1      -1.433  -0.534   0.013  0.00  0.00    +0.025 C 
ATOM     18  C   UNL     1      -1.413  -2.063   0.004  0.00  0.00    +0.071 C 
ATOM     19  C   UNL     1      -0.673  -2.570   1.244  0.00  0.00    +0.028 C 
ATOM     20  C   UNL     1       0.763  -2.041   1.233  0.00  0.00    -0.033 C 
ATOM     21  C   UNL     1       0.742  -0.511   1.242  0.00  0.00    +0.009 C 
ATOM     22  C   UNL     1       1.479  -2.534  -0.026  0.00  0.00    +0.011 C 
ATOM     23  C   UNL     1       1.503  -2.548   2.473  0.00  0.00    +0.011 C 
ENDBRANCH  13  18
ENDBRANCH   1  13
TORSDOF 3
