REMARK  Name = ZINC09313467
REMARK  6 active torsions:
REMARK  status: ('A' for Active; 'I' for Inactive)
REMARK    1  A    between atoms: C_3  and  C_8
REMARK    2  A    between atoms: C_5  and  O_7
REMARK    3  A    between atoms: N_10  and  N_11
REMARK    4  A    between atoms: C_12  and  C_14
REMARK    5  A    between atoms: C_17  and  S_20
REMARK    6  A    between atoms: S_20  and  C_21
REMARK                            x       y       z     vdW  Elec       q    Type
REMARK                         _______ _______ _______ _____ _____    ______ ____
ROOT
ATOM      1  N   UNL     1      -2.394   1.152   0.020  0.00  0.00    -0.230 N 
ATOM      2  C   UNL     1      -3.571   1.810   0.029  0.00  0.00    +0.260 C 
ATOM      3  O   UNL     1      -3.587   3.026   0.035  0.00  0.00    -0.269 OA
ATOM      4  H   UNL     1      -2.381   0.182   0.014  0.00  0.00    +0.173 HD
ENDROOT
BRANCH   2   5
ATOM      5  C   UNL     1      -4.838   1.056   0.031  0.00  0.00    +0.038 A 
ATOM      6  C   UNL     1      -4.820  -0.343   0.017  0.00  0.00    +0.014 A 
ATOM      7  C   UNL     1      -6.000  -1.042   0.024  0.00  0.00    +0.016 A 
ATOM      8  C   UNL     1      -7.215  -0.360   0.033  0.00  0.00    +0.016 A 
ATOM      9  C   UNL     1      -7.235   1.033   0.042  0.00  0.00    +0.016 A 
ATOM     10  C   UNL     1      -6.059   1.737   0.040  0.00  0.00    +0.014 A 
BRANCH   8  11
ATOM     11  S   UNL     1      -8.728  -1.262   0.034  0.00  0.00    -0.016 S 
BRANCH  11  12
ATOM     12  C   UNL     1      -8.205  -2.998   0.021  0.00  0.00    +0.448 C 
ATOM     13  F   UNL     1      -7.434  -3.261   1.158  0.00  0.00    -0.160 F 
ATOM     14  F   UNL     1      -9.333  -3.826   0.021  0.00  0.00    -0.160 F 
ATOM     15  F   UNL     1      -7.444  -3.248  -1.126  0.00  0.00    -0.160 F 
ENDBRANCH  11  12
ENDBRANCH   8  11
ENDBRANCH   2   5
BRANCH   1  18
ATOM     16  C   UNL     1      -0.014   1.211   0.009  0.00  0.00    +0.260 C 
ATOM     17  O   UNL     1       0.002  -0.004   0.002  0.00  0.00    -0.269 OA
ATOM     18  N   UNL     1      -1.191   1.869   0.018  0.00  0.00    -0.230 N 
ATOM     19  H   UNL     1      -1.204   2.839   0.023  0.00  0.00    +0.173 HD
BRANCH  16  22
ATOM     20  C   UNL     1       2.427   4.067   0.001  0.00  0.00    +0.004 A 
ATOM     21  C   UNL     1       1.240   3.364   0.003  0.00  0.00    +0.013 A 
ATOM     22  C   UNL     1       1.256   1.968   0.001  0.00  0.00    +0.042 A 
ATOM     23  C   UNL     1       2.475   1.289  -0.015  0.00  0.00    +0.058 A 
ATOM     24  C   UNL     1       3.660   2.005  -0.022  0.00  0.00    +0.118 A 
ATOM     25  C   UNL     1       3.634   3.393  -0.014  0.00  0.00    +0.045 A 
BRANCH  24  26
ATOM     26  O   UNL     1       4.850   1.347  -0.037  0.00  0.00    -0.507 OA
ATOM     27  H   UNL     1       5.186   1.163  -0.925  0.00  0.00    +0.292 HD
ENDBRANCH  24  26
ENDBRANCH  16  22
ENDBRANCH   1  18
TORSDOF 6
