REMARK  Name = ZINC60207637
REMARK  11 active torsions:
REMARK  status: ('A' for Active; 'I' for Inactive)
REMARK    1  A    between atoms: C_1  and  C_2
REMARK    2  A    between atoms: C_2  and  C_3
REMARK    3  A    between atoms: C_2  and  N_4
REMARK    4  A    between atoms: C_8  and  C_11
REMARK    5  A    between atoms: C_11  and  N_12
REMARK    6  A    between atoms: C_13  and  C_15
REMARK    7  A    between atoms: C_15  and  C_16
REMARK    8  A    between atoms: C_16  and  C_17
REMARK    9  A    between atoms: C_26  and  C_27
REMARK   10  A    between atoms: C_30  and  O_33
REMARK   11  A    between atoms: O_33  and  C_34
REMARK                            x       y       z     vdW  Elec       q    Type
REMARK                         _______ _______ _______ _____ _____    ______ ____
ROOT
ATOM      1  C   UNL     1     -10.169  -0.341  -4.206  0.00  0.00    -0.014 A 
ATOM      2  C   UNL     1     -11.315   0.450  -3.761  0.00  0.00    +0.003 A 
ATOM      3  C   UNL     1     -11.449   1.686  -3.122  0.00  0.00    +0.010 A 
ATOM      4  C   UNL     1     -12.693   2.168  -2.832  0.00  0.00    +0.001 A 
ATOM      5  C   UNL     1     -13.827   1.440  -3.166  0.00  0.00    +0.002 A 
ATOM      6  C   UNL     1     -13.719   0.220  -3.796  0.00  0.00    +0.026 A 
ATOM      7  C   UNL     1     -12.462  -0.292  -4.102  0.00  0.00    +0.047 A 
ATOM      8  N   UNL     1     -12.037  -1.452  -4.712  0.00  0.00    -0.354 N 
ATOM      9  H   UNL     1     -12.620  -2.150  -5.050  0.00  0.00    +0.166 HD
ATOM     10  C   UNL     1     -10.663  -1.469  -4.774  0.00  0.00    +0.051 A 
ENDROOT
BRANCH  10  11
ATOM     11  C   UNL     1      -9.850  -2.553  -5.365  0.00  0.00    -0.001 A 
ATOM     12  C   UNL     1      -8.818  -2.248  -6.255  0.00  0.00    +0.013 A 
ATOM     13  C   UNL     1      -8.062  -3.261  -6.804  0.00  0.00    +0.046 A 
ATOM     14  C   UNL     1      -8.325  -4.584  -6.474  0.00  0.00    +0.120 A 
ATOM     15  C   UNL     1      -9.351  -4.892  -5.590  0.00  0.00    +0.046 A 
ATOM     16  C   UNL     1     -10.108  -3.884  -5.031  0.00  0.00    +0.013 A 
BRANCH  14  17
ATOM     17  O   UNL     1      -7.578  -5.580  -7.017  0.00  0.00    -0.495 OA
ATOM     18  C   UNL     1      -7.903  -6.918  -6.634  0.00  0.00    +0.277 C 
ENDBRANCH  14  17
ENDBRANCH  10  11
BRANCH   1  19
ATOM     19  C   UNL     1      -8.715   0.030  -4.066  0.00  0.00    +0.047 C 
BRANCH  19  20
ATOM     20  C   UNL     1      -8.156  -0.574  -2.776  0.00  0.00    +0.100 C 
BRANCH  20  22
ATOM     21  N   UNL     1      -5.986  -0.670  -1.593  0.00  0.00    -0.315 N 
ATOM     22  C   UNL     1      -6.691  -0.239  -2.658  0.00  0.00    +0.213 C 
ATOM     23  O   UNL     1      -6.148   0.417  -3.521  0.00  0.00    -0.276 OA
ATOM     24  H   UNL     1      -6.421  -1.195  -0.903  0.00  0.00    +0.149 HD
BRANCH  21  25
ATOM     25  C   UNL     1      -4.562  -0.345  -1.479  0.00  0.00    +0.106 C 
BRANCH  25  30
ATOM     26  N   UNL     1      -2.010  -1.090   1.230  0.00  0.00    +0.381 N 
ATOM     27  C   UNL     1      -1.999  -2.554   1.130  0.00  0.00    -0.078 C 
ATOM     28  C   UNL     1      -3.433  -3.071   0.992  0.00  0.00    -0.018 C 
ATOM     29  C   UNL     1      -4.064  -2.476  -0.270  0.00  0.00    +0.001 C 
ATOM     30  C   UNL     1      -4.003  -0.948  -0.188  0.00  0.00    -0.011 C 
ATOM     31  C   UNL     1      -2.549  -0.510  -0.006  0.00  0.00    -0.074 C 
ATOM     32  H   UNL     1      -2.588  -0.812   2.010  0.00  0.00    -0.081 HD
BRANCH  26  34
ATOM     33  C   UNL     1      -0.651   0.921   1.555  0.00  0.00    -0.014 C 
ATOM     34  C   UNL     1      -0.640  -0.605   1.441  0.00  0.00    -0.075 C 
ATOM     35  C   UNL     1      -0.078  -1.208   2.730  0.00  0.00    -0.014 C 
ENDBRANCH  26  34
ENDBRANCH  25  30
ENDBRANCH  21  25
ENDBRANCH  20  22
ENDBRANCH  19  20
ENDBRANCH   1  19
TORSDOF 8
