REMARK  Name = ZINC40138270
REMARK  14 active torsions:
REMARK  status: ('A' for Active; 'I' for Inactive)
REMARK    1  A    between atoms: C_1  and  C_2
REMARK    2  A    between atoms: C_5  and  O_8
REMARK    3  A    between atoms: O_8  and  C_9
REMARK    4  A    between atoms: C_9  and  C_10
REMARK    5  A    between atoms: C_10  and  C_11
REMARK    6  A    between atoms: C_11  and  N_12
REMARK    7  A    between atoms: N_20  and  N_21
REMARK    8  A    between atoms: C_22  and  C_24
REMARK    9  A    between atoms: C_26  and  O_34
REMARK   10  A    between atoms: C_27  and  O_32
REMARK   11  A    between atoms: C_28  and  O_30
REMARK   12  A    between atoms: O_30  and  C_31
REMARK   13  A    between atoms: O_32  and  C_33
REMARK   14  A    between atoms: O_34  and  C_35
REMARK                            x       y       z     vdW  Elec       q    Type
REMARK                         _______ _______ _______ _____ _____    ______ ____
ROOT
ATOM      1  N   UNL     1       0.124  -8.453   2.200  0.00  0.00    -0.265 N 
ATOM      2  C   UNL     1      -1.016  -9.243   2.093  0.00  0.00    +0.046 A 
ATOM      3  C   UNL     1      -2.368  -8.925   2.140  0.00  0.00    +0.024 A 
ATOM      4  C   UNL     1      -3.319  -9.916   2.006  0.00  0.00    +0.002 A 
ATOM      5  C   UNL     1      -2.941 -11.236   1.823  0.00  0.00    +0.001 A 
ATOM      6  C   UNL     1      -1.602 -11.571   1.774  0.00  0.00    +0.012 A 
ATOM      7  C   UNL     1      -0.637 -10.579   1.908  0.00  0.00    +0.028 A 
ATOM      8  C   UNL     1       0.844 -10.598   1.903  0.00  0.00    +0.153 C 
ATOM      9  N   UNL     1       1.629 -11.638   1.757  0.00  0.00    -0.174 NA
ATOM     10  C   UNL     1       1.243  -9.189   2.090  0.00  0.00    +0.271 C 
ATOM     11  O   UNL     1       2.384  -8.768   2.140  0.00  0.00    -0.268 OA
ENDROOT
BRANCH   9  12
ATOM     12  N   UNL     1       3.020 -11.474   1.777  0.00  0.00    -0.202 N 
ATOM     13  C   UNL     1       3.827 -12.543   1.628  0.00  0.00    +0.264 C 
ATOM     14  O   UNL     1       3.348 -13.649   1.475  0.00  0.00    -0.268 OA
ATOM     15  H   UNL     1       3.403 -10.591   1.899  0.00  0.00    +0.178 HD
BRANCH  13  16
ATOM     16  C   UNL     1       5.292 -12.370   1.649  0.00  0.00    +0.045 A 
ATOM     17  C   UNL     1       5.844 -11.099   1.829  0.00  0.00    +0.062 A 
ATOM     18  C   UNL     1       7.217 -10.940   1.849  0.00  0.00    +0.166 A 
ATOM     19  C   UNL     1       8.050 -12.044   1.689  0.00  0.00    +0.204 A 
ATOM     20  C   UNL     1       7.502 -13.312   1.508  0.00  0.00    +0.166 A 
ATOM     21  C   UNL     1       6.130 -13.477   1.494  0.00  0.00    +0.062 A 
BRANCH  20  22
ATOM     22  O   UNL     1       8.318 -14.388   1.351  0.00  0.00    -0.491 OA
ATOM     23  C   UNL     1       7.689 -15.659   1.171  0.00  0.00    +0.277 C 
ENDBRANCH  20  22
BRANCH  19  24
ATOM     24  O   UNL     1       9.399 -11.885   1.709  0.00  0.00    -0.488 OA
ATOM     25  C   UNL     1      10.046 -11.989   2.978  0.00  0.00    +0.277 C 
ENDBRANCH  19  24
BRANCH  18  26
ATOM     26  O   UNL     1       7.755  -9.703   2.024  0.00  0.00    -0.491 OA
ATOM     27  C   UNL     1       6.843  -8.615   2.181  0.00  0.00    +0.277 C 
ENDBRANCH  18  26
ENDBRANCH  13  16
ENDBRANCH   9  12
BRANCH   1  28
ATOM     28  C   UNL     1       0.106  -7.002   2.400  0.00  0.00    +0.117 C 
BRANCH  28  29
ATOM     29  C   UNL     1       0.090  -6.300   1.040  0.00  0.00    +0.060 C 
BRANCH  29  30
ATOM     30  C   UNL     1       0.072  -4.785   1.249  0.00  0.00    +0.230 C 
BRANCH  30  31
ATOM     31  O   UNL     1       0.057  -4.129  -0.021  0.00  0.00    -0.492 OA
BRANCH  31  36
ATOM     32  C   UNL     1      -0.018   1.503   0.010  0.00  0.00    +0.044 C 
ATOM     33  C   UNL     1       0.002  -0.004   0.002  0.00  0.00    -0.050 A 
ATOM     34  C   UNL     1       0.006  -0.688  -1.200  0.00  0.00    +0.007 A 
ATOM     35  C   UNL     1       0.024  -2.069  -1.210  0.00  0.00    +0.046 A 
ATOM     36  C   UNL     1       0.039  -2.770  -0.013  0.00  0.00    +0.121 A 
ATOM     37  C   UNL     1       0.036  -2.082   1.191  0.00  0.00    +0.046 A 
ATOM     38  C   UNL     1       0.023  -0.701   1.196  0.00  0.00    +0.007 A 
ENDBRANCH  31  36
ENDBRANCH  30  31
ENDBRANCH  29  30
ENDBRANCH  28  29
ENDBRANCH   1  28
TORSDOF 10
