REMARK  Name = ZINC03310657
REMARK  8 active torsions:
REMARK  status: ('A' for Active; 'I' for Inactive)
REMARK    1  A    between atoms: C_7  and  C_11
REMARK    2  A    between atoms: C_11  and  C_12
REMARK    3  A    between atoms: C_12  and  C_14
REMARK    4  A    between atoms: C_12  and  N_33
REMARK    5  A    between atoms: C_14  and  O_16
REMARK    6  A    between atoms: O_16  and  C_17
REMARK    7  A    between atoms: C_17  and  C_18
REMARK    8  A    between atoms: C_34  and  C_36
REMARK                            x       y       z     vdW  Elec       q    Type
REMARK                         _______ _______ _______ _____ _____    ______ ____
ROOT
ATOM      1  C   UNL     1       0.236  -3.589  -1.455  0.00  0.00    +0.186 C 
ENDROOT
BRANCH   1   2
ATOM      2  N   UNL     1       1.401  -4.022  -2.231  0.00  0.00    -0.298 N 
ATOM      3  C   UNL     1       2.095  -5.114  -1.853  0.00  0.00    +0.251 C 
ATOM      4  O   UNL     1       1.754  -5.740  -0.867  0.00  0.00    -0.270 OA
ATOM      5  H   UNL     1       1.673  -3.522  -3.017  0.00  0.00    +0.150 HD
BRANCH   3   6
ATOM      6  C   UNL     1       3.260  -5.546  -2.630  0.00  0.00    +0.074 A 
ATOM      7  C   UNL     1       4.098  -6.631  -2.418  0.00  0.00    +0.021 A 
ATOM      8  C   UNL     1       5.119  -6.782  -3.325  0.00  0.00    +0.008 A 
ATOM      9  C   UNL     1       5.240  -5.889  -4.337  0.00  0.00    +0.046 A 
ATOM     10  S   UNL     1       3.966  -4.819  -4.096  0.00  0.00    -0.092 S 
ENDBRANCH   3   6
ENDBRANCH   1   2
BRANCH   1  11
ATOM     11  C   UNL     1      -0.795  -4.689  -1.442  0.00  0.00    +0.328 C 
ATOM     12  O   UNL     1      -0.468  -5.825  -1.688  0.00  0.00    -0.249 OA
BRANCH  11  13
ATOM     13  O   UNL     1      -2.075  -4.405  -1.155  0.00  0.00    -0.454 OA
BRANCH  13  14
ATOM     14  C   UNL     1      -2.998  -5.495  -1.160  0.00  0.00    +0.328 C 
BRANCH  14  15
ATOM     15  C   UNL     1      -4.376  -4.989  -0.819  0.00  0.00    +0.256 C 
ATOM     16  O   UNL     1      -4.550  -3.810  -0.594  0.00  0.00    -0.272 OA
ATOM     17  N   UNL     1      -5.414  -5.846  -0.764  0.00  0.00    -0.262 N 
ATOM     18  C   UNL     1      -6.682  -5.381  -0.451  0.00  0.00    +0.166 A 
ATOM     19  N   UNL     1      -7.065  -4.155  -0.184  0.00  0.00    -0.222 NA
ATOM     20  C   UNL     1      -8.347  -3.842   0.108  0.00  0.00    +0.118 A 
ATOM     21  C   UNL     1      -9.256  -4.924   0.110  0.00  0.00    +0.046 A 
ATOM     22  S   UNL     1      -8.210  -6.296  -0.313  0.00  0.00    -0.052 S 
ATOM     23  C   UNL     1     -10.592  -4.771   0.387  0.00  0.00    +0.058 A 
ATOM     24  C   UNL     1     -11.091  -3.513   0.680  0.00  0.00    +0.162 A 
ATOM     25  C   UNL     1     -10.226  -2.424   0.688  0.00  0.00    +0.196 A 
ATOM     26  C   UNL     1      -8.888  -2.569   0.411  0.00  0.00    +0.188 A 
ATOM     27  F   UNL     1      -8.081  -1.487   0.428  0.00  0.00    -0.200 F 
ATOM     28  F   UNL     1     -10.712  -1.196   0.974  0.00  0.00    -0.199 F 
ATOM     29  F   UNL     1     -12.403  -3.345   0.955  0.00  0.00    -0.202 F 
ATOM     30  H   UNL     1      -5.275  -6.789  -0.944  0.00  0.00    +0.157 HD
ENDBRANCH  14  15
ENDBRANCH  13  14
ENDBRANCH  11  13
ENDBRANCH   1  11
BRANCH   1  31
ATOM     31  C   UNL     1       0.666  -3.275  -0.021  0.00  0.00    +0.071 C 
BRANCH  31  38
ATOM     32  C   UNL     1      -0.017   1.362   0.009  0.00  0.00    +0.001 A 
ATOM     33  C   UNL     1       1.170   2.083   0.002  0.00  0.00    +0.002 A 
ATOM     34  C   UNL     1       2.386   1.436  -0.013  0.00  0.00    +0.026 A 
ATOM     35  C   UNL     1       2.428   0.046  -0.021  0.00  0.00    +0.047 A 
ATOM     36  C   UNL     1       1.223  -0.681  -0.013  0.00  0.00    +0.003 A 
ATOM     37  C   UNL     1       0.002  -0.004   0.002  0.00  0.00    +0.010 A 
ATOM     38  C   UNL     1       1.604  -2.095  -0.025  0.00  0.00    -0.020 A 
ATOM     39  C   UNL     1       2.945  -2.141  -0.038  0.00  0.00    +0.087 A 
ATOM     40  N   UNL     1       3.455  -0.871  -0.036  0.00  0.00    -0.360 N 
ATOM     41  H   UNL     1       4.399  -0.650  -0.044  0.00  0.00    +0.165 HD
ENDBRANCH  31  38
ENDBRANCH   1  31
TORSDOF 8
