REMARK  Name = ZINC63761285
REMARK  4 active torsions:
REMARK  status: ('A' for Active; 'I' for Inactive)
REMARK    1  A    between atoms: C_16  and  C_18
REMARK    2  A    between atoms: N_20  and  C_21
REMARK    3  A    between atoms: C_25  and  N_27
REMARK    4  A    between atoms: N_33  and  C_36
REMARK                            x       y       z     vdW  Elec       q    Type
REMARK                         _______ _______ _______ _____ _____    ______ ____
ROOT
ATOM      1  C   UNL     1      -0.011   1.381   0.007  0.00  0.00    +0.001 A 
ATOM      2  C   UNL     1       1.181   2.085  -0.009  0.00  0.00    +0.000 A 
ATOM      3  C   UNL     1       2.387   1.411  -0.023  0.00  0.00    +0.006 A 
ATOM      4  C   UNL     1       2.427   0.033  -0.016  0.00  0.00    -0.019 A 
ATOM      5  C   UNL     1       1.218  -0.686  -0.006  0.00  0.00    -0.019 A 
ATOM      6  C   UNL     1       0.005   0.003   0.008  0.00  0.00    +0.008 A 
ATOM      7  C   UNL     1       1.223  -2.162  -0.016  0.00  0.00    +0.023 C 
ATOM      8  C   UNL     1       2.361  -2.840   0.228  0.00  0.00    +0.072 C 
ATOM      9  N   UNL     1       3.489  -2.093   0.475  0.00  0.00    -0.316 N 
ATOM     10  C   UNL     1       3.703  -0.721  -0.033  0.00  0.00    +0.117 C 
ATOM     11  C   UNL     1       4.912  -0.161   0.627  0.00  0.00    +0.114 C 
ATOM     12  C   UNL     1       5.001  -1.121   1.883  0.00  0.00    +0.119 C 
ATOM     13  C   UNL     1       4.677  -2.443   1.308  0.00  0.00    +0.172 C 
ATOM     14  C   UNL     1       6.021  -0.466   2.663  0.00  0.00    +0.228 C 
ATOM     15  O   UNL     1       6.864  -0.985   3.362  0.00  0.00    -0.275 OA
ATOM     16  N   UNL     1       5.828   0.876   2.439  0.00  0.00    -0.238 N 
ATOM     17  C   UNL     1       4.954   1.121   1.400  0.00  0.00    +0.228 C 
ATOM     18  O   UNL     1       4.348   2.144   1.164  0.00  0.00    -0.275 OA
ENDROOT
BRANCH  16  19
ATOM     19  C   UNL     1       6.486   1.934   3.210  0.00  0.00    +0.084 C 
ATOM     20  C   UNL     1       8.004   1.805   3.063  0.00  0.00    +0.023 C 
ATOM     21  C   UNL     1       8.690   2.909   3.868  0.00  0.00    +0.002 C 
ATOM     22  C   UNL     1       8.308   2.777   5.344  0.00  0.00    +0.000 C 
ATOM     23  C   UNL     1       6.791   2.906   5.492  0.00  0.00    +0.002 C 
ATOM     24  C   UNL     1       6.104   1.802   4.686  0.00  0.00    +0.023 C 
ENDBRANCH  16  19
BRANCH  13  25
ATOM     25  C   UNL     1       5.808  -2.958   0.456  0.00  0.00    +0.238 C 
ATOM     26  O   UNL     1       5.819  -2.736  -0.736  0.00  0.00    -0.273 OA
ATOM     27  N   UNL     1       6.808  -3.665   1.019  0.00  0.00    -0.284 N 
ATOM     28  H   UNL     1       6.835  -3.786   1.981  0.00  0.00    +0.155 HD
BRANCH  27  29
ATOM     29  C   UNL     1       7.807  -4.226   0.215  0.00  0.00    +0.036 A 
ATOM     30  C   UNL     1       8.363  -5.454   0.550  0.00  0.00    +0.025 A 
ATOM     31  C   UNL     1       9.348  -6.005  -0.244  0.00  0.00    +0.024 A 
ATOM     32  C   UNL     1       9.783  -5.335  -1.375  0.00  0.00    +0.071 A 
ATOM     33  C   UNL     1       9.231  -4.111  -1.712  0.00  0.00    +0.146 A 
ATOM     34  C   UNL     1       8.241  -3.558  -0.923  0.00  0.00    +0.057 A 
ATOM     35 CL   UNL     1      11.022  -6.030  -2.372  0.00  0.00    -0.081 Cl
BRANCH  33  36
ATOM     36  N   UNL     1       9.698  -3.397  -2.921  0.00  0.00    +0.058 N 
ATOM     37  O   UNL     1       9.216  -2.328  -3.216  0.00  0.00    -0.126 OA
ATOM     38  O   UNL     1      10.562  -3.883  -3.614  0.00  0.00    -0.126 OA
ENDBRANCH  33  36
ENDBRANCH  27  29
ENDBRANCH  13  25
TORSDOF 4
