REMARK  Name = ZINC02433531
REMARK  2 active torsions:
REMARK  status: ('A' for Active; 'I' for Inactive)
REMARK    1  A    between atoms: C_6  and  C_7
REMARK    2  A    between atoms: C_17  and  C_19
REMARK                            x       y       z     vdW  Elec       q    Type
REMARK                         _______ _______ _______ _____ _____    ______ ____
ROOT
ATOM      1  C   UNL     1       7.112   8.373  -0.552  0.00  0.00    +0.032 C 
ATOM      2  C   UNL     1       5.829   7.753  -0.004  0.00  0.00    +0.065 C 
ATOM      3  C   UNL     1       5.901   6.253  -0.023  0.00  0.00    +0.057 A 
ATOM      4  C   UNL     1       7.126   5.577  -0.042  0.00  0.00    +0.057 A 
ATOM      5  C   UNL     1       7.130   4.177  -0.048  0.00  0.00    +0.127 A 
ATOM      6  N   UNL     1       5.972   3.541  -0.032  0.00  0.00    -0.222 NA
ATOM      7  C   UNL     1       4.830   4.214  -0.023  0.00  0.00    +0.222 A 
ATOM      8  N   UNL     1       4.788   5.540  -0.016  0.00  0.00    -0.218 NA
ATOM      9  N   UNL     1       3.640   3.509  -0.015  0.00  0.00    -0.250 N 
ATOM     10  C   UNL     1       3.655   2.161  -0.022  0.00  0.00    +0.250 C 
ATOM     11  O   UNL     1       4.715   1.566  -0.035  0.00  0.00    -0.270 OA
ATOM     12  C   UNL     1       8.389   6.331  -0.058  0.00  0.00    +0.167 C 
ATOM     13  O   UNL     1       9.447   5.782  -0.282  0.00  0.00    -0.292 OA
ATOM     14  C   UNL     1       8.319   7.819   0.217  0.00  0.00    +0.088 C 
ATOM     15  H   UNL     1       2.794   3.984  -0.005  0.00  0.00    +0.158 HD
ENDROOT
BRANCH   1  21
ATOM     16  C   UNL     1       6.925  10.423   0.873  0.00  0.00    +0.007 A 
ATOM     17  C   UNL     1       6.880  11.796   1.025  0.00  0.00    +0.038 A 
ATOM     18  C   UNL     1       6.953  12.617  -0.087  0.00  0.00    +0.123 A 
ATOM     19  C   UNL     1       7.079  12.063  -1.349  0.00  0.00    +0.038 A 
ATOM     20  C   UNL     1       7.130  10.690  -1.499  0.00  0.00    +0.007 A 
ATOM     21  C   UNL     1       7.056   9.870  -0.388  0.00  0.00    -0.043 A 
ATOM     22  F   UNL     1       6.902  13.960   0.060  0.00  0.00    -0.205 F 
ENDBRANCH   1  21
BRANCH  10  23
ATOM     23  C   UNL     1       2.385   1.408  -0.014  0.00  0.00    +0.037 A 
ATOM     24  C   UNL     1       1.166   2.090   0.002  0.00  0.00    +0.016 A 
ATOM     25  C   UNL     1      -0.017   1.382   0.010  0.00  0.00    +0.039 A 
ATOM     26  C   UNL     1       0.002  -0.004   0.002  0.00  0.00    +0.123 A 
ATOM     27  C   UNL     1       1.209  -0.686  -0.013  0.00  0.00    +0.039 A 
ATOM     28  C   UNL     1       2.398   0.012  -0.021  0.00  0.00    +0.016 A 
ATOM     29  F   UNL     1      -1.160  -0.693   0.009  0.00  0.00    -0.205 F 
ENDBRANCH  10  23
TORSDOF 2
