REMARK  Name = ZINC08832454
REMARK  9 active torsions:
REMARK  status: ('A' for Active; 'I' for Inactive)
REMARK    1  A    between atoms: C_1  and  C_2
REMARK    2  A    between atoms: C_2  and  C_3
REMARK    3  A    between atoms: C_2  and  C_4
REMARK    4  A    between atoms: C_2  and  C_5
REMARK    5  A    between atoms: C_12  and  N_17
REMARK    6  A    between atoms: C_13  and  C_14
REMARK    7  A    between atoms: C_18  and  C_20
REMARK    8  A    between atoms: C_21  and  C_22
REMARK    9  A    between atoms: C_26  and  N_28
REMARK                            x       y       z     vdW  Elec       q    Type
REMARK                         _______ _______ _______ _____ _____    ______ ____
ROOT
ATOM      1  C   UNL     1      -7.921  -7.520   0.417  0.00  0.00    -0.000 C 
ATOM      2  C   UNL     1      -7.024  -8.424  -0.434  0.00  0.00    +0.009 C 
ATOM      3  C   UNL     1      -5.567  -8.275   0.008  0.00  0.00    +0.037 C 
ATOM      4  C   UNL     1      -5.205  -6.795   0.014  0.00  0.00    -0.023 A 
ATOM      5  C   UNL     1      -6.164  -5.844   0.028  0.00  0.00    -0.004 A 
ATOM      6  S   UNL     1      -5.280  -4.310   0.035  0.00  0.00    -0.077 S 
ATOM      7  C   UNL     1      -3.659  -4.921   0.009  0.00  0.00    +0.085 A 
ATOM      8  C   UNL     1      -3.840  -6.297   0.003  0.00  0.00    +0.068 A 
ATOM      9  C   UNL     1      -7.646  -6.056   0.043  0.00  0.00    +0.046 C 
ENDROOT
BRANCH   8  10
ATOM     10  C   UNL     1      -2.696  -7.214  -0.012  0.00  0.00    +0.244 C 
ATOM     11  O   UNL     1      -2.211  -7.600   1.036  0.00  0.00    -0.270 OA
ATOM     12  N   UNL     1      -2.181  -7.630  -1.186  0.00  0.00    -0.325 N 
ATOM     13  H   UNL     1      -2.568  -7.322  -2.021  0.00  0.00    +0.145 HD
ATOM     14  H   UNL     1      -1.425  -8.237  -1.196  0.00  0.00    +0.145 HD
ENDBRANCH   8  10
BRANCH   1  16
ATOM     15  C   UNL     1      -9.692  -7.641  -1.341  0.00  0.00    +0.011 C 
ATOM     16  C   UNL     1      -9.390  -7.852   0.143  0.00  0.00    -0.035 C 
ATOM     17  C   UNL     1      -9.661  -9.311   0.517  0.00  0.00    +0.011 C 
ATOM     18  C   UNL     1     -10.284  -6.936   0.982  0.00  0.00    +0.011 C 
ENDBRANCH   1  16
BRANCH   7  19
ATOM     19  N   UNL     1      -2.471  -4.209   0.002  0.00  0.00    -0.276 N 
ATOM     20  C   UNL     1      -2.493  -2.861   0.009  0.00  0.00    +0.241 C 
ATOM     21  O   UNL     1      -3.557  -2.270   0.022  0.00  0.00    -0.270 OA
ATOM     22  H   UNL     1      -1.623  -4.680  -0.008  0.00  0.00    +0.156 HD
BRANCH  20  23
ATOM     23  C   UNL     1      -1.238  -2.109   0.002  0.00  0.00    +0.068 C 
ATOM     24  C   UNL     1      -1.260  -0.760   0.009  0.00  0.00    +0.013 C 
BRANCH  24  25
ATOM     25  C   UNL     1       0.002  -0.004   0.002  0.00  0.00    -0.023 A 
ATOM     26  C   UNL     1       1.227  -0.680  -0.013  0.00  0.00    +0.009 A 
ATOM     27  C   UNL     1       2.405   0.035  -0.021  0.00  0.00    +0.023 A 
ATOM     28  C   UNL     1       2.378   1.420  -0.013  0.00  0.00    +0.071 A 
ATOM     29  C   UNL     1       1.169   2.096   0.002  0.00  0.00    +0.145 A 
ATOM     30  C   UNL     1      -0.017   1.394   0.010  0.00  0.00    +0.042 A 
ATOM     31 CL   UNL     1       3.867   2.313  -0.021  0.00  0.00    -0.081 Cl
BRANCH  29  32
ATOM     32  N   UNL     1       1.151   3.576   0.010  0.00  0.00    +0.058 N 
ATOM     33  O   UNL     1       0.089   4.173   0.024  0.00  0.00    -0.126 OA
ATOM     34  O   UNL     1       2.199   4.198   0.004  0.00  0.00    -0.126 OA
ENDBRANCH  29  32
ENDBRANCH  24  25
ENDBRANCH  20  23
ENDBRANCH   7  19
TORSDOF 6
