REMARK  Name = ZINC12660430
REMARK  7 active torsions:
REMARK  status: ('A' for Active; 'I' for Inactive)
REMARK    1  A    between atoms: C_1  and  N_48
REMARK    2  A    between atoms: C_8  and  O_23
REMARK    3  A    between atoms: C_10  and  C_12
REMARK    4  A    between atoms: C_12  and  C_13
REMARK    5  A    between atoms: C_13  and  C_15
REMARK    6  A    between atoms: C_13  and  O_22
REMARK    7  A    between atoms: O_23  and  C_24
REMARK                            x       y       z     vdW  Elec       q    Type
REMARK                         _______ _______ _______ _____ _____    ______ ____
ROOT
ATOM      1  C   UNL     1       2.195   1.204   0.893  0.00  0.00    -0.095 C 
ATOM      2  C   UNL     1       1.819   1.484  -1.485  0.00  0.00    -0.074 C 
ATOM      3  C   UNL     1       1.042   2.351  -2.476  0.00  0.00    +0.017 C 
ATOM      4  C   UNL     1      -0.439   2.161  -2.274  0.00  0.00    -0.040 A 
ATOM      5  C   UNL     1      -1.300   2.570  -3.282  0.00  0.00    +0.053 A 
ATOM      6  C   UNL     1      -2.669   2.420  -3.142  0.00  0.00    +0.170 A 
ATOM      7  C   UNL     1      -3.184   1.855  -1.980  0.00  0.00    +0.208 A 
ATOM      8  C   UNL     1      -2.321   1.444  -0.975  0.00  0.00    +0.167 A 
ATOM      9  C   UNL     1      -0.946   1.597  -1.123  0.00  0.00    -0.012 A 
ATOM     10  C   UNL     1      -0.050   1.132  -0.005  0.00  0.00    -0.031 C 
ATOM     11  O   UNL     1      -4.546   1.817  -2.080  0.00  0.00    -0.449 OA
ATOM     12  C   UNL     1      -4.834   1.988  -3.481  0.00  0.00    +0.467 C 
ATOM     13  O   UNL     1      -3.706   2.737  -3.971  0.00  0.00    -0.452 OA
ATOM     14  N   UNL     1       1.281   1.749  -0.134  0.00  0.00    +0.383 N 
ATOM     15  H   UNL     1       1.195   2.764  -0.000  0.00  0.00    -0.081 HD
ENDROOT
BRANCH   8  16
ATOM     16  O   UNL     1      -2.822   0.891   0.162  0.00  0.00    -0.491 OA
ATOM     17  C   UNL     1      -2.990  -0.528   0.174  0.00  0.00    +0.277 C 
ENDBRANCH   8  16
BRANCH  10  18
ATOM     18  C   UNL     1      -0.659   1.549   1.336  0.00  0.00    +0.025 C 
BRANCH  18  19
ATOM     19  C   UNL     1      -0.719   3.076   1.416  0.00  0.00    +0.143 C 
BRANCH  19  20
ATOM     20  C   UNL     1      -1.174   3.489   2.792  0.00  0.00    -0.019 A 
ATOM     21  C   UNL     1      -2.518   3.459   3.112  0.00  0.00    +0.009 A 
ATOM     22  C   UNL     1      -2.937   3.834   4.375  0.00  0.00    +0.039 A 
ATOM     23  C   UNL     1      -2.010   4.249   5.316  0.00  0.00    +0.123 A 
ATOM     24  C   UNL     1      -0.664   4.283   4.992  0.00  0.00    +0.039 A 
ATOM     25  C   UNL     1      -0.247   3.903   3.730  0.00  0.00    +0.009 A 
ATOM     26  F   UNL     1      -2.418   4.619   6.550  0.00  0.00    -0.205 F 
ENDBRANCH  19  20
BRANCH  19  27
ATOM     27  O   UNL     1      -1.640   3.568   0.441  0.00  0.00    -0.387 OA
ATOM     28  H   UNL     1      -2.531   3.199   0.520  0.00  0.00    +0.210 HD
ENDBRANCH  19  27
ENDBRANCH  18  19
ENDBRANCH  10  18
TORSDOF 5
