REMARK  Name = ZINC35671753
REMARK  9 active torsions:
REMARK  status: ('A' for Active; 'I' for Inactive)
REMARK    1  A    between atoms: C_1  and  C_2
REMARK    2  A    between atoms: C_5  and  N_9
REMARK    3  A    between atoms: C_7  and  C_8
REMARK    4  A    between atoms: C_11  and  C_32
REMARK    5  A    between atoms: C_15  and  C_17
REMARK    6  A    between atoms: C_17  and  N_18
REMARK    7  A    between atoms: N_18  and  C_19
REMARK    8  A    between atoms: C_19  and  C_20
REMARK    9  A    between atoms: C_25  and  C_27
REMARK                            x       y       z     vdW  Elec       q    Type
REMARK                         _______ _______ _______ _____ _____    ______ ____
ROOT
ATOM      1  N   UNL     1      -1.640  -1.288  -1.561  0.00  0.00    -0.287 N 
ATOM      2  C   UNL     1      -0.807  -1.435  -0.478  0.00  0.00    +0.122 A 
ATOM      3  C   UNL     1      -0.821  -2.752  -0.148  0.00  0.00    +0.091 A 
ATOM      4  N   UNL     1      -1.643  -3.390  -1.009  0.00  0.00    -0.214 NA
ATOM      5  C   UNL     1      -2.142  -2.522  -1.854  0.00  0.00    +0.207 A 
ATOM      6  N   UNL     1      -3.031  -2.811  -2.880  0.00  0.00    -0.254 N 
ATOM      7  C   UNL     1      -3.454  -4.077  -3.068  0.00  0.00    +0.237 C 
ATOM      8  O   UNL     1      -3.059  -4.963  -2.341  0.00  0.00    -0.274 OA
ATOM      9  H   UNL     1      -3.347  -2.102  -3.462  0.00  0.00    +0.158 HD
ENDROOT
BRANCH   1  14
ATOM     10  C   UNL     1      -2.800   3.553  -4.287  0.00  0.00    +0.044 C 
ATOM     11  C   UNL     1      -2.492   2.267  -3.563  0.00  0.00    -0.047 A 
ATOM     12  C   UNL     1      -2.113   1.146  -4.278  0.00  0.00    +0.005 A 
ATOM     13  C   UNL     1      -1.831  -0.033  -3.618  0.00  0.00    +0.026 A 
ATOM     14  C   UNL     1      -1.926  -0.093  -2.234  0.00  0.00    +0.049 A 
ATOM     15  C   UNL     1      -2.306   1.035  -1.518  0.00  0.00    +0.029 A 
ATOM     16  C   UNL     1      -2.583   2.213  -2.184  0.00  0.00    -0.046 A 
ATOM     17  C   UNL     1      -2.991   3.438  -1.408  0.00  0.00    +0.044 C 
ENDBRANCH   1  14
BRANCH   3  18
ATOM     18  C   UNL     1      -0.066  -3.380   0.964  0.00  0.00    +0.002 A 
ATOM     19  C   UNL     1       0.747  -2.600   1.785  0.00  0.00    +0.011 A 
ATOM     20  C   UNL     1       1.447  -3.189   2.818  0.00  0.00    +0.020 A 
ATOM     21  C   UNL     1       1.344  -4.551   3.039  0.00  0.00    +0.041 A 
ATOM     22  C   UNL     1       0.538  -5.330   2.226  0.00  0.00    +0.020 A 
ATOM     23  C   UNL     1      -0.171  -4.750   1.194  0.00  0.00    +0.011 A 
ATOM     24 CL   UNL     1       2.228  -5.286   4.340  0.00  0.00    -0.084 Cl
ENDBRANCH   3  18
BRANCH   7  25
ATOM     25  C   UNL     1      -4.420  -4.391  -4.183  0.00  0.00    +0.204 C 
BRANCH  25  26
ATOM     26  N   UNL     1      -4.723  -5.824  -4.177  0.00  0.00    -0.285 N 
ATOM     27  C   UNL     1      -3.966  -6.676  -4.896  0.00  0.00    +0.219 C 
ATOM     28  O   UNL     1      -4.270  -7.848  -4.963  0.00  0.00    -0.275 OA
BRANCH  27  29
ATOM     29  C   UNL     1      -2.743  -6.172  -5.617  0.00  0.00    +0.075 C 
ATOM     30  C   UNL     1      -1.483  -6.342  -4.732  0.00  0.00    +0.013 C 
ATOM     31  C   UNL     1      -0.336  -6.373  -5.773  0.00  0.00    +0.001 C 
ATOM     32  C   UNL     1      -0.922  -7.168  -6.958  0.00  0.00    +0.001 C 
ATOM     33  C   UNL     1      -2.452  -7.039  -6.859  0.00  0.00    +0.013 C 
ENDBRANCH  27  29
BRANCH  26  34
ATOM     34  C   UNL     1      -5.849  -6.331  -3.389  0.00  0.00    +0.182 C 
BRANCH  34  35
ATOM     35  C   UNL     1      -7.116  -6.226  -4.197  0.00  0.00    +0.122 A 
ATOM     36  C   UNL     1      -7.648  -7.200  -4.957  0.00  0.00    +0.046 A 
ATOM     37  C   UNL     1      -8.827  -6.673  -5.533  0.00  0.00    +0.041 A 
ATOM     38  C   UNL     1      -8.945  -5.408  -5.091  0.00  0.00    +0.195 A 
ATOM     39  O   UNL     1      -7.909  -5.144  -4.278  0.00  0.00    -0.466 OA
ENDBRANCH  34  35
ENDBRANCH  26  34
ENDBRANCH  25  26
ENDBRANCH   7  25
TORSDOF 7
