REMARK  Name = ZINC00718532
REMARK  4 active torsions:
REMARK  status: ('A' for Active; 'I' for Inactive)
REMARK    1  A    between atoms: C_5  and  C_7
REMARK    2  A    between atoms: C_10  and  C_21
REMARK    3  A    between atoms: C_16  and  N_20
REMARK    4  A    between atoms: C_17  and  C_18
REMARK                            x       y       z     vdW  Elec       q    Type
REMARK                         _______ _______ _______ _____ _____    ______ ____
ROOT
ATOM      1  C   UNL     1       1.229  -2.186  -0.022  0.00  0.00    +0.103 C 
ATOM      2  C   UNL     1       0.501  -2.697  -1.238  0.00  0.00    +0.055 A 
ATOM      3  C   UNL     1       0.896  -2.675  -2.581  0.00  0.00    +0.107 A 
ATOM      4  N   UNL     1      -0.064  -3.235  -3.295  0.00  0.00    -0.170 NA
ATOM      5  N   UNL     1      -1.092  -3.626  -2.424  0.00  0.00    -0.246 N 
ATOM      6  H   UNL     1      -1.920  -4.063  -2.678  0.00  0.00    +0.192 HD
ATOM      7  C   UNL     1      -0.726  -3.289  -1.169  0.00  0.00    +0.223 A 
ATOM      8  O   UNL     1      -1.388  -3.468   0.002  0.00  0.00    -0.423 OA
ATOM      9  C   UNL     1      -0.694  -3.295   1.145  0.00  0.00    +0.200 C 
ATOM     10  C   UNL     1       0.525  -2.712   1.204  0.00  0.00    +0.098 C 
ENDROOT
BRANCH   1  15
ATOM     11  C   UNL     1      -0.017   1.378   0.010  0.00  0.00    +0.000 A 
ATOM     12  C   UNL     1       1.171   2.086   0.002  0.00  0.00    +0.001 A 
ATOM     13  C   UNL     1       2.377   1.412  -0.013  0.00  0.00    +0.020 A 
ATOM     14  C   UNL     1       2.397   0.029  -0.021  0.00  0.00    +0.045 A 
ATOM     15  C   UNL     1       1.208  -0.679  -0.013  0.00  0.00    -0.016 A 
ATOM     16  C   UNL     1       0.002  -0.004   0.002  0.00  0.00    +0.006 A 
ATOM     17 CL   UNL     1       3.912  -0.818  -0.041  0.00  0.00    -0.083 Cl
ENDBRANCH   1  15
BRANCH   3  18
ATOM     18  C   UNL     1       2.163  -2.122  -3.107  0.00  0.00    +0.040 A 
ATOM     19  C   UNL     1       2.926  -2.561  -4.155  0.00  0.00    +0.018 A 
ATOM     20  C   UNL     1       4.082  -1.878  -4.465  0.00  0.00    +0.008 A 
ATOM     21  C   UNL     1       4.429  -0.795  -3.723  0.00  0.00    +0.046 A 
ATOM     22  S   UNL     1       3.093  -0.706  -2.543  0.00  0.00    -0.095 S 
ENDBRANCH   3  18
BRANCH   9  23
ATOM     23  N   UNL     1      -1.257  -3.737   2.316  0.00  0.00    -0.328 N 
ATOM     24  H   UNL     1      -2.130  -4.160   2.305  0.00  0.00    +0.145 HD
ATOM     25  H   UNL     1      -0.781  -3.627   3.154  0.00  0.00    +0.145 HD
ENDBRANCH   9  23
BRANCH  10  26
ATOM     26  C   UNL     1       1.170  -2.588   2.477  0.00  0.00    +0.101 C 
ATOM     27  N   UNL     1       1.683  -2.490   3.486  0.00  0.00    -0.191 NA
ENDBRANCH  10  26
TORSDOF 4
