REMARK  Name = ZINC06220130
REMARK  3 active torsions:
REMARK  status: ('A' for Active; 'I' for Inactive)
REMARK    1  A    between atoms: C_3  and  C_9
REMARK    2  A    between atoms: C_12  and  C_14
REMARK    3  A    between atoms: N_15  and  N_16
REMARK                            x       y       z     vdW  Elec       q    Type
REMARK                         _______ _______ _______ _____ _____    ______ ____
ROOT
ATOM      1  C   UNL     1       3.655   2.162  -0.022  0.00  0.00    +0.137 A 
ATOM      2  C   UNL     1       4.714   1.949   0.811  0.00  0.00    +0.050 A 
ATOM      3  C   UNL     1       5.703   2.877   0.462  0.00  0.00    +0.051 A 
ATOM      4  C   UNL     1       5.205   3.620  -0.573  0.00  0.00    +0.148 A 
ATOM      5  O   UNL     1       3.966   3.172  -0.857  0.00  0.00    -0.454 OA
ENDROOT
BRANCH   1   8
ATOM      6  C   UNL     1      -0.017   1.381   0.010  0.00  0.00    +0.021 A 
ATOM      7  C   UNL     1       1.166   2.090   0.002  0.00  0.00    +0.014 A 
ATOM      8  C   UNL     1       2.385   1.409  -0.013  0.00  0.00    +0.036 A 
ATOM      9  C   UNL     1       2.398   0.011  -0.021  0.00  0.00    +0.053 A 
ATOM     10  C   UNL     1       1.207  -0.686  -0.013  0.00  0.00    +0.040 A 
ATOM     11  C   UNL     1       0.002  -0.004   0.002  0.00  0.00    +0.042 A 
ATOM     12 CL   UNL     1      -1.492  -0.888   0.012  0.00  0.00    -0.083 Cl
ATOM     13 CL   UNL     1       3.908  -0.846  -0.040  0.00  0.00    -0.083 Cl
ENDBRANCH   1   8
BRANCH   4  14
ATOM     14  C   UNL     1       5.901   4.713  -1.257  0.00  0.00    +0.176 C 
ATOM     15  N   UNL     1       5.316   5.346  -2.232  0.00  0.00    -0.183 NA
BRANCH  15  16
ATOM     16  N   UNL     1       5.981   6.391  -2.887  0.00  0.00    -0.191 N 
ATOM     17  C   UNL     1       5.376   7.047  -3.897  0.00  0.00    +0.317 C 
ATOM     18  O   UNL     1       5.953   7.954  -4.465  0.00  0.00    -0.251 OA
ATOM     19  N   UNL     1       4.131   6.697  -4.277  0.00  0.00    -0.312 N 
ATOM     20  H   UNL     1       6.877   6.642  -2.613  0.00  0.00    +0.179 HD
ATOM     21  H   UNL     1       3.671   5.974  -3.824  0.00  0.00    +0.147 HD
ATOM     22  H   UNL     1       3.696   7.169  -5.004  0.00  0.00    +0.147 HD
ENDBRANCH  15  16
ENDBRANCH   4  14
TORSDOF 3
