REMARK  Name = ZINC21218918
REMARK  12 active torsions:
REMARK  status: ('A' for Active; 'I' for Inactive)
REMARK    1  A    between atoms: C_1  and  C_2
REMARK    2  A    between atoms: C_2  and  O_3
REMARK    3  A    between atoms: O_3  and  C_4
REMARK    4  A    between atoms: C_7  and  C_12
REMARK    5  A    between atoms: C_9  and  O_10
REMARK    6  A    between atoms: O_10  and  C_11
REMARK    7  A    between atoms: C_17  and  C_27
REMARK    8  A    between atoms: C_31  and  O_36
REMARK    9  A    between atoms: C_32  and  O_33
REMARK   10  A    between atoms: O_33  and  C_34
REMARK   11  A    between atoms: C_34  and  C_35
REMARK   12  A    between atoms: O_36  and  C_37
REMARK                            x       y       z     vdW  Elec       q    Type
REMARK                         _______ _______ _______ _____ _____    ______ ____
ROOT
ATOM      1  C   UNL     1      -2.398   0.808   0.458  0.00  0.00    +0.032 C 
ATOM      2  C   UNL     1      -2.433   0.045  -0.865  0.00  0.00    +0.059 C 
ATOM      3  C   UNL     1      -3.759  -0.682  -1.009  0.00  0.00    +0.017 C 
ATOM      4  C   UNL     1      -4.399  -1.153   0.075  0.00  0.00    +0.037 C 
ATOM      5  C   UNL     1      -5.715  -1.894   0.074  0.00  0.00    +0.140 C 
ATOM      6  N   UNL     1      -6.165  -2.319  -1.234  0.00  0.00    -0.331 N 
ATOM      7  C   UNL     1      -6.500  -1.388  -2.216  0.00  0.00    +0.049 A 
ATOM      8  C   UNL     1      -7.807  -1.233  -2.650  0.00  0.00    +0.025 A 
ATOM      9  C   UNL     1      -8.111  -0.221  -3.543  0.00  0.00    +0.002 A 
ATOM     10  C   UNL     1      -7.121   0.629  -4.001  0.00  0.00    +0.002 A 
ATOM     11  C   UNL     1      -5.811   0.463  -3.586  0.00  0.00    +0.025 A 
ATOM     12  C   UNL     1      -5.502  -0.560  -2.707  0.00  0.00    +0.052 A 
ATOM     13  N   UNL     1      -4.202  -0.813  -2.286  0.00  0.00    -0.316 N 
ATOM     14  C   UNL     1      -3.851  -0.961   1.365  0.00  0.00    +0.163 C 
ATOM     15  O   UNL     1      -4.439  -1.419   2.325  0.00  0.00    -0.292 OA
ATOM     16  C   UNL     1      -2.572  -0.211   1.589  0.00  0.00    +0.088 C 
ATOM     17  H   UNL     1      -6.249  -3.391  -1.465  0.00  0.00    +0.147 HD
ATOM     18  H   UNL     1      -3.511  -1.140  -3.077  0.00  0.00    +0.152 HD
ENDROOT
BRANCH   1  22
ATOM     19  C   UNL     1       1.360   2.807   0.870  0.00  0.00    +0.162 A 
ATOM     20  C   UNL     1       1.316   1.428   0.744  0.00  0.00    +0.050 A 
ATOM     21  C   UNL     1       0.099   0.784   0.615  0.00  0.00    +0.008 A 
ATOM     22  C   UNL     1      -1.075   1.514   0.605  0.00  0.00    -0.040 A 
ATOM     23  C   UNL     1      -1.038   2.890   0.736  0.00  0.00    +0.053 A 
ATOM     24  C   UNL     1       0.178   3.542   0.866  0.00  0.00    +0.162 A 
BRANCH  24  25
ATOM     25  O   UNL     1       0.216   4.895   0.989  0.00  0.00    -0.491 OA
ATOM     26  C   UNL     1      -1.037   5.583   0.976  0.00  0.00    +0.277 C 
ENDBRANCH  24  25
BRANCH  19  27
ATOM     27  O   UNL     1       2.556   3.442   0.996  0.00  0.00    -0.489 OA
BRANCH  27  29
ATOM     28  C   UNL     1       4.967   3.509   1.143  0.00  0.00    +0.048 C 
ATOM     29  C   UNL     1       3.728   2.625   0.992  0.00  0.00    +0.226 C 
ENDBRANCH  27  29
ENDBRANCH  19  27
ENDBRANCH   1  22
BRANCH   5  30
ATOM     30  C   UNL     1      -6.767  -0.997   0.674  0.00  0.00    +0.023 A 
ATOM     31  C   UNL     1      -6.580   0.373   0.692  0.00  0.00    +0.009 A 
ATOM     32  C   UNL     1      -7.543   1.198   1.241  0.00  0.00    +0.004 A 
ATOM     33  C   UNL     1      -8.698   0.657   1.775  0.00  0.00    +0.049 A 
ATOM     34  C   UNL     1      -8.892  -0.714   1.760  0.00  0.00    +0.162 A 
ATOM     35  C   UNL     1      -7.924  -1.545   1.202  0.00  0.00    +0.167 A 
BRANCH  34  36
ATOM     36  O   UNL     1     -10.028  -1.248   2.284  0.00  0.00    -0.491 OA
ATOM     37  C   UNL     1     -10.980  -0.335   2.834  0.00  0.00    +0.277 C 
ENDBRANCH  34  36
BRANCH  35  38
ATOM     38  O   UNL     1      -8.113  -2.892   1.181  0.00  0.00    -0.488 OA
BRANCH  38  39
ATOM     39  C   UNL     1      -7.744  -3.617   2.356  0.00  0.00    +0.226 C 
ATOM     40  C   UNL     1      -7.908  -5.117   2.101  0.00  0.00    +0.048 C 
ENDBRANCH  38  39
ENDBRANCH  35  38
ENDBRANCH   5  30
TORSDOF 8
