REMARK  Name = ZINC21351951
REMARK  6 active torsions:
REMARK  status: ('A' for Active; 'I' for Inactive)
REMARK    1  A    between atoms: C_3  and  C_6
REMARK    2  A    between atoms: C_6  and  C_8
REMARK    3  A    between atoms: C_6  and  N_27
REMARK    4  A    between atoms: C_8  and  N_9
REMARK    5  A    between atoms: C_10  and  C_12
REMARK    6  A    between atoms: C_14  and  C_17
REMARK                            x       y       z     vdW  Elec       q    Type
REMARK                         _______ _______ _______ _____ _____    ______ ____
ROOT
ATOM      1  N   UNL     1      -2.118   0.161  -1.206  0.00  0.00    -0.311 N 
ATOM      2  C   UNL     1      -3.446   0.012  -1.387  0.00  0.00    +0.266 C 
ATOM      3  O   UNL     1      -4.104  -0.604  -0.573  0.00  0.00    -0.268 OA
ATOM      4  H   UNL     1      -1.522   0.718  -1.943  0.00  0.00    +0.149 HD
ENDROOT
BRANCH   2   5
ATOM      5  C   UNL     1      -4.102   0.601  -2.580  0.00  0.00    +0.168 A 
ATOM      6  C   UNL     1      -5.479   0.528  -2.916  0.00  0.00    +0.086 A 
ATOM      7  C   UNL     1      -5.565   1.223  -4.090  0.00  0.00    +0.168 A 
ATOM      8  O   UNL     1      -4.318   1.637  -4.378  0.00  0.00    -0.354 OA
ATOM      9  N   UNL     1      -3.525   1.286  -3.537  0.00  0.00    -0.073 NA
BRANCH   7  10
ATOM     10  C   UNL     1      -6.785   1.465  -4.889  0.00  0.00    +0.020 A 
ATOM     11  C   UNL     1      -8.018   0.969  -4.459  0.00  0.00    +0.012 A 
ATOM     12  C   UNL     1      -9.145   1.200  -5.215  0.00  0.00    +0.004 A 
ATOM     13  C   UNL     1      -9.070   1.922  -6.401  0.00  0.00    -0.044 A 
ATOM     14  C   UNL     1      -7.857   2.419  -6.828  0.00  0.00    -0.044 A 
ATOM     15  C   UNL     1      -6.716   2.195  -6.073  0.00  0.00    +0.015 A 
ATOM     16  C   UNL     1      -7.710   3.217  -8.097  0.00  0.00    +0.035 C 
ATOM     17  C   UNL     1      -8.919   3.009  -9.006  0.00  0.00    +0.005 C 
ATOM     18  C   UNL     1     -10.190   3.259  -8.185  0.00  0.00    +0.005 C 
ATOM     19  C   UNL     1     -10.345   2.120  -7.179  0.00  0.00    +0.035 C 
ENDBRANCH   7  10
ENDBRANCH   2   5
BRANCH   1  20
ATOM     20  C   UNL     1      -1.470  -0.420  -0.027  0.00  0.00    +0.097 C 
BRANCH  20  21
ATOM     21  C   UNL     1       0.001  -0.002   0.004  0.00  0.00    +0.016 C 
BRANCH  21  22
ATOM     22  N   UNL     1       0.640  -0.361  -1.270  0.00  0.00    +0.387 N 
ATOM     23  C   UNL     1       0.546  -1.805  -1.516  0.00  0.00    -0.078 C 
ATOM     24  C   UNL     1       1.089  -2.122  -2.912  0.00  0.00    -0.019 C 
ATOM     25  C   UNL     1       2.547  -1.663  -3.003  0.00  0.00    -0.004 C 
ATOM     26  C   UNL     1       2.623  -0.165  -2.695  0.00  0.00    -0.019 C 
ATOM     27  C   UNL     1       2.035   0.095  -1.306  0.00  0.00    -0.078 C 
ATOM     28  H   UNL     1       0.098   0.153  -2.078  0.00  0.00    -0.081 HD
ENDBRANCH  21  22
BRANCH  21  31
ATOM     29  C   UNL     1       0.348   3.495   1.115  0.00  0.00    +0.041 A 
ATOM     30  C   UNL     1       0.348   2.106   1.378  0.00  0.00    +0.043 A 
ATOM     31  C   UNL     1       0.095   1.488   0.210  0.00  0.00    +0.093 A 
ATOM     32  O   UNL     1      -0.065   2.425  -0.739  0.00  0.00    -0.469 OA
ATOM     33  C   UNL     1       0.088   3.643  -0.196  0.00  0.00    +0.195 A 
ENDBRANCH  21  31
ENDBRANCH  20  21
ENDBRANCH   1  20
TORSDOF 6
