REMARK  Name = ZINC51687842
REMARK  5 active torsions:
REMARK  status: ('A' for Active; 'I' for Inactive)
REMARK    1  A    between atoms: C_4  and  C_6
REMARK    2  A    between atoms: C_4  and  N_23
REMARK    3  A    between atoms: C_6  and  N_7
REMARK    4  A    between atoms: C_14  and  C_17
REMARK    5  A    between atoms: N_19  and  C_20
REMARK                            x       y       z     vdW  Elec       q    Type
REMARK                         _______ _______ _______ _____ _____    ______ ____
ROOT
ATOM      1  N   UNL     1       0.898  -2.610  -1.686  0.00  0.00    -0.301 N 
ATOM      2  C   UNL     1       0.938  -3.524  -2.676  0.00  0.00    +0.302 C 
ATOM      3  O   UNL     1       1.288  -3.196  -3.793  0.00  0.00    -0.253 OA
ATOM      4  N   UNL     1       0.588  -4.802  -2.428  0.00  0.00    -0.285 N 
ATOM      5  C   UNL     1       0.735  -5.833  -3.464  0.00  0.00    +0.109 C 
ATOM      6  C   UNL     1       1.557  -6.993  -2.893  0.00  0.00    +0.020 C 
ATOM      7  C   UNL     1       0.903  -7.489  -1.601  0.00  0.00    +0.016 C 
ATOM      8  C   UNL     1       0.883  -6.357  -0.571  0.00  0.00    +0.092 C 
ATOM      9  C   UNL     1       0.059  -5.191  -1.113  0.00  0.00    +0.122 C 
ATOM     10  H   UNL     1       0.552  -2.855  -0.814  0.00  0.00    +0.150 HD
ENDROOT
BRANCH   8  11
ATOM     11  C   UNL     1       0.270  -6.856   0.712  0.00  0.00    +0.218 C 
ATOM     12  O   UNL     1      -0.114  -8.004   0.795  0.00  0.00    -0.275 OA
ATOM     13  N   UNL     1       0.148  -6.027   1.768  0.00  0.00    -0.312 N 
ATOM     14  H   UNL     1       0.455  -5.109   1.702  0.00  0.00    +0.149 HD
BRANCH  13  15
ATOM     15  C   UNL     1      -0.449  -6.512   3.015  0.00  0.00    +0.073 C 
ATOM     16  C   UNL     1      -1.455  -5.599   3.718  0.00  0.00    +0.024 C 
ATOM     17  C   UNL     1      -0.058  -5.797   4.310  0.00  0.00    +0.024 C 
ENDBRANCH  13  15
ENDBRANCH   8  11
BRANCH   1  18
ATOM     18  C   UNL     1       1.379  -1.248  -1.928  0.00  0.00    +0.094 C 
BRANCH  18  22
ATOM     19  C   UNL     1      -0.334   1.290  -0.133  0.00  0.00    -0.001 C 
ATOM     20  C   UNL     1       1.089   1.877   0.047  0.00  0.00    -0.001 C 
ATOM     21  C   UNL     1       1.957   0.945  -0.834  0.00  0.00    -0.010 C 
ATOM     22  C   UNL     1       1.345  -0.455  -0.620  0.00  0.00    -0.050 C 
ATOM     23  C   UNL     1      -0.111  -0.235  -0.174  0.00  0.00    -0.010 C 
BRANCH  22  24
ATOM     24  N   UNL     1       2.088  -1.175   0.424  0.00  0.00    +0.386 N 
ATOM     25  C   UNL     1       2.067  -0.386   1.658  0.00  0.00    -0.067 C 
ATOM     26  C   UNL     1       2.498  -1.260   2.842  0.00  0.00    +0.050 C 
ATOM     27  S   UNL     1       4.208  -1.811   2.551  0.00  0.00    -0.164 S 
ATOM     28  C   UNL     1       4.135  -2.458   0.851  0.00  0.00    +0.050 C 
ATOM     29  C   UNL     1       3.459  -1.405  -0.035  0.00  0.00    -0.067 C 
ATOM     30  H   UNL     1       1.642  -2.064   0.594  0.00  0.00    -0.081 HD
ENDBRANCH  22  24
ENDBRANCH  18  22
ENDBRANCH   1  18
TORSDOF 5
