REMARK  Name = ZINC08782380
REMARK  8 active torsions:
REMARK  status: ('A' for Active; 'I' for Inactive)
REMARK    1  A    between atoms: C_1  and  C_2
REMARK    2  A    between atoms: C_7  and  N_8
REMARK    3  A    between atoms: C_9  and  C_11
REMARK    4  A    between atoms: C_16  and  N_17
REMARK    5  A    between atoms: C_18  and  C_20
REMARK    6  A    between atoms: N_25  and  C_27
REMARK    7  A    between atoms: C_30  and  O_33
REMARK    8  A    between atoms: O_33  and  C_34
REMARK                            x       y       z     vdW  Elec       q    Type
REMARK                         _______ _______ _______ _____ _____    ______ ____
ROOT
ATOM      1  N   UNL     1       0.474   0.331   2.913  0.00  0.00    -0.285 N 
ATOM      2  C   UNL     1      -0.689   0.801   2.419  0.00  0.00    +0.222 C 
ATOM      3  O   UNL     1      -1.743   0.355   2.821  0.00  0.00    -0.275 OA
ATOM      4  H   UNL     1       1.313   0.740   2.651  0.00  0.00    +0.155 HD
ENDROOT
BRANCH   1  10
ATOM      5  C   UNL     1       1.416  -0.807   4.834  0.00  0.00    +0.058 A 
ATOM      6  C   UNL     1       1.398  -1.887   5.720  0.00  0.00    +0.015 A 
ATOM      7  C   UNL     1       0.461  -2.886   5.567  0.00  0.00    +0.001 A 
ATOM      8  C   UNL     1      -0.468  -2.823   4.541  0.00  0.00    +0.002 A 
ATOM      9  C   UNL     1      -0.466  -1.760   3.661  0.00  0.00    +0.024 A 
ATOM     10  C   UNL     1       0.470  -0.744   3.800  0.00  0.00    +0.046 A 
BRANCH   5  12
ATOM     11  N   UNL     1       3.261   0.251   6.041  0.00  0.00    -0.281 N 
ATOM     12  C   UNL     1       2.419   0.263   4.989  0.00  0.00    +0.250 C 
ATOM     13  O   UNL     1       2.487   1.156   4.166  0.00  0.00    -0.270 OA
ATOM     14  H   UNL     1       3.246  -0.492   6.665  0.00  0.00    +0.155 HD
BRANCH  11  21
ATOM     15  C   UNL     1       4.187   0.763   8.682  0.00  0.00    +0.045 C 
ATOM     16  C   UNL     1       4.633   1.593   7.506  0.00  0.00    -0.029 A 
ATOM     17  C   UNL     1       5.517   2.638   7.692  0.00  0.00    +0.005 A 
ATOM     18  C   UNL     1       5.926   3.400   6.614  0.00  0.00    +0.000 A 
ATOM     19  C   UNL     1       5.453   3.119   5.345  0.00  0.00    +0.002 A 
ATOM     20  C   UNL     1       4.573   2.072   5.151  0.00  0.00    +0.023 A 
ATOM     21  C   UNL     1       4.155   1.308   6.233  0.00  0.00    +0.037 A 
ENDBRANCH  11  21
ENDBRANCH   5  12
ENDBRANCH   1  10
BRANCH   2  22
ATOM     22  C   UNL     1      -0.679   1.880   1.368  0.00  0.00    +0.102 C 
ATOM     23  C   UNL     1       0.042   1.399   0.087  0.00  0.00    +0.110 C 
ATOM     24  C   UNL     1      -0.750   2.018  -1.043  0.00  0.00    +0.221 C 
ATOM     25  O   UNL     1      -0.363   2.122  -2.188  0.00  0.00    -0.275 OA
ATOM     26  N   UNL     1      -1.947   2.435  -0.595  0.00  0.00    -0.271 N 
ATOM     27  C   UNL     1      -2.108   2.153   0.836  0.00  0.00    +0.127 C 
BRANCH  26  28
ATOM     28  C   UNL     1      -2.916   3.060  -1.391  0.00  0.00    +0.036 A 
ATOM     29  C   UNL     1      -2.624   3.390  -2.708  0.00  0.00    +0.027 A 
ATOM     30  C   UNL     1      -3.582   4.001  -3.494  0.00  0.00    +0.047 A 
ATOM     31  C   UNL     1      -4.830   4.294  -2.965  0.00  0.00    +0.120 A 
ATOM     32  C   UNL     1      -5.120   3.969  -1.648  0.00  0.00    +0.047 A 
ATOM     33  C   UNL     1      -4.165   3.354  -0.862  0.00  0.00    +0.027 A 
BRANCH  31  34
ATOM     34  O   UNL     1      -5.770   4.901  -3.738  0.00  0.00    -0.495 OA
ATOM     35  C   UNL     1      -5.404   5.206  -5.085  0.00  0.00    +0.277 C 
ENDBRANCH  31  34
ENDBRANCH  26  28
ENDBRANCH   2  22
TORSDOF 6
