REMARK  Name = ZINC32908622
REMARK  11 active torsions:
REMARK  status: ('A' for Active; 'I' for Inactive)
REMARK    1  A    between atoms: C_1  and  C_2
REMARK    2  A    between atoms: C_2  and  C_3
REMARK    3  A    between atoms: C_2  and  C_4
REMARK    4  A    between atoms: C_4  and  C_6
REMARK    5  A    between atoms: C_4  and  N_19
REMARK    6  A    between atoms: N_8  and  C_9
REMARK    7  A    between atoms: C_9  and  C_10
REMARK    8  A    between atoms: C_10  and  N_11
REMARK    9  A    between atoms: C_12  and  C_14
REMARK   10  A    between atoms: N_19  and  C_20
REMARK   11  A    between atoms: C_23  and  C_27
REMARK                            x       y       z     vdW  Elec       q    Type
REMARK                         _______ _______ _______ _____ _____    ______ ____
ROOT
ATOM      1  C   UNL     1      -1.330   1.944   0.019  0.00  0.00    +0.159 C 
ENDROOT
BRANCH   1   2
ATOM      2  C   UNL     1      -0.014   1.209   0.009  0.00  0.00    +0.234 C 
ATOM      3  O   UNL     1       0.002  -0.004   0.002  0.00  0.00    -0.274 OA
ATOM      4  N   UNL     1       1.143   1.898   0.001  0.00  0.00    -0.312 N 
ATOM      5  H   UNL     1       1.129   2.998   0.007  0.00  0.00    +0.149 HD
BRANCH   4   6
ATOM      6  C   UNL     1       2.422   1.183  -0.015  0.00  0.00    +0.123 C 
BRANCH   6   7
ATOM      7  C   UNL     1       3.571   2.193  -0.020  0.00  0.00    +0.123 C 
BRANCH   7   8
ATOM      8  N   UNL     1       4.850   1.478  -0.036  0.00  0.00    -0.307 N 
ATOM      9  C   UNL     1       6.008   2.168  -0.044  0.00  0.00    +0.279 C 
ATOM     10  O   UNL     1       5.991   3.385  -0.037  0.00  0.00    -0.267 OA
ATOM     11  H   UNL     1       4.865   0.378  -0.042  0.00  0.00    +0.149 HD
BRANCH   9  12
ATOM     12  C   UNL     1       7.287   1.452  -0.060  0.00  0.00    +0.189 A 
ATOM     13  C   UNL     1       8.527   2.024  -0.069  0.00  0.00    +0.054 A 
ATOM     14  C   UNL     1       9.457   0.973  -0.083  0.00  0.00    +0.042 A 
ATOM     15  C   UNL     1       8.753  -0.180  -0.082  0.00  0.00    +0.196 A 
ATOM     16  O   UNL     1       7.447   0.112  -0.062  0.00  0.00    -0.458 OA
ENDBRANCH   9  12
ENDBRANCH   7   8
ENDBRANCH   6   7
ENDBRANCH   4   6
ENDBRANCH   1   2
BRANCH   1  18
ATOM     17  C   UNL     1      -1.467   1.949  -2.476  0.00  0.00    +0.009 C 
ATOM     18  C   UNL     1      -1.429   2.829  -1.225  0.00  0.00    +0.012 C 
ATOM     19  C   UNL     1      -2.705   3.669  -1.153  0.00  0.00    +0.009 C 
ENDBRANCH   1  18
BRANCH   1  20
ATOM     20  N   UNL     1      -2.430   0.977   0.019  0.00  0.00    -0.332 N 
ATOM     21  H   UNL     1      -2.275  -0.032  -0.390  0.00  0.00    +0.147 HD
BRANCH  20  22
ATOM     22  C   UNL     1      -3.676   1.337   0.538  0.00  0.00    +0.046 A 
ATOM     23  C   UNL     1      -3.872   2.609   1.060  0.00  0.00    +0.025 A 
ATOM     24  C   UNL     1      -5.107   2.964   1.567  0.00  0.00    +0.014 A 
ATOM     25  C   UNL     1      -6.145   2.050   1.567  0.00  0.00    +0.056 A 
ATOM     26  C   UNL     1      -5.953   0.781   1.054  0.00  0.00    +0.034 A 
ATOM     27  C   UNL     1      -4.722   0.421   0.539  0.00  0.00    +0.062 A 
ATOM     28 CL   UNL     1      -4.481  -1.173  -0.106  0.00  0.00    -0.082 Cl
BRANCH  25  29
ATOM     29  C   UNL     1      -7.489   2.439   2.127  0.00  0.00    +0.417 C 
ATOM     30  F   UNL     1      -7.531   2.134   3.492  0.00  0.00    -0.166 F 
ATOM     31  F   UNL     1      -7.689   3.812   1.950  0.00  0.00    -0.166 F 
ATOM     32  F   UNL     1      -8.495   1.731   1.461  0.00  0.00    -0.166 F 
ENDBRANCH  25  29
ENDBRANCH  20  22
ENDBRANCH   1  20
TORSDOF 9
