REMARK  Name = ZINC59502656
REMARK  7 active torsions:
REMARK  status: ('A' for Active; 'I' for Inactive)
REMARK    1  A    between atoms: C_4  and  C_7
REMARK    2  A    between atoms: C_10  and  S_18
REMARK    3  A    between atoms: N_11  and  C_12
REMARK    4  A    between atoms: S_18  and  C_19
REMARK    5  A    between atoms: C_22  and  C_24
REMARK    6  A    between atoms: N_25  and  N_26
REMARK    7  A    between atoms: C_27  and  C_29
REMARK                            x       y       z     vdW  Elec       q    Type
REMARK                         _______ _______ _______ _____ _____    ______ ____
ROOT
ATOM      1  S   UNL     1       6.089  -3.755   0.321  0.00  0.00    -0.012 S 
ENDROOT
BRANCH   1   5
ATOM      2  C   UNL     1       3.695  -0.684  -0.038  0.00  0.00    +0.169 A 
ATOM      3  N   UNL     1       4.871  -0.170  -0.316  0.00  0.00    -0.128 NA
ATOM      4  N   UNL     1       5.778  -1.076  -0.237  0.00  0.00    -0.121 NA
ATOM      5  C   UNL     1       5.239  -2.228   0.095  0.00  0.00    +0.204 A 
ATOM      6  N   UNL     1       3.894  -2.019   0.239  0.00  0.00    -0.270 N 
BRANCH   2  10
ATOM      7  C   UNL     1      -0.017   1.379   0.010  0.00  0.00    +0.000 A 
ATOM      8  C   UNL     1       1.168   2.094   0.002  0.00  0.00    +0.001 A 
ATOM      9  C   UNL     1       2.377   1.429  -0.013  0.00  0.00    +0.011 A 
ATOM     10  C   UNL     1       2.404   0.034  -0.021  0.00  0.00    +0.020 A 
ATOM     11  C   UNL     1       1.204  -0.681  -0.013  0.00  0.00    +0.011 A 
ATOM     12  C   UNL     1       0.002  -0.004   0.002  0.00  0.00    +0.001 A 
ENDBRANCH   2  10
BRANCH   6  13
ATOM     13  C   UNL     1       2.922  -2.965   0.592  0.00  0.00    +0.051 A 
ATOM     14  C   UNL     1       2.223  -2.833   1.784  0.00  0.00    +0.026 A 
ATOM     15  C   UNL     1       1.266  -3.767   2.129  0.00  0.00    +0.002 A 
ATOM     16  C   UNL     1       1.002  -4.832   1.288  0.00  0.00    +0.000 A 
ATOM     17  C   UNL     1       1.696  -4.966   0.099  0.00  0.00    +0.002 A 
ATOM     18  C   UNL     1       2.651  -4.032  -0.254  0.00  0.00    +0.026 A 
ENDBRANCH   6  13
ENDBRANCH   1   5
BRANCH   1  19
ATOM     19  C   UNL     1       7.775  -3.355  -0.000  0.00  0.00    +0.169 A 
ATOM     20  C   UNL     1       8.819  -4.225   0.046  0.00  0.00    +0.057 A 
ATOM     21  C   UNL     1       9.976  -3.497  -0.274  0.00  0.00    +0.052 A 
ATOM     22  C   UNL     1       9.582  -2.208  -0.501  0.00  0.00    +0.149 A 
ATOM     23  O   UNL     1       8.243  -2.141  -0.337  0.00  0.00    -0.447 OA
BRANCH  22  24
ATOM     24  C   UNL     1      10.458  -1.095  -0.866  0.00  0.00    +0.176 C 
ATOM     25  N   UNL     1       9.958   0.093  -1.056  0.00  0.00    -0.184 NA
BRANCH  25  26
ATOM     26  N   UNL     1      10.797   1.159  -1.405  0.00  0.00    -0.203 N 
ATOM     27  C   UNL     1      10.279   2.388  -1.603  0.00  0.00    +0.263 C 
ATOM     28  O   UNL     1       9.083   2.571  -1.478  0.00  0.00    -0.268 OA
ATOM     29  H   UNL     1      11.751   1.013  -1.505  0.00  0.00    +0.178 HD
BRANCH  27  30
ATOM     30  C   UNL     1      11.165   3.512  -1.971  0.00  0.00    +0.041 A 
ATOM     31  C   UNL     1      12.537   3.304  -2.121  0.00  0.00    +0.013 A 
ATOM     32  C   UNL     1      13.359   4.357  -2.465  0.00  0.00    +0.004 A 
ATOM     33  C   UNL     1      12.827   5.619  -2.662  0.00  0.00    +0.038 A 
ATOM     34  C   UNL     1      11.466   5.834  -2.514  0.00  0.00    +0.124 A 
ATOM     35  C   UNL     1      10.632   4.785  -2.176  0.00  0.00    +0.051 A 
ATOM     36  F   UNL     1      10.954   7.069  -2.707  0.00  0.00    -0.205 F 
ENDBRANCH  27  30
ENDBRANCH  25  26
ENDBRANCH  22  24
ENDBRANCH   1  19
TORSDOF 7
