REMARK  Name = ZINC36207218
REMARK  16 active torsions:
REMARK  status: ('A' for Active; 'I' for Inactive)
REMARK    1  A    between atoms: C_1  and  C_2
REMARK    2  A    between atoms: C_2  and  O_3
REMARK    3  A    between atoms: O_3  and  C_4
REMARK    4  A    between atoms: C_4  and  C_6
REMARK    5  A    between atoms: C_7  and  C_35
REMARK    6  A    between atoms: C_13  and  C_17
REMARK    7  A    between atoms: C_17  and  N_18
REMARK    8  A    between atoms: N_18  and  C_19
REMARK    9  A    between atoms: N_18  and  C_32
REMARK   10  A    between atoms: C_19  and  C_20
REMARK   11  A    between atoms: C_20  and  C_22
REMARK   12  A    between atoms: C_20  and  O_31
REMARK   13  A    between atoms: C_22  and  O_23
REMARK   14  A    between atoms: O_23  and  C_24
REMARK   15  A    between atoms: C_32  and  C_33
REMARK   16  A    between atoms: C_32  and  C_34
REMARK                            x       y       z     vdW  Elec       q    Type
REMARK                         _______ _______ _______ _____ _____    ______ ____
ROOT
ATOM      1  C   UNL     1       4.988  -4.266  -7.443  0.00  0.00    -0.003 C 
ENDROOT
BRANCH   1   9
ATOM      2  C   UNL     1       6.081  -2.253  -1.547  0.00  0.00    +0.102 A 
ATOM      3  C   UNL     1       5.751  -3.532  -1.892  0.00  0.00    -0.015 A 
ATOM      4  C   UNL     1       5.533  -3.857  -3.232  0.00  0.00    +0.076 A 
ATOM      5  C   UNL     1       5.170  -5.161  -3.832  0.00  0.00    +0.260 A 
ATOM      6  O   UNL     1       5.018  -6.149  -3.136  0.00  0.00    -0.267 OA
ATOM      7  N   UNL     1       5.012  -5.226  -5.169  0.00  0.00    -0.312 N 
ATOM      8  H   UNL     1       4.774  -6.073  -5.578  0.00  0.00    +0.170 HD
ATOM      9  C   UNL     1       5.178  -4.133  -5.954  0.00  0.00    +0.094 A 
ATOM     10  N   UNL     1       5.498  -2.969  -5.457  0.00  0.00    -0.229 NA
ATOM     11  C   UNL     1       5.678  -2.795  -4.154  0.00  0.00    +0.116 A 
ATOM     12  S   UNL     1       6.097  -1.413  -3.122  0.00  0.00    -0.062 S 
ATOM     13  C   UNL     1       5.623  -4.592  -0.828  0.00  0.00    +0.046 C 
BRANCH   2  14
ATOM     14  C   UNL     1       6.350  -1.706  -0.216  0.00  0.00    +0.346 C 
ATOM     15  O   UNL     1       6.295  -2.428   0.761  0.00  0.00    -0.244 OA
BRANCH  14  16
ATOM     16  O   UNL     1       6.658  -0.400  -0.073  0.00  0.00    -0.461 OA
BRANCH  16  18
ATOM     17  C   UNL     1       7.239   1.560   1.216  0.00  0.00    +0.048 C 
ATOM     18  C   UNL     1       6.908   0.066   1.254  0.00  0.00    +0.229 C 
ENDBRANCH  16  18
ENDBRANCH  14  16
ENDBRANCH   2  14
ENDBRANCH   1   9
BRANCH   1  19
ATOM     19  N   UNL     1       5.045  -2.937  -8.064  0.00  0.00    +0.388 N 
ATOM     20  H   UNL     1       5.700  -2.357  -7.560  0.00  0.00    -0.081 HD
BRANCH  19  21
ATOM     21  C   UNL     1       3.712  -2.320  -8.023  0.00  0.00    -0.074 C 
ATOM     22  C   UNL     1       2.715  -3.208  -8.768  0.00  0.00    -0.014 C 
ATOM     23  C   UNL     1       3.268  -2.164  -6.567  0.00  0.00    -0.014 C 
ENDBRANCH  19  21
BRANCH  19  24
ATOM     24  C   UNL     1       5.481  -3.067  -9.461  0.00  0.00    -0.043 C 
BRANCH  24  25
ATOM     25  C   UNL     1       5.693  -1.676 -10.061  0.00  0.00    +0.135 C 
BRANCH  25  26
ATOM     26  O   UNL     1       4.430  -1.027 -10.218  0.00  0.00    -0.390 OA
ATOM     27  H   UNL     1       3.794  -1.527 -10.749  0.00  0.00    +0.210 HD
ENDBRANCH  25  26
BRANCH  25  28
ATOM     28  C   UNL     1       6.372  -1.807 -11.426  0.00  0.00    +0.258 C 
BRANCH  28  29
ATOM     29  O   UNL     1       6.676  -0.507 -11.934  0.00  0.00    -0.489 OA
BRANCH  29  30
ATOM     30  C   UNL     1       7.287  -0.445 -13.147  0.00  0.00    +0.121 A 
ATOM     31  C   UNL     1       7.582  -1.613 -13.836  0.00  0.00    +0.047 A 
ATOM     32  C   UNL     1       8.202  -1.548 -15.068  0.00  0.00    +0.023 A 
ATOM     33  C   UNL     1       8.530  -0.320 -15.615  0.00  0.00    +0.041 A 
ATOM     34  C   UNL     1       8.237   0.845 -14.930  0.00  0.00    +0.023 A 
ATOM     35  C   UNL     1       7.610   0.785 -13.700  0.00  0.00    +0.047 A 
ATOM     36 CL   UNL     1       9.310  -0.241 -17.164  0.00  0.00    -0.084 Cl
ENDBRANCH  29  30
ENDBRANCH  28  29
ENDBRANCH  25  28
ENDBRANCH  24  25
ENDBRANCH  19  24
ENDBRANCH   1  19
TORSDOF 12
