REMARK  Name = ZINC17988281
REMARK  7 active torsions:
REMARK  status: ('A' for Active; 'I' for Inactive)
REMARK    1  A    between atoms: C_1  and  C_2
REMARK    2  A    between atoms: C_5  and  C_8
REMARK    3  A    between atoms: C_11  and  C_13
REMARK    4  A    between atoms: C_13  and  C_15
REMARK    5  A    between atoms: C_13  and  S_16
REMARK    6  A    between atoms: S_16  and  C_17
REMARK    7  A    between atoms: C_20  and  C_23
REMARK                            x       y       z     vdW  Elec       q    Type
REMARK                         _______ _______ _______ _____ _____    ______ ____
ROOT
ATOM      1  C   UNL     1      -0.729   1.579   1.267  0.00  0.00    +0.139 C 
ATOM      2  C   UNL     1      -0.013   1.086   0.008  0.00  0.00    +0.029 C 
ENDROOT
BRANCH   1   6
ATOM      3  C   UNL     1      -0.329   5.151   1.725  0.00  0.00    +0.248 A 
ATOM      4  N   UNL     1      -1.263   5.084   0.806  0.00  0.00    -0.107 NA
ATOM      5  N   UNL     1      -1.507   3.850   0.538  0.00  0.00    -0.111 NA
ATOM      6  C   UNL     1      -0.749   3.086   1.275  0.00  0.00    +0.231 A 
ATOM      7  O   UNL     1       0.014   3.886   2.039  0.00  0.00    -0.419 OA
BRANCH   3  12
ATOM      8  C   UNL     1       1.890   9.952   3.994  0.00  0.00    +0.044 C 
ATOM      9  C   UNL     1       1.310   8.695   3.400  0.00  0.00    -0.050 A 
ATOM     10  C   UNL     1       0.324   8.782   2.433  0.00  0.00    +0.004 A 
ATOM     11  C   UNL     1      -0.213   7.635   1.885  0.00  0.00    +0.013 A 
ATOM     12  C   UNL     1       0.241   6.385   2.308  0.00  0.00    +0.038 A 
ATOM     13  C   UNL     1       1.232   6.304   3.288  0.00  0.00    +0.013 A 
ATOM     14  C   UNL     1       1.764   7.459   3.824  0.00  0.00    +0.004 A 
ENDBRANCH   3  12
ENDBRANCH   1   6
BRANCH   1  15
ATOM     15  S   UNL     1      -2.427   0.953   1.280  0.00  0.00    -0.075 S 
BRANCH  15  16
ATOM     16  C   UNL     1      -2.114  -0.776   1.419  0.00  0.00    +0.167 A 
ATOM     17  N   UNL     1      -3.062  -1.751   1.479  0.00  0.00    -0.333 N 
ATOM     18  H   UNL     1      -4.053  -1.621   1.456  0.00  0.00    +0.168 HD
ATOM     19  C   UNL     1      -2.391  -2.958   1.580  0.00  0.00    +0.067 A 
ATOM     20  C   UNL     1      -1.064  -2.665   1.585  0.00  0.00    +0.139 A 
ATOM     21  N   UNL     1      -0.928  -1.337   1.487  0.00  0.00    -0.230 NA
BRANCH  19  22
ATOM     22  C   UNL     1      -2.999  -4.302   1.669  0.00  0.00    -0.000 A 
ATOM     23  C   UNL     1      -4.387  -4.445   1.656  0.00  0.00    +0.011 A 
ATOM     24  C   UNL     1      -4.949  -5.703   1.736  0.00  0.00    +0.016 A 
ATOM     25  C   UNL     1      -4.138  -6.821   1.838  0.00  0.00    +0.018 A 
ATOM     26  C   UNL     1      -2.760  -6.685   1.856  0.00  0.00    +0.016 A 
ATOM     27  C   UNL     1      -2.187  -5.433   1.773  0.00  0.00    +0.011 A 
ATOM     28 BR   UNL     1      -4.916  -8.540   1.954  0.00  0.00    -0.050 Br
ENDBRANCH  19  22
ENDBRANCH  15  16
ENDBRANCH   1  15
TORSDOF 5
