REMARK  Name = ZINC11855850
REMARK  3 active torsions:
REMARK  status: ('A' for Active; 'I' for Inactive)
REMARK    1  A    between atoms: C_10  and  C_12
REMARK    2  A    between atoms: N_14  and  C_15
REMARK    3  A    between atoms: C_17  and  C_31
REMARK                            x       y       z     vdW  Elec       q    Type
REMARK                         _______ _______ _______ _____ _____    ______ ____
ROOT
ATOM      1  C   UNL     1      -0.125   4.159   0.020  0.00  0.00    +0.133 A 
ATOM      2  C   UNL     1       0.234   5.468   0.029  0.00  0.00    +0.074 A 
ATOM      3  C   UNL     1       1.644   5.529   0.016  0.00  0.00    +0.102 A 
ATOM      4  N   UNL     1       2.109   4.296   0.004  0.00  0.00    -0.162 NA
ATOM      5  N   UNL     1       1.021   3.414   0.011  0.00  0.00    -0.185 N 
ATOM      6  C   UNL     1       1.094   2.035   0.003  0.00  0.00    +0.234 A 
ATOM      7  N   UNL     1       2.312   1.431  -0.012  0.00  0.00    -0.291 N 
ATOM      8  H   UNL     1       3.121   1.966  -0.017  0.00  0.00    +0.172 HD
ATOM      9  C   UNL     1       2.388   0.084  -0.020  0.00  0.00    +0.256 A 
ATOM     10  O   UNL     1       3.472  -0.477  -0.033  0.00  0.00    -0.267 OA
ATOM     11  C   UNL     1       1.195  -0.664  -0.013  0.00  0.00    +0.038 A 
ATOM     12  C   UNL     1       0.002  -0.004   0.002  0.00  0.00    +0.053 A 
ATOM     13  N   UNL     1      -0.016   1.331   0.009  0.00  0.00    -0.217 NA
ATOM     14  C   UNL     1      -1.139  -1.000   0.008  0.00  0.00    +0.056 C 
ATOM     15  C   UNL     1      -0.509  -2.336  -0.442  0.00  0.00    +0.011 C 
ATOM     16  C   UNL     1       0.965  -2.158  -0.019  0.00  0.00    +0.043 C 
ENDROOT
BRANCH   3  17
ATOM     17  C   UNL     1       2.458   6.763   0.013  0.00  0.00    +0.039 A 
ATOM     18  C   UNL     1       3.821   6.897   0.000  0.00  0.00    +0.018 A 
ATOM     19  C   UNL     1       4.361   8.165   0.001  0.00  0.00    +0.008 A 
ATOM     20  C   UNL     1       3.530   9.238   0.015  0.00  0.00    +0.046 A 
ATOM     21  S   UNL     1       1.920   8.465   0.019  0.00  0.00    -0.095 S 
ENDBRANCH   3  17
BRANCH   1  24
ATOM     22  C   UNL     1      -2.470   4.516   0.032  0.00  0.00    +0.285 C 
ATOM     23  O   UNL     1      -2.276   5.715   0.039  0.00  0.00    -0.266 OA
ATOM     24  N   UNL     1      -1.425   3.664   0.023  0.00  0.00    -0.264 N 
ATOM     25  H   UNL     1      -1.580   2.707   0.018  0.00  0.00    +0.157 HD
BRANCH  22  35
ATOM     26  C   UNL     1      -7.780   0.920   0.035  0.00  0.00    +0.001 A 
ATOM     27  C   UNL     1      -6.641   0.129   0.025  0.00  0.00    +0.004 A 
ATOM     28  C   UNL     1      -5.386   0.700   0.023  0.00  0.00    +0.047 A 
ATOM     29  C   UNL     1      -5.256   2.085   0.030  0.00  0.00    +0.139 A 
ATOM     30  C   UNL     1      -6.415   2.879   0.040  0.00  0.00    +0.064 A 
ATOM     31  C   UNL     1      -7.676   2.284   0.043  0.00  0.00    +0.015 A 
ATOM     32  C   UNL     1      -6.260   4.347   0.048  0.00  0.00    +0.193 A 
ATOM     33  O   UNL     1      -7.225   5.091   0.056  0.00  0.00    -0.287 OA
ATOM     34  C   UNL     1      -4.885   4.868   0.045  0.00  0.00    +0.103 A 
ATOM     35  C   UNL     1      -3.854   3.989   0.035  0.00  0.00    +0.194 A 
ATOM     36  O   UNL     1      -4.038   2.661   0.023  0.00  0.00    -0.450 OA
ENDBRANCH  22  35
ENDBRANCH   1  24
TORSDOF 3
