REMARK  Name = ZINC64839575
REMARK  7 active torsions:
REMARK  status: ('A' for Active; 'I' for Inactive)
REMARK    1  A    between atoms: C_1  and  C_2
REMARK    2  A    between atoms: C_2  and  C_4
REMARK    3  A    between atoms: C_2  and  N_19
REMARK    4  A    between atoms: N_6  and  C_7
REMARK    5  A    between atoms: C_7  and  C_8
REMARK    6  A    between atoms: C_8  and  C_9
REMARK    7  A    between atoms: N_29  and  C_34
REMARK                            x       y       z     vdW  Elec       q    Type
REMARK                         _______ _______ _______ _____ _____    ______ ____
ROOT
ATOM      1  C   UNL     1      -0.019   1.526   0.010  0.00  0.00    +0.038 C 
ATOM      2  C   UNL     1       0.002  -0.004   0.002  0.00  0.00    +0.157 C 
ENDROOT
BRANCH   2   3
ATOM      3  N   UNL     1       0.711  -0.489   1.189  0.00  0.00    -0.303 N 
ATOM      4  C   UNL     1       2.042  -0.204   1.519  0.00  0.00    +0.039 A 
ATOM      5  C   UNL     1       2.935   0.687   0.934  0.00  0.00    +0.024 A 
ATOM      6  C   UNL     1       4.214   0.826   1.436  0.00  0.00    +0.002 A 
ATOM      7  C   UNL     1       4.623   0.080   2.527  0.00  0.00    +0.001 A 
ATOM      8  C   UNL     1       3.756  -0.815   3.118  0.00  0.00    +0.010 A 
ATOM      9  C   UNL     1       2.462  -0.973   2.618  0.00  0.00    +0.003 A 
ATOM     10  C   UNL     1       1.356  -1.850   3.001  0.00  0.00    +0.006 C 
ATOM     11  C   UNL     1       1.277  -2.914   3.806  0.00  0.00    +0.094 C 
ATOM     12  N   UNL     1       0.008  -3.525   3.793  0.00  0.00    -0.269 N 
ATOM     13  N   UNL     1      -0.616  -3.643   2.529  0.00  0.00    -0.224 N 
ATOM     14  C   UNL     1      -0.549  -2.573   1.681  0.00  0.00    +0.256 C 
ATOM     15  O   UNL     1      -1.021  -2.606   0.565  0.00  0.00    -0.272 OA
ATOM     16  C   UNL     1       0.146  -1.343   2.224  0.00  0.00    +0.194 C 
ATOM     17  C   UNL     1      -1.310  -4.873   2.140  0.00  0.00    +0.156 C 
ATOM     18  H   UNL     1      -0.414  -3.847   4.605  0.00  0.00    +0.170 HD
ENDBRANCH   2   3
BRANCH   2  19
ATOM     19  C   UNL     1       0.707  -0.490  -1.238  0.00  0.00    +0.233 C 
ATOM     20  O   UNL     1       1.704  -1.174  -1.140  0.00  0.00    -0.274 OA
ATOM     21  N   UNL     1       0.231  -0.164  -2.456  0.00  0.00    -0.313 N 
ATOM     22  H   UNL     1      -0.566   0.383  -2.534  0.00  0.00    +0.149 HD
BRANCH  21  23
ATOM     23  C   UNL     1       0.917  -0.637  -3.661  0.00  0.00    +0.108 C 
BRANCH  23  24
ATOM     24  C   UNL     1       0.177  -0.130  -4.901  0.00  0.00    +0.052 C 
BRANCH  24  25
ATOM     25  C   UNL     1       0.882  -0.616  -6.141  0.00  0.00    -0.040 C 
ATOM     26  C   UNL     1       0.586  -1.719  -6.865  0.00  0.00    +0.000 A 
ATOM     27  C   UNL     1      -0.442  -2.756  -6.721  0.00  0.00    +0.030 A 
ATOM     28  C   UNL     1      -0.491  -3.763  -7.625  0.00  0.00    +0.042 A 
ATOM     29  C   UNL     1       0.415  -3.838  -8.693  0.00  0.00    +0.022 A 
ATOM     30  C   UNL     1       1.387  -2.922  -8.891  0.00  0.00    +0.027 A 
ATOM     31  C   UNL     1       1.529  -1.821  -8.001  0.00  0.00    +0.043 A 
ATOM     32  N   UNL     1       2.376  -0.820  -7.980  0.00  0.00    -0.380 N 
ATOM     33  C   UNL     1       2.060   0.035  -6.830  0.00  0.00    +0.144 C 
ATOM     34 CL   UNL     1      -1.705  -4.992  -7.457  0.00  0.00    -0.084 Cl
ATOM     35  H   UNL     1       3.089  -0.668  -8.620  0.00  0.00    +0.160 HD
ENDBRANCH  24  25
ENDBRANCH  23  24
ENDBRANCH  21  23
ENDBRANCH   2  19
TORSDOF 5
