REMARK  Name = ZINC07181963
REMARK  11 active torsions:
REMARK  status: ('A' for Active; 'I' for Inactive)
REMARK    1  A    between atoms: C_1  and  C_2
REMARK    2  A    between atoms: C_2  and  C_3
REMARK    3  A    between atoms: C_2  and  C_4
REMARK    4  A    between atoms: C_2  and  C_5
REMARK    5  A    between atoms: C_8  and  C_11
REMARK    6  A    between atoms: N_13  and  N_14
REMARK    7  A    between atoms: C_15  and  C_17
REMARK    8  A    between atoms: C_19  and  N_26
REMARK    9  A    between atoms: C_22  and  N_23
REMARK   10  A    between atoms: N_23  and  C_24
REMARK   11  A    between atoms: N_23  and  C_25
REMARK                            x       y       z     vdW  Elec       q    Type
REMARK                         _______ _______ _______ _____ _____    ______ ____
ROOT
ATOM      1  N   UNL     1       2.455  -4.213  -0.043  0.00  0.00    -0.230 N 
ATOM      2  C   UNL     1       3.635  -4.865  -0.058  0.00  0.00    +0.262 C 
ATOM      3  O   UNL     1       4.676  -4.237  -0.065  0.00  0.00    -0.269 OA
ATOM      4  H   UNL     1       1.624  -4.714  -0.037  0.00  0.00    +0.173 HD
ENDROOT
BRANCH   2   5
ATOM      5  C   UNL     1       3.662  -6.339  -0.065  0.00  0.00    +0.061 A 
ATOM      6  C   UNL     1       2.468  -7.065  -0.052  0.00  0.00    +0.047 A 
ATOM      7  C   UNL     1       2.500  -8.442  -0.063  0.00  0.00    +0.127 A 
ATOM      8  C   UNL     1       3.713  -9.114  -0.079  0.00  0.00    +0.034 A 
ATOM      9  C   UNL     1       4.900  -8.412  -0.087  0.00  0.00    +0.026 A 
ATOM     10  C   UNL     1       4.888  -7.022  -0.081  0.00  0.00    +0.042 A 
BRANCH  10  11
ATOM     11  N   UNL     1       6.082  -6.314  -0.090  0.00  0.00    -0.335 N 
ATOM     12  C   UNL     1       6.897  -6.640   1.088  0.00  0.00    +0.129 C 
ATOM     13  C   UNL     1       6.830  -6.558  -1.331  0.00  0.00    +0.129 C 
ENDBRANCH  10  11
BRANCH   7  14
ATOM     14  N   UNL     1       1.234  -9.208  -0.053  0.00  0.00    +0.056 N 
ATOM     15  O   UNL     1       1.259 -10.426  -0.059  0.00  0.00    -0.126 OA
ATOM     16  O   UNL     1       0.167  -8.621  -0.039  0.00  0.00    -0.126 OA
ENDBRANCH   7  14
ENDBRANCH   2   5
BRANCH   1  19
ATOM     17  C   UNL     1       1.250  -2.160  -0.021  0.00  0.00    +0.260 C 
ATOM     18  O   UNL     1       0.208  -2.788  -0.014  0.00  0.00    -0.269 OA
ATOM     19  N   UNL     1       2.429  -2.812  -0.036  0.00  0.00    -0.230 N 
ATOM     20  H   UNL     1       3.260  -2.312  -0.041  0.00  0.00    +0.173 HD
BRANCH  17  24
ATOM     21  C   UNL     1       1.170   2.086   0.002  0.00  0.00    -0.042 A 
ATOM     22  C   UNL     1      -0.017   1.375   0.010  0.00  0.00    +0.005 A 
ATOM     23  C   UNL     1       0.002  -0.004   0.002  0.00  0.00    +0.013 A 
ATOM     24  C   UNL     1       1.222  -0.682  -0.013  0.00  0.00    +0.038 A 
ATOM     25  C   UNL     1       2.416   0.041  -0.021  0.00  0.00    +0.013 A 
ATOM     26  C   UNL     1       2.383   1.420  -0.013  0.00  0.00    +0.005 A 
BRANCH  21  28
ATOM     27  C   UNL     1       0.423   4.083   1.269  0.00  0.00    +0.015 C 
ATOM     28  C   UNL     1       1.142   3.593   0.010  0.00  0.00    -0.013 C 
ATOM     29  C   UNL     1       2.575   4.130  -0.000  0.00  0.00    +0.015 C 
ATOM     30  C   UNL     1       0.400   4.096  -1.229  0.00  0.00    +0.015 C 
ENDBRANCH  21  28
ENDBRANCH  17  24
ENDBRANCH   1  19
TORSDOF 6
