REMARK  Name = ZINC09520470
REMARK  4 active torsions:
REMARK  status: ('A' for Active; 'I' for Inactive)
REMARK    1  A    between atoms: C_1  and  C_2
REMARK    2  A    between atoms: C_12  and  C_14
REMARK    3  A    between atoms: C_14  and  S_15
REMARK    4  A    between atoms: S_15  and  C_16
REMARK                            x       y       z     vdW  Elec       q    Type
REMARK                         _______ _______ _______ _____ _____    ______ ____
ROOT
ATOM      1  S   UNL     1       7.771   5.389  -0.044  0.00  0.00    -0.076 S 
ENDROOT
BRANCH   1   2
ATOM      2  C   UNL     1       9.488   5.788  -0.058  0.00  0.00    +0.198 A 
ATOM      3  N   UNL     1      10.479   4.930  -0.073  0.00  0.00    -0.120 NA
ATOM      4  N   UNL     1      11.679   5.652  -0.082  0.00  0.00    -0.109 NA
ATOM      5  C   UNL     1      11.385   6.929  -0.073  0.00  0.00    +0.237 A 
ATOM      6  N   UNL     1      10.022   7.050  -0.062  0.00  0.00    -0.260 N 
ATOM      7  C   UNL     1       9.419   8.295  -0.055  0.00  0.00    +0.037 A 
ATOM      8  C   UNL     1      10.177   9.399  -0.058  0.00  0.00    +0.037 A 
ATOM      9  C   UNL     1      11.596   9.278  -0.077  0.00  0.00    +0.256 A 
ATOM     10  O   UNL     1      12.289  10.280  -0.086  0.00  0.00    -0.267 OA
ATOM     11  N   UNL     1      12.177   8.065  -0.077  0.00  0.00    -0.291 N 
ATOM     12  H   UNL     1      13.143   7.986  -0.091  0.00  0.00    +0.172 HD
ATOM     13  C   UNL     1       9.599  10.790  -0.040  0.00  0.00    +0.042 C 
ATOM     14  C   UNL     1       8.130  10.771  -0.456  0.00  0.00    +0.005 C 
ATOM     15  C   UNL     1       7.409   9.709   0.383  0.00  0.00    +0.006 C 
ATOM     16  C   UNL     1       7.913   8.335  -0.053  0.00  0.00    +0.054 C 
ENDBRANCH   1   2
BRANCH   1  17
ATOM     17  C   UNL     1       7.742   3.576  -0.053  0.00  0.00    +0.173 C 
BRANCH  17  29
ATOM     18  C   UNL     1      -1.288  -0.783   0.011  0.00  0.00    +0.044 C 
ATOM     19  C   UNL     1       0.002  -0.004   0.002  0.00  0.00    -0.049 A 
ATOM     20  C   UNL     1      -0.017   1.383   0.010  0.00  0.00    +0.005 A 
ATOM     21  C   UNL     1       1.142   2.115   0.003  0.00  0.00    +0.029 A 
ATOM     22  C   UNL     1       2.402   1.474  -0.013  0.00  0.00    +0.080 A 
ATOM     23  C   UNL     1       2.382   0.060  -0.020  0.00  0.00    +0.041 A 
ATOM     24  C   UNL     1       1.217  -0.665  -0.013  0.00  0.00    +0.020 A 
ATOM     25  S   UNL     1       4.113  -0.342  -0.039  0.00  0.00    -0.052 S 
ATOM     26  C   UNL     1       4.733   1.335  -0.036  0.00  0.00    +0.165 A 
ATOM     27  N   UNL     1       3.627   2.042  -0.021  0.00  0.00    -0.225 NA
ATOM     28  N   UNL     1       6.046   1.775  -0.046  0.00  0.00    -0.264 N 
ATOM     29  C   UNL     1       6.314   3.096  -0.042  0.00  0.00    +0.229 C 
ATOM     30  O   UNL     1       5.405   3.899  -0.029  0.00  0.00    -0.275 OA
ATOM     31  H   UNL     1       6.773   1.133  -0.057  0.00  0.00    +0.157 HD
ENDBRANCH  17  29
ENDBRANCH   1  17
TORSDOF 3
