REMARK  Name = ZINC00486704
REMARK  5 active torsions:
REMARK  status: ('A' for Active; 'I' for Inactive)
REMARK    1  A    between atoms: C_1  and  C_2
REMARK    2  A    between atoms: C_6  and  C_7
REMARK    3  A    between atoms: N_8  and  N_9
REMARK    4  A    between atoms: C_10  and  C_12
REMARK    5  A    between atoms: C_16  and  N_18
REMARK                            x       y       z     vdW  Elec       q    Type
REMARK                         _______ _______ _______ _____ _____    ______ ____
ROOT
ATOM      1  N   UNL     1      -1.106  -0.664   0.009  0.00  0.00    -0.203 N 
ATOM      2  C   UNL     1      -1.088  -2.012   0.002  0.00  0.00    +0.263 C 
ATOM      3  O   UNL     1      -0.028  -2.605  -0.012  0.00  0.00    -0.268 OA
ATOM      4  H   UNL     1      -1.953  -0.191   0.020  0.00  0.00    +0.178 HD
ENDROOT
BRANCH   2   5
ATOM      5  C   UNL     1      -2.356  -2.767   0.010  0.00  0.00    +0.041 A 
ATOM      6  C   UNL     1      -3.577  -2.088   0.031  0.00  0.00    +0.014 A 
ATOM      7  C   UNL     1      -4.758  -2.799   0.032  0.00  0.00    +0.023 A 
ATOM      8  C   UNL     1      -4.736  -4.184   0.025  0.00  0.00    +0.071 A 
ATOM      9  C   UNL     1      -3.528  -4.864   0.010  0.00  0.00    +0.145 A 
ATOM     10  C   UNL     1      -2.340  -4.164   0.002  0.00  0.00    +0.047 A 
ATOM     11 CL   UNL     1      -6.227  -5.073   0.034  0.00  0.00    -0.081 Cl
BRANCH   9  12
ATOM     12  N   UNL     1      -3.514  -6.344   0.001  0.00  0.00    +0.058 N 
ATOM     13  O   UNL     1      -2.367  -6.991  -0.014  0.00  0.00    -0.126 OA
ATOM     14  O   UNL     1      -4.648  -7.014   0.008  0.00  0.00    -0.126 OA
ENDBRANCH   9  12
ENDBRANCH   2   5
BRANCH   1  16
ATOM     15  C   UNL     1      -0.016   1.335   0.009  0.00  0.00    +0.145 C 
ATOM     16  N   UNL     1       0.002  -0.004   0.002  0.00  0.00    -0.187 NA
BRANCH  15  22
ATOM     17  C   UNL     1       0.239   4.487   0.011  0.00  0.00    +0.045 C 
ATOM     18  C   UNL     1       1.385   3.509   0.002  0.00  0.00    -0.035 A 
ATOM     19  C   UNL     1       2.656   3.906  -0.003  0.00  0.00    +0.011 A 
ATOM     20  C   UNL     1       3.683   2.946  -0.018  0.00  0.00    +0.046 A 
ATOM     21  S   UNL     1       2.845   1.429  -0.018  0.00  0.00    -0.095 S 
ATOM     22  C   UNL     1       1.169   2.042   0.002  0.00  0.00    +0.035 A 
ENDBRANCH  15  22
ENDBRANCH   1  16
TORSDOF 4
