REMARK  Name = ZINC19742942
REMARK  4 active torsions:
REMARK  status: ('A' for Active; 'I' for Inactive)
REMARK    1  A    between atoms: C_12  and  N_17
REMARK    2  A    between atoms: N_17  and  C_18
REMARK    3  A    between atoms: C_18  and  C_19
REMARK    4  A    between atoms: C_24  and  C_25
REMARK                            x       y       z     vdW  Elec       q    Type
REMARK                         _______ _______ _______ _____ _____    ______ ____
ROOT
ATOM      1  N   UNL     1       4.078   0.955   1.333  0.00  0.00    +0.386 N 
ATOM      2  H   UNL     1       3.714   0.151   1.989  0.00  0.00    -0.085 HD
ATOM      3  H   UNL     1       3.689   1.921   1.686  0.00  0.00    -0.085 HD
ENDROOT
BRANCH   1  15
ATOM      4  C   UNL     1       9.483   7.083   0.898  0.00  0.00    +0.005 A 
ATOM      5  C   UNL     1       9.939   7.078   2.209  0.00  0.00    +0.020 A 
ATOM      6  C   UNL     1       9.465   6.121   3.086  0.00  0.00    +0.113 A 
ATOM      7  N   UNL     1       8.588   5.218   2.692  0.00  0.00    -0.236 NA
ATOM      8  C   UNL     1       8.130   5.190   1.451  0.00  0.00    +0.154 A 
ATOM      9  C   UNL     1       8.568   6.118   0.514  0.00  0.00    +0.048 A 
ATOM     10  N   UNL     1       7.202   4.213   1.078  0.00  0.00    -0.218 N 
ATOM     11  C   UNL     1       7.036   3.005   1.661  0.00  0.00    +0.048 A 
ATOM     12  C   UNL     1       6.037   2.363   1.006  0.00  0.00    -0.020 A 
ATOM     13  C   UNL     1       5.579   3.201  -0.009  0.00  0.00    +0.137 A 
ATOM     14  N   UNL     1       6.274   4.311   0.030  0.00  0.00    -0.173 NA
ATOM     15  C   UNL     1       5.547   0.980   1.358  0.00  0.00    -0.037 C 
ATOM     16  C   UNL     1       6.045   0.635   2.766  0.00  0.00    -0.011 C 
ATOM     17  C   UNL     1       7.549   0.910   2.858  0.00  0.00    +0.005 C 
ATOM     18  C   UNL     1       7.795   2.424   2.828  0.00  0.00    +0.056 C 
ENDBRANCH   1  15
BRANCH   1  19
ATOM     19  C   UNL     1       3.579   0.714  -0.028  0.00  0.00    -0.042 C 
BRANCH  19  20
ATOM     20  C   UNL     1       2.072   0.695  -0.014  0.00  0.00    -0.019 A 
ATOM     21  C   UNL     1       1.291  -0.407  -0.013  0.00  0.00    +0.107 A 
ATOM     22  N   UNL     1       0.002  -0.004   0.002  0.00  0.00    -0.284 N 
ATOM     23  H   UNL     1      -0.807  -0.749   0.006  0.00  0.00    +0.188 HD
ATOM     24  N   UNL     1      -0.017   1.397   0.010  0.00  0.00    -0.174 NA
ATOM     25  C   UNL     1       1.228   1.823   0.000  0.00  0.00    +0.094 A 
BRANCH  25  26
ATOM     26  C   UNL     1       1.666   3.241   0.004  0.00  0.00    +0.002 A 
ATOM     27  C   UNL     1       2.819   3.615   0.690  0.00  0.00    +0.011 A 
ATOM     28  C   UNL     1       3.225   4.934   0.687  0.00  0.00    +0.020 A 
ATOM     29  C   UNL     1       2.482   5.887   0.011  0.00  0.00    +0.041 A 
ATOM     30  C   UNL     1       1.333   5.521  -0.669  0.00  0.00    +0.020 A 
ATOM     31  C   UNL     1       0.922   4.204  -0.675  0.00  0.00    +0.011 A 
ATOM     32 CL   UNL     1       2.994   7.545   0.015  0.00  0.00    -0.084 Cl
ENDBRANCH  25  26
ENDBRANCH  19  20
ENDBRANCH   1  19
TORSDOF 4
