REMARK  Name = ZINC00654214
REMARK  5 active torsions:
REMARK  status: ('A' for Active; 'I' for Inactive)
REMARK    1  A    between atoms: C_1  and  C_2
REMARK    2  A    between atoms: C_3  and  C_12
REMARK    3  A    between atoms: N_13  and  N_14
REMARK    4  A    between atoms: C_15  and  C_17
REMARK    5  A    between atoms: C_19  and  C_27
REMARK                            x       y       z     vdW  Elec       q    Type
REMARK                         _______ _______ _______ _____ _____    ______ ____
ROOT
ATOM      1  N   UNL     1      -0.061   1.400  -4.100  0.00  0.00    -0.203 N 
ATOM      2  C   UNL     1      -0.056   2.721  -4.370  0.00  0.00    +0.264 C 
ATOM      3  O   UNL     1      -0.041   3.527  -3.460  0.00  0.00    -0.268 OA
ATOM      4  H   UNL     1      -0.073   0.757  -4.825  0.00  0.00    +0.178 HD
ENDROOT
BRANCH   2   5
ATOM      5  C   UNL     1      -0.069   3.188  -5.772  0.00  0.00    +0.050 A 
ATOM      6  C   UNL     1       0.036   2.292  -6.826  0.00  0.00    +0.042 A 
ATOM      7  C   UNL     1       0.020   2.772  -8.144  0.00  0.00    +0.072 A 
ATOM      8  N   UNL     1      -0.093   4.058  -8.410  0.00  0.00    -0.247 NA
ATOM      9  C   UNL     1      -0.197   4.970  -7.442  0.00  0.00    +0.072 A 
ATOM     10  C   UNL     1      -0.195   4.567  -6.083  0.00  0.00    +0.013 A 
ATOM     11  C   UNL     1      -0.311   5.532  -5.074  0.00  0.00    +0.011 A 
ATOM     12  C   UNL     1      -0.430   6.848  -5.409  0.00  0.00    +0.001 A 
ATOM     13  C   UNL     1      -0.439   7.247  -6.743  0.00  0.00    +0.002 A 
ATOM     14  C   UNL     1      -0.317   6.338  -7.749  0.00  0.00    +0.028 A 
BRANCH   7  15
ATOM     15  C   UNL     1       0.133   1.808  -9.266  0.00  0.00    +0.003 A 
ATOM     16  C   UNL     1       0.248   0.436  -9.025  0.00  0.00    +0.030 A 
ATOM     17  C   UNL     1       0.350  -0.426 -10.098  0.00  0.00    +0.111 A 
ATOM     18  N   UNL     1       0.340   0.030 -11.336  0.00  0.00    -0.263 NA
ATOM     19  C   UNL     1       0.233   1.316 -11.606  0.00  0.00    +0.111 A 
ATOM     20  C   UNL     1       0.120   2.246 -10.593  0.00  0.00    +0.030 A 
ENDBRANCH   7  15
ENDBRANCH   2   5
BRANCH   1  22
ATOM     21  C   UNL     1      -0.053  -0.316  -2.510  0.00  0.00    +0.140 C 
ATOM     22  N   UNL     1      -0.048   0.957  -2.771  0.00  0.00    -0.187 NA
BRANCH  21  25
ATOM     23  C   UNL     1      -0.014   1.503   0.010  0.00  0.00    +0.064 C 
ATOM     24  C   UNL     1      -0.023  -0.004   0.002  0.00  0.00    +0.023 A 
ATOM     25  C   UNL     1      -0.040  -0.782  -1.115  0.00  0.00    +0.023 A 
ATOM     26  C   UNL     1      -0.042  -2.181  -0.652  0.00  0.00    +0.009 A 
ATOM     27  C   UNL     1      -0.057  -3.414  -1.302  0.00  0.00    +0.010 A 
ATOM     28  C   UNL     1      -0.055  -4.575  -0.561  0.00  0.00    +0.001 A 
ATOM     29  C   UNL     1      -0.040  -4.521   0.826  0.00  0.00    +0.002 A 
ATOM     30  C   UNL     1      -0.025  -3.310   1.481  0.00  0.00    +0.026 A 
ATOM     31  C   UNL     1      -0.026  -2.125   0.751  0.00  0.00    +0.047 A 
ATOM     32  N   UNL     1      -0.009  -0.795   1.112  0.00  0.00    -0.358 N 
ATOM     33  H   UNL     1       0.007  -0.468   2.025  0.00  0.00    +0.166 HD
ENDBRANCH  21  25
ENDBRANCH   1  22
TORSDOF 4
