REMARK  Name = ZINC39678271
REMARK  8 active torsions:
REMARK  status: ('A' for Active; 'I' for Inactive)
REMARK    1  A    between atoms: C_1  and  C_2
REMARK    2  A    between atoms: C_2  and  C_3
REMARK    3  A    between atoms: C_3  and  C_5
REMARK    4  A    between atoms: C_3  and  C_6
REMARK    5  A    between atoms: C_10  and  C_19
REMARK    6  A    between atoms: N_21  and  C_22
REMARK    7  A    between atoms: C_22  and  C_23
REMARK    8  A    between atoms: C_28  and  N_29
REMARK                            x       y       z     vdW  Elec       q    Type
REMARK                         _______ _______ _______ _____ _____    ______ ____
ROOT
ATOM      1  C   UNL     1      -0.037  -1.853   1.132  0.00  0.00    +0.218 C 
ATOM      2  O   UNL     1      -0.591  -2.568   0.324  0.00  0.00    -0.275 OA
ATOM      3  N   UNL     1       0.769  -2.392   2.068  0.00  0.00    -0.300 N 
ATOM      4  C   UNL     1       1.589  -1.683   3.079  0.00  0.00    +0.121 C 
ATOM      5  C   UNL     1       1.458  -2.539   4.358  0.00  0.00    +0.100 C 
ATOM      6  C   UNL     1       1.096  -3.946   3.854  0.00  0.00    -0.004 C 
ATOM      7  C   UNL     1       1.030  -3.829   2.324  0.00  0.00    +0.115 C 
ATOM      8  C   UNL     1      -0.262  -4.371   4.404  0.00  0.00    -0.010 C 
ATOM      9  C   UNL     1      -0.574  -5.795   3.935  0.00  0.00    -0.082 C 
ATOM     10  N   UNL     1       0.475  -6.708   4.406  0.00  0.00    +0.379 N 
ATOM     11  C   UNL     1       1.762  -6.348   3.799  0.00  0.00    -0.082 C 
ATOM     12  C   UNL     1       2.173  -4.948   4.262  0.00  0.00    -0.010 C 
ATOM     13  H   UNL     1       0.548  -6.644   5.410  0.00  0.00    -0.086 HD
ATOM     14  H   UNL     1       0.236  -7.654   4.149  0.00  0.00    -0.086 HD
ENDROOT
BRANCH   5  15
ATOM     15  C   UNL     1       0.364  -1.998   5.242  0.00  0.00    +0.218 C 
ATOM     16  O   UNL     1      -0.565  -1.391   4.753  0.00  0.00    -0.275 OA
ATOM     17  N   UNL     1       0.418  -2.190   6.575  0.00  0.00    -0.311 N 
ATOM     18  H   UNL     1       1.195  -2.611   6.973  0.00  0.00    +0.149 HD
BRANCH  17  19
ATOM     19  C   UNL     1      -0.698  -1.761   7.422  0.00  0.00    +0.141 C 
BRANCH  19  20
ATOM     20  C   UNL     1      -0.343  -1.981   8.870  0.00  0.00    -0.009 A 
ATOM     21  C   UNL     1      -0.844  -3.076   9.546  0.00  0.00    +0.007 A 
ATOM     22  C   UNL     1      -0.519  -3.278  10.875  0.00  0.00    +0.000 A 
ATOM     23  C   UNL     1       0.309  -2.385  11.531  0.00  0.00    +0.002 A 
ATOM     24  C   UNL     1       0.814  -1.288  10.861  0.00  0.00    +0.023 A 
ATOM     25  C   UNL     1       0.493  -1.085   9.524  0.00  0.00    +0.034 A 
BRANCH  25  26
ATOM     26  N   UNL     1       1.006   0.020   8.841  0.00  0.00    -0.330 N 
ATOM     27  C   UNL     1       0.267   1.289   8.809  0.00  0.00    +0.105 C 
ATOM     28  C   UNL     1       1.192   2.411   9.291  0.00  0.00    +0.019 C 
ATOM     29  C   UNL     1       2.472   2.408   8.453  0.00  0.00    +0.003 C 
ATOM     30  C   UNL     1       3.198   1.073   8.632  0.00  0.00    +0.019 C 
ATOM     31  C   UNL     1       2.299  -0.062   8.147  0.00  0.00    +0.105 C 
ENDBRANCH  25  26
ENDBRANCH  19  20
ENDBRANCH  17  19
ENDBRANCH   5  15
BRANCH   1  32
ATOM     32  C   UNL     1      -0.248  -0.361   1.089  0.00  0.00    +0.072 C 
ATOM     33  C   UNL     1       0.747   0.267   0.112  0.00  0.00    +0.017 C 
BRANCH  32  35
ATOM     34  C   UNL     1      -1.917   1.448   0.660  0.00  0.00    +0.004 C 
ATOM     35  C   UNL     1      -1.676  -0.062   0.626  0.00  0.00    +0.009 C 
ENDBRANCH  32  35
ENDBRANCH   1  32
TORSDOF 6
