REMARK  Name = ZINC14475724
REMARK  4 active torsions:
REMARK  status: ('A' for Active; 'I' for Inactive)
REMARK    1  A    between atoms: C_6  and  C_7
REMARK    2  A    between atoms: C_16  and  C_19
REMARK    3  A    between atoms: C_21  and  N_26
REMARK    4  A    between atoms: C_24  and  O_25
REMARK                            x       y       z     vdW  Elec       q    Type
REMARK                         _______ _______ _______ _____ _____    ______ ____
ROOT
ATOM      1  C   UNL     1      -0.017   1.394   0.010  0.00  0.00    +0.020 A 
ATOM      2  C   UNL     1       1.165   2.097   0.002  0.00  0.00    +0.024 A 
ATOM      3  C   UNL     1       2.386   1.429  -0.010  0.00  0.00    +0.031 A 
ATOM      4  C   UNL     1       2.404   0.027  -0.005  0.00  0.00    -0.018 A 
ATOM      5  C   UNL     1       1.226  -0.679  -0.006  0.00  0.00    +0.025 A 
ATOM      6  C   UNL     1       0.002  -0.004   0.002  0.00  0.00    +0.052 A 
ATOM      7  C   UNL     1       3.726  -0.638   0.021  0.00  0.00    +0.049 C 
ATOM      8  C   UNL     1       3.932  -1.997  -0.542  0.00  0.00    -0.023 C 
ATOM      9  C   UNL     1       5.173  -2.080  -1.006  0.00  0.00    -0.030 C 
ATOM     10  C   UNL     1       5.894  -0.744  -0.813  0.00  0.00    +0.033 C 
ATOM     11  C   UNL     1       4.711   0.228  -0.820  0.00  0.00    +0.029 C 
ATOM     12  C   UNL     1       4.891   1.514  -0.034  0.00  0.00    +0.108 C 
ATOM     13  N   UNL     1       3.567   2.173  -0.039  0.00  0.00    -0.336 N 
ATOM     14  H   UNL     1       3.518   3.142  -0.064  0.00  0.00    +0.147 HD
ENDROOT
BRANCH  12  15
ATOM     15  C   UNL     1       5.316   1.206   1.379  0.00  0.00    +0.017 A 
ATOM     16  C   UNL     1       4.370   1.116   2.382  0.00  0.00    +0.041 A 
ATOM     17  C   UNL     1       4.759   0.833   3.678  0.00  0.00    +0.127 A 
ATOM     18  C   UNL     1       6.096   0.640   3.974  0.00  0.00    +0.036 A 
ATOM     19  C   UNL     1       7.046   0.728   2.975  0.00  0.00    +0.048 A 
ATOM     20  C   UNL     1       6.657   1.006   1.672  0.00  0.00    +0.122 A 
BRANCH  17  21
ATOM     21  N   UNL     1       3.744   0.738   4.750  0.00  0.00    +0.056 N 
ATOM     22  O   UNL     1       2.575   0.907   4.492  0.00  0.00    -0.126 OA
ATOM     23  O   UNL     1       4.083   0.491   5.884  0.00  0.00    -0.126 OA
ENDBRANCH  17  21
BRANCH  20  24
ATOM     24  O   UNL     1       7.589   1.089   0.687  0.00  0.00    -0.506 OA
ATOM     25  H   UNL     1       7.952   1.977   0.562  0.00  0.00    +0.292 HD
ENDBRANCH  20  24
ENDBRANCH  12  15
BRANCH   6  26
ATOM     26  C   UNL     1      -1.226  -0.741   0.003  0.00  0.00    +0.099 C 
ATOM     27  N   UNL     1      -2.200  -1.325   0.004  0.00  0.00    -0.191 NA
ENDBRANCH   6  26
TORSDOF 4
