REMARK  Name = ZINC42777002
REMARK  11 active torsions:
REMARK  status: ('A' for Active; 'I' for Inactive)
REMARK    1  A    between atoms: C_1  and  C_2
REMARK    2  A    between atoms: C_2  and  O_3
REMARK    3  A    between atoms: O_3  and  C_4
REMARK    4  A    between atoms: C_9  and  C_10
REMARK    5  A    between atoms: C_10  and  C_12
REMARK    6  A    between atoms: C_12  and  N_13
REMARK    7  A    between atoms: N_13  and  C_14
REMARK    8  A    between atoms: N_13  and  C_19
REMARK    9  A    between atoms: C_14  and  C_15
REMARK   10  A    between atoms: C_19  and  C_20
REMARK   11  A    between atoms: C_19  and  C_21
REMARK                            x       y       z     vdW  Elec       q    Type
REMARK                         _______ _______ _______ _____ _____    ______ ____
ROOT
ATOM      1  C   UNL     1       1.276  -0.899  -3.987  0.00  0.00    +0.181 C 
ATOM      2  O   UNL     1       1.085   0.237  -4.369  0.00  0.00    -0.291 OA
ENDROOT
BRANCH   1   8
ATOM      3  C   UNL     1      -0.377  -0.598  -2.148  0.00  0.00    +0.131 A 
ATOM      4  C   UNL     1      -1.066  -1.099  -1.054  0.00  0.00    +0.046 A 
ATOM      5  C   UNL     1      -0.842  -2.393  -0.628  0.00  0.00    +0.004 A 
ATOM      6  C   UNL     1       0.071  -3.201  -1.287  0.00  0.00    +0.001 A 
ATOM      7  C   UNL     1       0.765  -2.723  -2.375  0.00  0.00    +0.015 A 
ATOM      8  C   UNL     1       0.544  -1.415  -2.823  0.00  0.00    +0.060 A 
BRANCH   3   9
ATOM      9  O   UNL     1      -0.596   0.673  -2.568  0.00  0.00    -0.492 OA
BRANCH   9  11
ATOM     10  C   UNL     1      -1.660   2.840  -2.448  0.00  0.00    +0.048 C 
ATOM     11  C   UNL     1      -1.548   1.444  -1.832  0.00  0.00    +0.226 C 
ENDBRANCH   9  11
ENDBRANCH   3   9
ENDBRANCH   1   8
BRANCH   1  12
ATOM     12  C   UNL     1       2.263  -1.780  -4.707  0.00  0.00    +0.164 C 
BRANCH  12  13
ATOM     13  N   UNL     1       2.971  -0.992  -5.726  0.00  0.00    -0.285 NA
BRANCH  13  14
ATOM     14  C   UNL     1       4.095  -0.256  -5.134  0.00  0.00    +0.051 C 
ATOM     15  C   UNL     1       3.573   0.688  -4.048  0.00  0.00    +0.024 C 
ATOM     16  C   UNL     1       5.085  -1.246  -4.516  0.00  0.00    +0.024 C 
ENDBRANCH  13  14
BRANCH  13  17
ATOM     17  C   UNL     1       3.424  -1.846  -6.831  0.00  0.00    +0.198 C 
BRANCH  17  18
ATOM     18  C   UNL     1       3.762  -0.975  -8.043  0.00  0.00    +0.402 C 
ATOM     19  F   UNL     1       4.866  -0.169  -7.745  0.00  0.00    -0.169 F 
ATOM     20  F   UNL     1       4.064  -1.794  -9.136  0.00  0.00    -0.169 F 
ATOM     21  F   UNL     1       2.664  -0.166  -8.356  0.00  0.00    -0.169 F 
ENDBRANCH  17  18
ENDBRANCH  13  17
ENDBRANCH  12  13
ENDBRANCH   1  12
TORSDOF 8
