REMARK  Name = ZINC56924526
REMARK  4 active torsions:
REMARK  status: ('A' for Active; 'I' for Inactive)
REMARK    1  A    between atoms: C_1  and  C_2
REMARK    2  A    between atoms: C_4  and  C_23
REMARK    3  A    between atoms: C_11  and  C_14
REMARK    4  A    between atoms: N_16  and  C_17
REMARK                            x       y       z     vdW  Elec       q    Type
REMARK                         _______ _______ _______ _____ _____    ______ ____
ROOT
ATOM      1  C   UNL     1      -0.018   1.503   0.010  0.00  0.00    +0.066 C 
ATOM      2  C   UNL     1       0.002  -0.004   0.002  0.00  0.00    +0.044 A 
ATOM      3  C   UNL     1       0.006  -0.699  -1.197  0.00  0.00    +0.046 A 
ATOM      4  C   UNL     1       0.025  -2.084  -1.160  0.00  0.00    +0.044 A 
ATOM      5  N   UNL     1       0.040  -2.698   0.011  0.00  0.00    -0.219 NA
ATOM      6  C   UNL     1       0.035  -2.004   1.140  0.00  0.00    +0.221 A 
ATOM      7  N   UNL     1       0.022  -0.679   1.139  0.00  0.00    -0.219 NA
ATOM      8  N   UNL     1       0.051  -2.680   2.350  0.00  0.00    -0.263 N 
ATOM      9  C   UNL     1       0.046  -1.970   3.541  0.00  0.00    +0.165 A 
ATOM     10  N   UNL     1       0.064  -2.421   4.779  0.00  0.00    -0.220 NA
ATOM     11  C   UNL     1       0.057  -1.586   5.819  0.00  0.00    +0.135 A 
ATOM     12  C   UNL     1       0.030  -0.233   5.588  0.00  0.00    +0.081 A 
ATOM     13  S   UNL     1       0.024  -0.202   3.800  0.00  0.00    -0.060 S 
ATOM     14  C   UNL     1       0.030  -2.882  -2.439  0.00  0.00    +0.066 C 
ATOM     15  H   UNL     1       0.064  -3.650   2.364  0.00  0.00    +0.157 HD
ENDROOT
BRANCH  11  16
ATOM     16  C   UNL     1       0.076  -2.107   7.196  0.00  0.00    +0.263 C 
ATOM     17  O   UNL     1       0.068  -1.338   8.138  0.00  0.00    -0.269 OA
ATOM     18  N   UNL     1       0.102  -3.438   7.412  0.00  0.00    -0.307 N 
ATOM     19  H   UNL     1       0.108  -4.051   6.660  0.00  0.00    +0.149 HD
BRANCH  18  20
ATOM     20  C   UNL     1       0.122  -3.957   8.782  0.00  0.00    +0.073 C 
ATOM     21  C   UNL     1       1.563  -3.993   9.293  0.00  0.00    +0.022 C 
ATOM     22  C   UNL     1       1.583  -4.535  10.723  0.00  0.00    +0.002 C 
ATOM     23  C   UNL     1       1.000  -5.950  10.741  0.00  0.00    +0.000 C 
ATOM     24  C   UNL     1      -0.442  -5.913  10.230  0.00  0.00    +0.002 C 
ATOM     25  C   UNL     1      -0.462  -5.371   8.799  0.00  0.00    +0.022 C 
ENDBRANCH  18  20
ENDBRANCH  11  16
TORSDOF 2
