REMARK  Name = ZINC03266183
REMARK  9 active torsions:
REMARK  status: ('A' for Active; 'I' for Inactive)
REMARK    1  A    between atoms: C_10  and  C_11
REMARK    2  A    between atoms: C_11  and  C_12
REMARK    3  A    between atoms: C_15  and  S_18
REMARK    4  A    between atoms: N_16  and  N_17
REMARK    5  A    between atoms: S_18  and  C_19
REMARK    6  A    between atoms: C_19  and  C_20
REMARK    7  A    between atoms: N_22  and  C_23
REMARK    8  A    between atoms: C_23  and  C_24
REMARK    9  A    between atoms: C_24  and  C_25
REMARK                            x       y       z     vdW  Elec       q    Type
REMARK                         _______ _______ _______ _____ _____    ______ ____
ROOT
ATOM      1  C   UNL     1      -8.558   6.991   4.186  0.00  0.00    +0.155 A 
ATOM      2  N   UNL     1      -8.530   6.698   2.917  0.00  0.00    -0.132 NA
ATOM      3  N   UNL     1      -7.455   6.053   2.636  0.00  0.00    -0.121 NA
ATOM      4  C   UNL     1      -6.732   5.898   3.721  0.00  0.00    +0.209 A 
ATOM      5  N   UNL     1      -7.416   6.486   4.745  0.00  0.00    -0.228 N 
ENDROOT
BRANCH   5   6
ATOM      6  N   UNL     1      -7.038   6.559   6.056  0.00  0.00    -0.295 N 
ATOM      7  H   UNL     1      -6.571   7.433   6.250  0.00  0.00    +0.163 HD
ATOM      8  H   UNL     1      -7.829   6.428   6.669  0.00  0.00    +0.163 HD
ENDBRANCH   5   6
BRANCH   1   9
ATOM      9  C   UNL     1      -9.649   7.740   4.907  0.00  0.00    +0.113 C 
BRANCH   9  19
ATOM     10  C   UNL     1     -10.174  11.779   1.806  0.00  0.00    +0.001 A 
ATOM     11  C   UNL     1     -10.511  10.430   1.724  0.00  0.00    +0.001 A 
ATOM     12  C   UNL     1     -10.233   9.574   2.745  0.00  0.00    +0.009 A 
ATOM     13  C   UNL     1      -9.595  10.055   3.901  0.00  0.00    -0.014 A 
ATOM     14  C   UNL     1      -9.252  11.428   3.985  0.00  0.00    -0.018 A 
ATOM     15  C   UNL     1      -9.556  12.281   2.910  0.00  0.00    +0.008 A 
ATOM     16  C   UNL     1      -8.615  11.909   5.141  0.00  0.00    +0.008 A 
ATOM     17  C   UNL     1      -8.337  11.054   6.163  0.00  0.00    +0.001 A 
ATOM     18  C   UNL     1      -8.680   9.706   6.083  0.00  0.00    +0.004 A 
ATOM     19  C   UNL     1      -9.293   9.203   4.976  0.00  0.00    -0.032 A 
ENDBRANCH   9  19
ENDBRANCH   1   9
BRANCH   4  20
ATOM     20  S   UNL     1      -5.176   5.079   3.835  0.00  0.00    -0.075 S 
BRANCH  20  21
ATOM     21  C   UNL     1      -4.955   4.582   2.108  0.00  0.00    +0.173 C 
BRANCH  21  22
ATOM     22  C   UNL     1      -3.650   3.842   1.961  0.00  0.00    +0.223 C 
ATOM     23  O   UNL     1      -2.940   3.668   2.929  0.00  0.00    -0.275 OA
ATOM     24  N   UNL     1      -3.273   3.375   0.755  0.00  0.00    -0.314 N 
ATOM     25  H   UNL     1      -3.841   3.514  -0.019  0.00  0.00    +0.149 HD
BRANCH  24  26
ATOM     26  C   UNL     1      -2.005   2.655   0.612  0.00  0.00    +0.109 C 
BRANCH  26  27
ATOM     27  C   UNL     1      -1.818   2.236  -0.848  0.00  0.00    +0.055 C 
BRANCH  27  28
ATOM     28  C   UNL     1      -0.514   1.496  -0.995  0.00  0.00    -0.027 A 
ATOM     29  C   UNL     1      -0.504   0.115  -1.043  0.00  0.00    +0.006 A 
ATOM     30  C   UNL     1       0.691  -0.565  -1.184  0.00  0.00    +0.020 A 
ATOM     31  C   UNL     1       1.880   0.138  -1.276  0.00  0.00    +0.042 A 
ATOM     32  C   UNL     1       1.871   1.520  -1.227  0.00  0.00    +0.040 A 
ATOM     33  C   UNL     1       0.674   2.200  -1.087  0.00  0.00    +0.046 A 
ATOM     34 CL   UNL     1       0.662   3.934  -1.025  0.00  0.00    -0.083 Cl
ATOM     35 CL   UNL     1       3.381  -0.715  -1.452  0.00  0.00    -0.083 Cl
ENDBRANCH  27  28
ENDBRANCH  26  27
ENDBRANCH  24  26
ENDBRANCH  21  22
ENDBRANCH  20  21
ENDBRANCH   4  20
TORSDOF 9
