REMARK  Name = ZINC06198092
REMARK  9 active torsions:
REMARK  status: ('A' for Active; 'I' for Inactive)
REMARK    1  A    between atoms: C_1  and  C_2
REMARK    2  A    between atoms: C_2  and  C_3
REMARK    3  A    between atoms: C_10  and  C_15
REMARK    4  A    between atoms: C_15  and  C_17
REMARK    5  A    between atoms: C_15  and  N_68
REMARK    6  A    between atoms: N_21  and  C_22
REMARK    7  A    between atoms: C_22  and  C_23
REMARK    8  A    between atoms: C_26  and  O_29
REMARK    9  A    between atoms: O_29  and  C_30
REMARK                            x       y       z     vdW  Elec       q    Type
REMARK                         _______ _______ _______ _____ _____    ______ ____
ROOT
ATOM      1  C   UNL     1      -2.534   1.052   0.051  0.00  0.00    +0.039 C 
ENDROOT
BRANCH   1   9
ATOM      2  C   UNL     1       3.344  -0.878  -0.015  0.00  0.00    -0.047 A 
ATOM      3  C   UNL     1       3.902   0.307   0.447  0.00  0.00    +0.005 A 
ATOM      4  C   UNL     1       3.105   1.392   0.741  0.00  0.00    +0.026 A 
ATOM      5  C   UNL     1       1.727   1.302   0.574  0.00  0.00    +0.049 A 
ATOM      6  C   UNL     1       1.165   0.100   0.104  0.00  0.00    -0.001 A 
ATOM      7  C   UNL     1       1.994  -0.989  -0.188  0.00  0.00    +0.013 A 
ATOM      8  C   UNL     1      -0.286   0.015  -0.069  0.00  0.00    +0.017 A 
ATOM      9  C   UNL     1      -1.038   1.104   0.224  0.00  0.00    +0.011 A 
ATOM     10  C   UNL     1      -0.425   2.285   0.697  0.00  0.00    +0.251 A 
ATOM     11  O   UNL     1      -1.121   3.251   0.959  0.00  0.00    -0.268 OA
ATOM     12  N   UNL     1       0.906   2.372   0.860  0.00  0.00    -0.322 N 
ATOM     13  H   UNL     1       1.307   3.225   1.193  0.00  0.00    +0.169 HD
BRANCH   2  15
ATOM     14  C   UNL     1       4.673  -1.981  -1.794  0.00  0.00    +0.009 C 
ATOM     15  C   UNL     1       4.237  -2.051  -0.330  0.00  0.00    +0.032 C 
ENDBRANCH   2  15
ENDBRANCH   1   9
BRANCH   1  25
ATOM     16  C   UNL     1      -4.406   2.072  -1.101  0.00  0.00    -0.072 C 
ATOM     17  C   UNL     1      -4.868   3.412  -1.676  0.00  0.00    +0.017 C 
ATOM     18  C   UNL     1      -3.958   3.829  -2.803  0.00  0.00    -0.048 A 
ATOM     19  C   UNL     1      -4.395   4.813  -3.677  0.00  0.00    +0.004 A 
ATOM     20  C   UNL     1      -3.591   5.228  -4.719  0.00  0.00    +0.000 A 
ATOM     21  C   UNL     1      -2.344   4.658  -4.895  0.00  0.00    +0.000 A 
ATOM     22  C   UNL     1      -1.909   3.676  -4.027  0.00  0.00    +0.002 A 
ATOM     23  C   UNL     1      -2.716   3.258  -2.979  0.00  0.00    -0.061 A 
ATOM     24  C   UNL     1      -2.199   2.181  -2.062  0.00  0.00    -0.041 C 
ATOM     25  N   UNL     1      -2.964   2.182  -0.804  0.00  0.00    +0.392 N 
ATOM     26  H   UNL     1      -2.790   3.063  -0.306  0.00  0.00    -0.080 HD
ENDBRANCH   1  25
BRANCH   1  27
ATOM     27  C   UNL     1      -3.200   1.176   1.397  0.00  0.00    +0.143 A 
ATOM     28  N   UNL     1      -3.189   2.225   2.183  0.00  0.00    -0.115 NA
ATOM     29  N   UNL     1      -3.870   1.940   3.238  0.00  0.00    -0.023 NA
ATOM     30  N   UNL     1      -4.310   0.733   3.150  0.00  0.00    -0.044 NA
ATOM     31  N   UNL     1      -3.918   0.229   2.029  0.00  0.00    -0.226 N 
BRANCH  31  32
ATOM     32  C   UNL     1      -4.200  -1.122   1.537  0.00  0.00    +0.182 C 
BRANCH  32  33
ATOM     33  C   UNL     1      -3.203  -2.088   2.122  0.00  0.00    -0.026 A 
ATOM     34  C   UNL     1      -2.083  -2.448   1.396  0.00  0.00    +0.009 A 
ATOM     35  C   UNL     1      -1.164  -3.330   1.933  0.00  0.00    +0.046 A 
ATOM     36  C   UNL     1      -1.373  -3.863   3.196  0.00  0.00    +0.120 A 
ATOM     37  C   UNL     1      -2.500  -3.505   3.920  0.00  0.00    +0.046 A 
ATOM     38  C   UNL     1      -3.413  -2.619   3.382  0.00  0.00    +0.009 A 
BRANCH  36  39
ATOM     39  O   UNL     1      -0.473  -4.734   3.724  0.00  0.00    -0.495 OA
ATOM     40  C   UNL     1       0.665  -5.057   2.922  0.00  0.00    +0.277 C 
ENDBRANCH  36  39
ENDBRANCH  32  33
ENDBRANCH  31  32
ENDBRANCH   1  27
TORSDOF 7
