REMARK  Name = ZINC21604752
REMARK  11 active torsions:
REMARK  status: ('A' for Active; 'I' for Inactive)
REMARK    1  A    between atoms: C_1  and  C_2
REMARK    2  A    between atoms: C_2  and  C_4
REMARK    3  A    between atoms: C_2  and  S_16
REMARK    4  A    between atoms: N_6  and  C_7
REMARK    5  A    between atoms: C_12  and  C_13
REMARK    6  A    between atoms: C_13  and  C_14
REMARK    7  A    between atoms: C_13  and  C_15
REMARK    8  A    between atoms: S_16  and  C_17
REMARK    9  A    between atoms: C_20  and  C_28
REMARK   10  A    between atoms: N_21  and  C_22
REMARK   11  A    between atoms: C_28  and  N_29
REMARK                            x       y       z     vdW  Elec       q    Type
REMARK                         _______ _______ _______ _____ _____    ______ ____
ROOT
ATOM      1  C   UNL     1      -0.133  -0.052   2.812  0.00  0.00    +0.197 A 
ATOM      2  N   UNL     1      -1.259   0.617   2.723  0.00  0.00    -0.122 NA
ATOM      3  N   UNL     1      -1.731   0.839   3.897  0.00  0.00    -0.135 NA
ATOM      4  C   UNL     1      -0.942   0.330   4.801  0.00  0.00    +0.122 A 
ATOM      5  N   UNL     1       0.103  -0.262   4.143  0.00  0.00    -0.276 N 
ENDROOT
BRANCH   5   6
ATOM      6  C   UNL     1       1.190  -0.939   4.714  0.00  0.00    +0.050 A 
ATOM      7  C   UNL     1       0.985  -2.125   5.407  0.00  0.00    +0.026 A 
ATOM      8  C   UNL     1       2.057  -2.790   5.968  0.00  0.00    +0.002 A 
ATOM      9  C   UNL     1       3.334  -2.276   5.841  0.00  0.00    +0.000 A 
ATOM     10  C   UNL     1       3.542  -1.095   5.152  0.00  0.00    +0.002 A 
ATOM     11  C   UNL     1       2.474  -0.429   4.583  0.00  0.00    +0.026 A 
ENDBRANCH   5   6
BRANCH   1  12
ATOM     12  S   UNL     1       0.879  -0.584   1.471  0.00  0.00    -0.073 S 
BRANCH  12  14
ATOM     13  C   UNL     1      -0.006   1.543  -0.003  0.00  0.00    +0.029 C 
ATOM     14  C   UNL     1       0.005   0.013  -0.002  0.00  0.00    +0.137 C 
BRANCH  14  15
ATOM     15  C   UNL     1       0.707  -0.485  -1.239  0.00  0.00    +0.230 C 
ATOM     16  O   UNL     1       1.862  -0.850  -1.175  0.00  0.00    -0.274 OA
ATOM     17  N   UNL     1       0.052  -0.524  -2.416  0.00  0.00    -0.284 N 
ATOM     18  H   UNL     1      -0.893  -0.308  -2.453  0.00  0.00    +0.155 HD
BRANCH  17  19
ATOM     19  C   UNL     1       0.735  -0.876  -3.586  0.00  0.00    +0.037 A 
ATOM     20  C   UNL     1       2.108  -0.686  -3.673  0.00  0.00    +0.023 A 
ATOM     21  C   UNL     1       2.780  -1.035  -4.829  0.00  0.00    +0.002 A 
ATOM     22  C   UNL     1       2.086  -1.572  -5.898  0.00  0.00    +0.000 A 
ATOM     23  C   UNL     1       0.719  -1.761  -5.814  0.00  0.00    +0.006 A 
ATOM     24  C   UNL     1       0.043  -1.421  -4.659  0.00  0.00    -0.024 A 
BRANCH  24  25
ATOM     25  C   UNL     1      -1.446  -1.634  -4.565  0.00  0.00    +0.015 C 
ATOM     26  C   UNL     1      -2.137  -0.928  -5.734  0.00  0.00    +0.012 C 
ATOM     27  C   UNL     1      -1.751  -3.133  -4.622  0.00  0.00    +0.012 C 
ENDBRANCH  24  25
ENDBRANCH  17  19
ENDBRANCH  14  15
ENDBRANCH  12  14
ENDBRANCH   1  12
BRANCH   4  28
ATOM     28  C   UNL     1      -1.145   0.379   6.294  0.00  0.00    -0.001 C 
BRANCH  28  29
ATOM     29  N   UNL     1      -1.914  -0.797   6.722  0.00  0.00    +0.384 N 
ATOM     30  C   UNL     1      -3.259  -0.741   6.137  0.00  0.00    -0.078 C 
ATOM     31  C   UNL     1      -4.037  -2.003   6.513  0.00  0.00    -0.019 C 
ATOM     32  C   UNL     1      -4.145  -2.093   8.038  0.00  0.00    -0.004 C 
ATOM     33  C   UNL     1      -2.738  -2.077   8.642  0.00  0.00    -0.019 C 
ATOM     34  C   UNL     1      -2.008  -0.811   8.187  0.00  0.00    -0.078 C 
ATOM     35  H   UNL     1      -1.448  -1.635   6.408  0.00  0.00    -0.081 HD
ENDBRANCH  28  29
ENDBRANCH   4  28
TORSDOF 8
