REMARK  Name = ZINC44177977
REMARK  9 active torsions:
REMARK  status: ('A' for Active; 'I' for Inactive)
REMARK    1  A    between atoms: C_1  and  C_2
REMARK    2  A    between atoms: C_2  and  C_3
REMARK    3  A    between atoms: C_2  and  C_4
REMARK    4  A    between atoms: C_2  and  N_20
REMARK    5  A    between atoms: C_4  and  N_5
REMARK    6  A    between atoms: N_8  and  C_9
REMARK    7  A    between atoms: C_14  and  C_15
REMARK    8  A    between atoms: C_15  and  C_16
REMARK    9  A    between atoms: N_18  and  C_19
REMARK                            x       y       z     vdW  Elec       q    Type
REMARK                         _______ _______ _______ _____ _____    ______ ____
ROOT
ATOM      1  N   UNL     1      -1.842  -1.162  -0.232  0.00  0.00    -0.300 N 
ATOM      2  C   UNL     1      -3.147  -1.383  -0.488  0.00  0.00    +0.304 C 
ATOM      3  O   UNL     1      -3.939  -0.462  -0.446  0.00  0.00    -0.253 OA
ATOM      4  N   UNL     1      -3.573  -2.625  -0.790  0.00  0.00    -0.269 N 
ATOM      5  H   UNL     1      -1.210  -1.897  -0.265  0.00  0.00    +0.150 HD
ATOM      6  H   UNL     1      -2.954  -3.371  -0.760  0.00  0.00    +0.156 HD
ENDROOT
BRANCH   4   7
ATOM      7  C   UNL     1      -4.909  -2.839  -1.148  0.00  0.00    +0.038 A 
ATOM      8  C   UNL     1      -5.903  -2.001  -0.659  0.00  0.00    +0.023 A 
ATOM      9  C   UNL     1      -7.220  -2.215  -1.015  0.00  0.00    +0.002 A 
ATOM     10  C   UNL     1      -7.550  -3.261  -1.856  0.00  0.00    +0.000 A 
ATOM     11  C   UNL     1      -6.563  -4.098  -2.344  0.00  0.00    +0.006 A 
ATOM     12  C   UNL     1      -5.243  -3.886  -1.997  0.00  0.00    -0.017 A 
BRANCH  12  13
ATOM     13  C   UNL     1      -4.167  -4.794  -2.534  0.00  0.00    +0.132 C 
BRANCH  13  14
ATOM     14  C   UNL     1      -3.885  -5.886  -1.535  0.00  0.00    +0.217 C 
ATOM     15  O   UNL     1      -4.498  -5.923  -0.489  0.00  0.00    -0.275 OA
ATOM     16  N   UNL     1      -2.953  -6.821  -1.803  0.00  0.00    -0.318 N 
ATOM     17  C   UNL     1      -2.679  -7.883  -0.831  0.00  0.00    +0.128 C 
ATOM     18  H   UNL     1      -2.462  -6.791  -2.639  0.00  0.00    +0.148 HD
ENDBRANCH  13  14
ENDBRANCH  12  13
ENDBRANCH   4   7
BRANCH   1  19
ATOM     19  C   UNL     1      -1.379   0.189   0.097  0.00  0.00    +0.093 C 
BRANCH  19  21
ATOM     20  C   UNL     1       0.615   1.575   0.685  0.00  0.00    -0.008 C 
ATOM     21  C   UNL     1       0.131   0.164   0.341  0.00  0.00    -0.055 C 
ATOM     22  C   UNL     1       0.445  -0.780   1.504  0.00  0.00    -0.008 C 
BRANCH  21  23
ATOM     23  N   UNL     1       0.816  -0.307  -0.870  0.00  0.00    +0.387 N 
ATOM     24  C   UNL     1       2.272  -0.218  -0.679  0.00  0.00    -0.073 C 
ATOM     25  C   UNL     1       2.959  -0.988  -1.807  0.00  0.00    +0.017 C 
ATOM     26  C   UNL     1       2.415  -0.537  -3.138  0.00  0.00    -0.048 A 
ATOM     27  C   UNL     1       3.127  -0.844  -4.287  0.00  0.00    +0.004 A 
ATOM     28  C   UNL     1       2.658  -0.450  -5.524  0.00  0.00    +0.000 A 
ATOM     29  C   UNL     1       1.472   0.254  -5.617  0.00  0.00    +0.000 A 
ATOM     30  C   UNL     1       0.763   0.562  -4.474  0.00  0.00    +0.002 A 
ATOM     31  C   UNL     1       1.234   0.169  -3.230  0.00  0.00    -0.061 A 
ATOM     32  C   UNL     1       0.432   0.533  -2.008  0.00  0.00    -0.042 C 
ATOM     33  H   UNL     1       0.556  -1.264  -1.054  0.00  0.00    -0.080 HD
ENDBRANCH  21  23
ENDBRANCH  19  21
ENDBRANCH   1  19
TORSDOF 6
