REMARK  Name = ZINC39154663
REMARK  5 active torsions:
REMARK  status: ('A' for Active; 'I' for Inactive)
REMARK    1  A    between atoms: C_1  and  C_2
REMARK    2  A    between atoms: C_2  and  C_29
REMARK    3  A    between atoms: C_15  and  C_18
REMARK    4  A    between atoms: C_18  and  O_19
REMARK    5  A    between atoms: O_19  and  C_20
REMARK                            x       y       z     vdW  Elec       q    Type
REMARK                         _______ _______ _______ _____ _____    ______ ____
ROOT
ATOM      1  C   UNL     1      -0.019   1.526   0.010  0.00  0.00    +0.041 C 
ATOM      2  C   UNL     1       0.002  -0.004   0.002  0.00  0.00    +0.068 C 
ATOM      3  C   UNL     1      -1.436  -0.531  -0.005  0.00  0.00    +0.071 C 
ATOM      4  C   UNL     1      -2.056  -0.231   1.357  0.00  0.00    -0.020 A 
ATOM      5  C   UNL     1      -1.252   0.063   2.405  0.00  0.00    +0.021 A 
ATOM      6  S   UNL     1      -2.358   0.338   3.759  0.00  0.00    -0.075 S 
ATOM      7  C   UNL     1      -3.890   0.058   2.907  0.00  0.00    +0.084 A 
ATOM      8  C   UNL     1      -3.494  -0.239   1.607  0.00  0.00    +0.048 A 
ATOM      9  C   UNL     1      -4.598  -0.523   0.647  0.00  0.00    +0.150 C 
ATOM     10  N   UNL     1      -5.899  -0.476   1.093  0.00  0.00    -0.168 N 
ATOM     11  C   UNL     1      -6.181  -0.178   2.379  0.00  0.00    +0.326 C 
ATOM     12  O   UNL     1      -7.342  -0.146   2.739  0.00  0.00    -0.251 OA
ATOM     13  N   UNL     1      -5.210   0.083   3.271  0.00  0.00    -0.262 N 
ATOM     14  N   UNL     1      -6.755  -0.766   0.060  0.00  0.00    -0.204 NA
ATOM     15  C   UNL     1      -5.899  -1.012  -1.116  0.00  0.00    +0.229 C 
ATOM     16  N   UNL     1      -4.529  -0.829  -0.622  0.00  0.00    -0.243 NA
ATOM     17  C   UNL     1       0.242   0.129   2.384  0.00  0.00    +0.203 C 
ATOM     18  O   UNL     1       0.694  -0.475   1.161  0.00  0.00    -0.368 OA
ATOM     19  C   UNL     1       0.725  -0.494  -1.254  0.00  0.00    +0.041 C 
ATOM     20  H   UNL     1      -7.318  -1.576   0.273  0.00  0.00    +0.147 HD
ATOM     21  H   UNL     1      -5.448   0.294   4.188  0.00  0.00    +0.157 HD
ENDROOT
BRANCH  15  22
ATOM     22  C   UNL     1      -6.097  -2.439  -1.630  0.00  0.00    +0.273 C 
BRANCH  22  23
ATOM     23  O   UNL     1      -5.752  -3.369  -0.601  0.00  0.00    -0.488 OA
BRANCH  23  24
ATOM     24  C   UNL     1      -5.872  -4.690  -0.897  0.00  0.00    +0.121 A 
ATOM     25  C   UNL     1      -6.308  -5.083  -2.154  0.00  0.00    +0.047 A 
ATOM     26  C   UNL     1      -6.430  -6.426  -2.453  0.00  0.00    +0.023 A 
ATOM     27  C   UNL     1      -6.118  -7.379  -1.499  0.00  0.00    +0.041 A 
ATOM     28  C   UNL     1      -5.684  -6.989  -0.245  0.00  0.00    +0.023 A 
ATOM     29  C   UNL     1      -5.554  -5.647   0.056  0.00  0.00    +0.047 A 
ATOM     30 CL   UNL     1      -6.272  -9.066  -1.877  0.00  0.00    -0.084 Cl
ENDBRANCH  23  24
ENDBRANCH  22  23
ENDBRANCH  15  22
TORSDOF 3
