REMARK  Name = ZINC00064283
REMARK  5 active torsions:
REMARK  status: ('A' for Active; 'I' for Inactive)
REMARK    1  A    between atoms: C_1  and  C_2
REMARK    2  A    between atoms: C_5  and  N_9
REMARK    3  A    between atoms: C_6  and  C_8
REMARK    4  A    between atoms: C_10  and  C_12
REMARK    5  A    between atoms: C_13  and  C_14
REMARK                            x       y       z     vdW  Elec       q    Type
REMARK                         _______ _______ _______ _____ _____    ______ ____
ROOT
ATOM      1  N   UNL     1      -2.427   1.042   0.019  0.00  0.00    -0.282 N 
ATOM      2  C   UNL     1      -2.414  -0.302  -0.090  0.00  0.00    +0.241 C 
ATOM      3  O   UNL     1      -1.355  -0.901  -0.098  0.00  0.00    -0.270 OA
ATOM      4  H   UNL     1      -3.270   1.513   0.106  0.00  0.00    +0.155 HD
ENDROOT
BRANCH   1   9
ATOM      5  C   UNL     1       2.446   3.944  -0.045  0.00  0.00    +0.044 C 
ATOM      6  C   UNL     1       1.152   3.172  -0.025  0.00  0.00    -0.050 A 
ATOM      7  C   UNL     1       1.081   1.928  -0.626  0.00  0.00    +0.005 A 
ATOM      8  C   UNL     1      -0.102   1.218  -0.610  0.00  0.00    +0.024 A 
ATOM      9  C   UNL     1      -1.225   1.756   0.006  0.00  0.00    +0.037 A 
ATOM     10  C   UNL     1      -1.149   3.002   0.615  0.00  0.00    -0.029 A 
ATOM     11  C   UNL     1       0.038   3.707   0.595  0.00  0.00    +0.008 A 
ATOM     12  C   UNL     1      -2.363   3.587   1.290  0.00  0.00    +0.045 C 
ENDBRANCH   1   9
BRANCH   2  13
ATOM     13  C   UNL     1      -3.672  -1.038  -0.198  0.00  0.00    +0.068 C 
ATOM     14  C   UNL     1      -3.659  -2.384  -0.307  0.00  0.00    +0.013 C 
BRANCH  14  15
ATOM     15  C   UNL     1      -4.924  -3.125  -0.416  0.00  0.00    -0.021 A 
ATOM     16  C   UNL     1      -6.144  -2.438  -0.407  0.00  0.00    +0.012 A 
ATOM     17  C   UNL     1      -7.327  -3.134  -0.509  0.00  0.00    +0.050 A 
ATOM     18  C   UNL     1      -7.317  -4.519  -0.622  0.00  0.00    +0.166 A 
ATOM     19  C   UNL     1      -6.105  -5.211  -0.632  0.00  0.00    +0.167 A 
ATOM     20  C   UNL     1      -4.913  -4.519  -0.535  0.00  0.00    +0.057 A 
ATOM     21  O   UNL     1      -6.367  -6.546  -0.751  0.00  0.00    -0.453 OA
ATOM     22  C   UNL     1      -7.724  -6.630  -1.224  0.00  0.00    +0.466 C 
ATOM     23  O   UNL     1      -8.333  -5.421  -0.734  0.00  0.00    -0.453 OA
ENDBRANCH  14  15
ENDBRANCH   2  13
TORSDOF 3
