REMARK  Name = ZINC36563210
REMARK  19 active torsions:
REMARK  status: ('A' for Active; 'I' for Inactive)
REMARK    1  A    between atoms: C_1  and  C_2
REMARK    2  A    between atoms: C_2  and  C_3
REMARK    3  A    between atoms: C_3  and  C_4
REMARK    4  A    between atoms: C_4  and  C_5
REMARK    5  A    between atoms: C_5  and  C_6
REMARK    6  A    between atoms: C_7  and  C_8
REMARK    7  A    between atoms: N_10  and  C_11
REMARK    8  A    between atoms: N_10  and  C_14
REMARK    9  A    between atoms: C_11  and  C_12
REMARK   10  A    between atoms: C_12  and  C_13
REMARK   11  A    between atoms: C_14  and  C_16
REMARK   12  A    between atoms: C_14  and  C_25
REMARK   13  A    between atoms: C_17  and  O_24
REMARK   14  A    between atoms: C_19  and  O_23
REMARK   15  A    between atoms: C_21  and  O_22
REMARK   16  A    between atoms: N_27  and  C_28
REMARK   17  A    between atoms: C_28  and  S_29
REMARK   18  A    between atoms: S_29  and  C_32
REMARK   19  A    between atoms: C_35  and  C_38
REMARK                            x       y       z     vdW  Elec       q    Type
REMARK                         _______ _______ _______ _____ _____    ______ ____
ROOT
ATOM      1  C   UNL     1      -1.833  -8.915  -3.369  0.00  0.00    +0.199 C 
ENDROOT
BRANCH   1   2
ATOM      2  C   UNL     1      -0.361  -9.069  -3.652  0.00  0.00    +0.065 A 
ATOM      3  C   UNL     1       0.064  -9.873  -4.698  0.00  0.00    +0.129 A 
ATOM      4  C   UNL     1       1.419 -10.014  -4.958  0.00  0.00    +0.091 A 
ATOM      5  C   UNL     1       2.349  -9.350  -4.172  0.00  0.00    +0.124 A 
ATOM      6  C   UNL     1       1.924  -8.545  -3.126  0.00  0.00    +0.091 A 
ATOM      7  C   UNL     1       0.569  -8.401  -2.869  0.00  0.00    +0.129 A 
BRANCH   7   8
ATOM      8  O   UNL     1       0.152  -7.608  -1.847  0.00  0.00    -0.506 OA
ATOM      9  H   UNL     1       0.065  -8.070  -1.001  0.00  0.00    +0.292 HD
ENDBRANCH   7   8
BRANCH   5  10
ATOM     10  O   UNL     1       3.676  -9.489  -4.427  0.00  0.00    -0.507 OA
ATOM     11  H   UNL     1       4.028  -8.837  -5.047  0.00  0.00    +0.292 HD
ENDBRANCH   5  10
BRANCH   3  12
ATOM     12  O   UNL     1      -0.847 -10.523  -5.469  0.00  0.00    -0.506 OA
ATOM     13  H   UNL     1      -1.177 -10.001  -6.213  0.00  0.00    +0.292 HD
ENDBRANCH   3  12
ENDBRANCH   1   2
BRANCH   1  14
ATOM     14  C   UNL     1      -2.612  -9.109  -4.644  0.00  0.00    +0.240 C 
ATOM     15  O   UNL     1      -2.934  -8.148  -5.310  0.00  0.00    -0.273 OA
ATOM     16  N   UNL     1      -2.952 -10.350  -5.045  0.00  0.00    -0.294 N 
ATOM     17  H   UNL     1      -2.621 -11.123  -4.561  0.00  0.00    +0.150 HD
BRANCH  16  18
ATOM     18  C   UNL     1      -3.821 -10.532  -6.210  0.00  0.00    +0.278 C 
BRANCH  18  19
ATOM     19  S   UNL     1      -2.803 -10.800  -7.687  0.00  0.00    +0.013 S 
ATOM     20  O   UNL     1      -3.627 -11.126  -8.798  0.00  0.00    -0.168 OA
ATOM     21  O   UNL     1      -1.815  -9.784  -7.792  0.00  0.00    -0.168 OA
BRANCH  19  22
ATOM     22  C   UNL     1      -1.897 -12.274  -7.352  0.00  0.00    +0.090 A 
ATOM     23  C   UNL     1      -0.547 -12.205  -7.062  0.00  0.00    +0.027 A 
ATOM     24  C   UNL     1       0.163 -13.361  -6.798  0.00  0.00    +0.005 A 
ATOM     25  C   UNL     1      -0.477 -14.587  -6.825  0.00  0.00    -0.050 A 
ATOM     26  C   UNL     1      -1.827 -14.655  -7.114  0.00  0.00    +0.005 A 
ATOM     27  C   UNL     1      -2.538 -13.499  -7.373  0.00  0.00    +0.027 A 
ATOM     28  C   UNL     1       0.298 -15.847  -6.539  0.00  0.00    +0.044 C 
ENDBRANCH  19  22
ENDBRANCH  18  19
ENDBRANCH  16  18
ENDBRANCH   1  14
BRANCH   1  31
ATOM     29  C   UNL     1      -2.499  -7.422  -1.562  0.00  0.00    +0.240 C 
ATOM     30  O   UNL     1      -2.653  -8.398  -0.852  0.00  0.00    -0.271 OA
ATOM     31  N   UNL     1      -2.091  -7.575  -2.837  0.00  0.00    -0.282 N 
BRANCH  29  33
ATOM     32  C   UNL     1      -3.161  -5.926   0.230  0.00  0.00    -0.022 C 
ATOM     33  C   UNL     1      -2.758  -6.076  -1.028  0.00  0.00    +0.063 C 
BRANCH  32  34
ATOM     34  C   UNL     1      -3.426  -4.547   0.777  0.00  0.00    +0.027 C 
BRANCH  34  35
ATOM     35  C   UNL     1      -4.847  -4.487   1.342  0.00  0.00    +0.004 C 
BRANCH  35  36
ATOM     36  C   UNL     1      -5.117  -3.087   1.897  0.00  0.00    +0.000 C 
BRANCH  36  38
ATOM     37  C   UNL     1      -6.807  -1.627   3.017  0.00  0.00    +0.004 C 
ATOM     38  C   UNL     1      -6.537  -3.027   2.462  0.00  0.00    -0.003 C 
ENDBRANCH  36  38
ENDBRANCH  35  36
ENDBRANCH  34  35
ENDBRANCH  32  34
ENDBRANCH  29  33
BRANCH  31  39
ATOM     39  C   UNL     1      -1.906  -6.400  -3.693  0.00  0.00    +0.109 C 
BRANCH  39  40
ATOM     40  C   UNL     1      -0.528  -5.790  -3.430  0.00  0.00    +0.016 C 
ATOM     41  C   UNL     1      -0.392  -4.481  -4.211  0.00  0.00    +0.005 C 
ENDBRANCH  39  40
ENDBRANCH  31  39
ENDBRANCH   1  31
TORSDOF 16
