REMARK  Name = ZINC04861046
REMARK  6 active torsions:
REMARK  status: ('A' for Active; 'I' for Inactive)
REMARK    1  A    between atoms: C_1  and  C_2
REMARK    2  A    between atoms: C_5  and  S_9
REMARK    3  A    between atoms: S_9  and  N_12
REMARK    4  A    between atoms: C_16  and  C_19
REMARK    5  A    between atoms: N_21  and  C_22
REMARK    6  A    between atoms: C_28  and  C_30
REMARK                            x       y       z     vdW  Elec       q    Type
REMARK                         _______ _______ _______ _____ _____    ______ ____
ROOT
ATOM      1  N   UNL     1      -2.044  -4.542  -3.849  0.00  0.00    -0.176 NA
ATOM      2  C   UNL     1      -3.207  -5.162  -3.200  0.00  0.00    +0.109 C 
ATOM      3  C   UNL     1      -3.309  -4.636  -1.765  0.00  0.00    +0.018 C 
ATOM      4  C   UNL     1      -3.343  -3.107  -1.787  0.00  0.00    +0.015 C 
ATOM      5  C   UNL     1      -2.048  -2.575  -2.404  0.00  0.00    +0.091 C 
ATOM      6  C   UNL     1      -1.931  -3.077  -3.847  0.00  0.00    +0.122 C 
ENDROOT
BRANCH   5   7
ATOM      7  C   UNL     1      -2.068  -1.068  -2.396  0.00  0.00    +0.218 C 
ATOM      8  O   UNL     1      -1.995  -0.455  -3.440  0.00  0.00    -0.275 OA
ATOM      9  N   UNL     1      -2.168  -0.402  -1.229  0.00  0.00    -0.312 N 
ATOM     10  H   UNL     1      -2.227  -0.892  -0.394  0.00  0.00    +0.149 HD
BRANCH   9  11
ATOM     11  C   UNL     1      -2.188   1.063  -1.221  0.00  0.00    +0.076 C 
ATOM     12  C   UNL     1      -0.753   1.593  -1.232  0.00  0.00    +0.022 C 
ATOM     13  C   UNL     1      -0.013   1.086   0.008  0.00  0.00    +0.002 C 
ATOM     14  C   UNL     1      -0.729   1.579   1.267  0.00  0.00    +0.000 C 
ATOM     15  C   UNL     1      -2.164   1.050   1.278  0.00  0.00    +0.005 C 
ATOM     16  C   UNL     1      -2.904   1.556   0.038  0.00  0.00    +0.006 C 
ATOM     17  C   UNL     1      -4.340   1.027   0.049  0.00  0.00    +0.009 C 
ENDBRANCH   9  11
ENDBRANCH   5   7
BRANCH   1  18
ATOM     18  S   UNL     1      -0.882  -5.476  -4.569  0.00  0.00    +0.061 S 
ATOM     19  O   UNL     1       0.309  -4.700  -4.588  0.00  0.00    -0.153 OA
ATOM     20  O   UNL     1      -0.948  -6.754  -3.952  0.00  0.00    -0.153 OA
BRANCH  18  25
ATOM     21  C   UNL     1      -2.529  -6.254 -10.322  0.00  0.00    +0.045 C 
ATOM     22  C   UNL     1      -2.117  -6.060  -8.885  0.00  0.00    -0.032 A 
ATOM     23  C   UNL     1      -2.532  -6.957  -7.920  0.00  0.00    +0.007 A 
ATOM     24  C   UNL     1      -2.151  -6.782  -6.603  0.00  0.00    +0.029 A 
ATOM     25  C   UNL     1      -1.362  -5.702  -6.249  0.00  0.00    +0.107 A 
ATOM     26  C   UNL     1      -0.947  -4.804  -7.213  0.00  0.00    +0.048 A 
ATOM     27  C   UNL     1      -1.324  -4.982  -8.533  0.00  0.00    +0.046 A 
ATOM     28 CL   UNL     1      -0.803  -3.854  -9.745  0.00  0.00    -0.083 Cl
ENDBRANCH  18  25
ENDBRANCH   1  18
TORSDOF 4
