REMARK  Name = ZINC37168869
REMARK  6 active torsions:
REMARK  status: ('A' for Active; 'I' for Inactive)
REMARK    1  A    between atoms: C_1  and  C_2
REMARK    2  A    between atoms: C_2  and  C_4
REMARK    3  A    between atoms: C_2  and  N_12
REMARK    4  A    between atoms: C_7  and  O_11
REMARK    5  A    between atoms: C_9  and  O_10
REMARK    6  A    between atoms: N_12  and  C_13
REMARK                            x       y       z     vdW  Elec       q    Type
REMARK                         _______ _______ _______ _____ _____    ______ ____
ROOT
ATOM      1  C   UNL     1       0.828  -0.284  -1.246  0.00  0.00    -0.009 C 
ATOM      2  C   UNL     1      -0.074  -0.149  -0.017  0.00  0.00    -0.040 C 
ENDROOT
BRANCH   2   3
ATOM      3  C   UNL     1      -1.304  -0.999  -0.202  0.00  0.00    -0.020 A 
ATOM      4  C   UNL     1      -1.388  -2.236   0.410  0.00  0.00    +0.009 A 
ATOM      5  C   UNL     1      -2.514  -3.017   0.243  0.00  0.00    +0.046 A 
ATOM      6  C   UNL     1      -3.566  -2.562  -0.540  0.00  0.00    +0.120 A 
ATOM      7  C   UNL     1      -3.485  -1.322  -1.155  0.00  0.00    +0.091 A 
ATOM      8  C   UNL     1      -2.356  -0.537  -0.981  0.00  0.00    +0.122 A 
BRANCH   8   9
ATOM      9  O   UNL     1      -2.276   0.681  -1.577  0.00  0.00    -0.506 OA
ATOM     10  H   UNL     1      -1.888   0.661  -2.463  0.00  0.00    +0.292 HD
ENDBRANCH   8   9
BRANCH   6  11
ATOM     11  O   UNL     1      -4.674  -3.332  -0.705  0.00  0.00    -0.507 OA
ATOM     12  H   UNL     1      -5.361  -3.179  -0.042  0.00  0.00    +0.292 HD
ENDBRANCH   6  11
ENDBRANCH   2   3
BRANCH   2  13
ATOM     13  N   UNL     1       0.655  -0.596   1.177  0.00  0.00    +0.386 N 
ATOM     14  H   UNL     1       0.839  -1.586   1.108  0.00  0.00    -0.085 HD
ATOM     15  H   UNL     1       1.529  -0.096   1.244  0.00  0.00    -0.085 HD
BRANCH  13  16
ATOM     16  C   UNL     1      -0.154  -0.330   2.373  0.00  0.00    -0.052 C 
ATOM     17  C   UNL     1      -0.183   1.188   2.689  0.00  0.00    +0.001 C 
ATOM     18  C   UNL     1      -0.436   1.185   4.217  0.00  0.00    +0.083 C 
ATOM     19  N   UNL     1       0.349   0.039   4.725  0.00  0.00    -0.301 NA
ATOM     20  C   UNL     1       0.507  -0.941   3.625  0.00  0.00    +0.043 C 
ATOM     21  C   UNL     1       2.020  -1.097   3.369  0.00  0.00    +0.018 C 
ATOM     22  C   UNL     1       2.651  -0.648   4.714  0.00  0.00    +0.017 C 
ATOM     23  C   UNL     1       1.691   0.499   5.141  0.00  0.00    +0.084 C 
ENDBRANCH  13  16
ENDBRANCH   2  13
TORSDOF 5
