REMARK  Name = ZINC12111879
REMARK  3 active torsions:
REMARK  status: ('A' for Active; 'I' for Inactive)
REMARK    1  A    between atoms: C_10  and  C_11
REMARK    2  A    between atoms: C_11  and  C_12
REMARK    3  A    between atoms: C_19  and  C_21
REMARK                            x       y       z     vdW  Elec       q    Type
REMARK                         _______ _______ _______ _____ _____    ______ ____
ROOT
ATOM      1  C   UNL     1      -3.082   3.707  -1.544  0.00  0.00    +0.140 C 
ATOM      2  C   UNL     1      -4.320   4.609  -1.491  0.00  0.00    +0.140 C 
ATOM      3  N   UNL     1      -4.624   5.061  -2.858  0.00  0.00    -0.292 N 
ATOM      4  C   UNL     1      -3.532   5.646  -3.651  0.00  0.00    +0.136 C 
ATOM      5  C   UNL     1      -2.332   4.693  -3.599  0.00  0.00    +0.179 C 
ATOM      6  O   UNL     1      -2.032   4.388  -2.235  0.00  0.00    -0.373 OA
ATOM      7  C   UNL     1      -5.866   4.942  -3.368  0.00  0.00    +0.262 C 
ATOM      8  O   UNL     1      -6.722   4.337  -2.750  0.00  0.00    -0.269 OA
ENDROOT
BRANCH   7   9
ATOM      9  C   UNL     1      -6.186   5.543  -4.667  0.00  0.00    +0.121 C 
ATOM     10  N   UNL     1      -5.323   6.323  -5.241  0.00  0.00    -0.180 NA
ATOM     11  N   UNL     1      -5.592   6.912  -6.481  0.00  0.00    -0.207 N 
ATOM     12  C   UNL     1      -6.861   7.016  -6.924  0.00  0.00    +0.233 C 
ATOM     13  O   UNL     1      -7.090   7.535  -7.995  0.00  0.00    -0.274 OA
ATOM     14  C   UNL     1      -7.993   6.484  -6.082  0.00  0.00    +0.104 C 
ATOM     15  C   UNL     1      -7.513   5.251  -5.314  0.00  0.00    +0.071 C 
ATOM     16  H   UNL     1      -4.863   7.250  -7.023  0.00  0.00    +0.177 HD
ENDBRANCH   7   9
BRANCH   1  17
ATOM     17  C   UNL     1      -2.627   3.379  -0.120  0.00  0.00    +0.069 C 
BRANCH  17  27
ATOM     18  C   UNL     1       2.451   3.699  -0.677  0.00  0.00    +0.001 A 
ATOM     19  C   UNL     1       1.409   4.623  -0.631  0.00  0.00    +0.001 A 
ATOM     20  C   UNL     1       0.120   4.219  -0.468  0.00  0.00    +0.009 A 
ATOM     21  C   UNL     1      -0.169   2.850  -0.342  0.00  0.00    -0.015 A 
ATOM     22  C   UNL     1       0.891   1.909  -0.388  0.00  0.00    -0.018 A 
ATOM     23  C   UNL     1       2.210   2.365  -0.558  0.00  0.00    +0.008 A 
ATOM     24  C   UNL     1       0.602   0.540  -0.262  0.00  0.00    +0.008 A 
ATOM     25  C   UNL     1      -0.687   0.136  -0.099  0.00  0.00    +0.001 A 
ATOM     26  C   UNL     1      -1.729   1.060  -0.059  0.00  0.00    +0.004 A 
ATOM     27  C   UNL     1      -1.487   2.395  -0.171  0.00  0.00    -0.037 A 
ENDBRANCH  17  27
ENDBRANCH   1  17
TORSDOF 3
