REMARK  Name = ZINC07647912
REMARK  7 active torsions:
REMARK  status: ('A' for Active; 'I' for Inactive)
REMARK    1  A    between atoms: C_1  and  C_2
REMARK    2  A    between atoms: C_2  and  C_3
REMARK    3  A    between atoms: C_7  and  C_14
REMARK    4  A    between atoms: C_14  and  N_47
REMARK    5  A    between atoms: C_15  and  C_17
REMARK    6  A    between atoms: C_15  and  C_23
REMARK    7  A    between atoms: C_15  and  N_47
REMARK                            x       y       z     vdW  Elec       q    Type
REMARK                         _______ _______ _______ _____ _____    ______ ____
ROOT
ATOM      1  N   UNL     1      -1.228   3.279   0.918  0.00  0.00    +0.391 N 
ATOM      2  H   UNL     1      -0.622   3.041   1.712  0.00  0.00    -0.084 HD
ATOM      3  H   UNL     1      -0.823   4.069   0.403  0.00  0.00    -0.084 HD
ENDROOT
BRANCH   1   4
ATOM      4  C   UNL     1      -2.562   3.659   1.421  0.00  0.00    -0.044 C 
BRANCH   4   9
ATOM      5  C   UNL     1      -2.031   8.775   0.808  0.00  0.00    -0.044 A 
ATOM      6  C   UNL     1      -2.154   7.704  -0.066  0.00  0.00    +0.004 A 
ATOM      7  C   UNL     1      -2.282   6.430   0.411  0.00  0.00    +0.012 A 
ATOM      8  C   UNL     1      -2.282   6.203   1.791  0.00  0.00    +0.019 A 
ATOM      9  C   UNL     1      -2.425   4.849   2.335  0.00  0.00    -0.047 A 
ATOM     10  C   UNL     1      -2.424   4.697   3.683  0.00  0.00    +0.094 A 
ATOM     11  C   UNL     1      -2.294   5.829   4.517  0.00  0.00    +0.337 A 
ATOM     12  O   UNL     1      -2.295   5.678   5.726  0.00  0.00    -0.245 OA
ATOM     13  O   UNL     1      -2.170   7.066   4.012  0.00  0.00    -0.422 OA
ATOM     14  C   UNL     1      -2.164   7.286   2.680  0.00  0.00    +0.140 A 
ATOM     15  C   UNL     1      -2.035   8.573   2.173  0.00  0.00    +0.050 A 
BRANCH   5  17
ATOM     16  C   UNL     1      -0.410  10.495   0.059  0.00  0.00    +0.009 C 
ATOM     17  C   UNL     1      -1.892  10.172   0.262  0.00  0.00    +0.032 C 
ENDBRANCH   5  17
ENDBRANCH   4   9
ENDBRANCH   1   4
BRANCH   1  18
ATOM     18  C   UNL     1      -1.332   2.114   0.020  0.00  0.00    +0.027 C 
BRANCH  18  19
ATOM     19  C   UNL     1      -0.017   1.378   0.010  0.00  0.00    -0.054 A 
ATOM     20  C   UNL     1       1.171   2.086   0.002  0.00  0.00    +0.002 A 
ATOM     21  C   UNL     1       2.377   1.411  -0.015  0.00  0.00    +0.000 A 
ATOM     22  C   UNL     1       2.396   0.029  -0.021  0.00  0.00    +0.000 A 
ATOM     23  C   UNL     1       1.208  -0.679  -0.013  0.00  0.00    +0.000 A 
ATOM     24  C   UNL     1       0.002  -0.004   0.002  0.00  0.00    +0.002 A 
ENDBRANCH  18  19
BRANCH  18  25
ATOM     25  C   UNL     1      -1.656   2.582  -1.375  0.00  0.00    +0.095 A 
ATOM     26  C   UNL     1      -2.504   1.981  -2.229  0.00  0.00    +0.043 A 
ATOM     27  C   UNL     1      -2.507   2.752  -3.414  0.00  0.00    +0.041 A 
ATOM     28  C   UNL     1      -1.660   3.778  -3.214  0.00  0.00    +0.195 A 
ATOM     29  O   UNL     1      -1.153   3.673  -1.975  0.00  0.00    -0.469 OA
ENDBRANCH  18  25
ENDBRANCH   1  18
TORSDOF 6
