REMARK  Name = ZINC05297633
REMARK  3 active torsions:
REMARK  status: ('A' for Active; 'I' for Inactive)
REMARK    1  A    between atoms: C_14  and  C_15
REMARK    2  A    between atoms: N_17  and  N_18
REMARK    3  A    between atoms: C_19  and  C_20
REMARK                            x       y       z     vdW  Elec       q    Type
REMARK                         _______ _______ _______ _____ _____    ______ ____
ROOT
ATOM      1  C   UNL     1       7.637  14.373  -0.045  0.00  0.00    +0.000 A 
ATOM      2  C   UNL     1       8.546  13.366  -0.317  0.00  0.00    +0.001 A 
ATOM      3  C   UNL     1       8.142  12.045  -0.278  0.00  0.00    +0.010 A 
ATOM      4  C   UNL     1       6.824  11.740   0.034  0.00  0.00    +0.003 A 
ATOM      5  C   UNL     1       5.910  12.755   0.341  0.00  0.00    -0.038 A 
ATOM      6  C   UNL     1       6.328  14.071   0.284  0.00  0.00    +0.004 A 
ATOM      7  C   UNL     1       4.495  12.433   0.734  0.00  0.00    +0.040 C 
ATOM      8  C   UNL     1       3.942  11.214  -0.004  0.00  0.00    +0.044 C 
ATOM      9  C   UNL     1       4.960  10.111   0.006  0.00  0.00    +0.010 A 
ATOM     10  C   UNL     1       6.315  10.355   0.006  0.00  0.00    +0.070 A 
ATOM     11  N   UNL     1       6.932   9.158  -0.017  0.00  0.00    -0.276 N 
ATOM     12  H   UNL     1       7.922   9.021  -0.036  0.00  0.00    +0.189 HD
ATOM     13  N   UNL     1       6.051   8.214  -0.009  0.00  0.00    -0.168 NA
ATOM     14  C   UNL     1       4.827   8.721   0.000  0.00  0.00    +0.152 A 
ENDROOT
BRANCH  14  15
ATOM     15  C   UNL     1       3.561   7.960   0.009  0.00  0.00    +0.284 C 
ATOM     16  O   UNL     1       2.498   8.550   0.022  0.00  0.00    -0.267 OA
ATOM     17  N   UNL     1       3.585   6.613   0.002  0.00  0.00    -0.202 N 
ATOM     18  H   UNL     1       4.434   6.143  -0.009  0.00  0.00    +0.178 HD
BRANCH  17  19
ATOM     19  N   UNL     1       2.385   5.891   0.009  0.00  0.00    -0.187 NA
ATOM     20  C   UNL     1       2.408   4.593   0.003  0.00  0.00    +0.138 C 
BRANCH  20  21
ATOM     21  C   UNL     1       1.144   3.833   0.011  0.00  0.00    -0.004 A 
ATOM     22  C   UNL     1      -0.080   4.508   0.026  0.00  0.00    +0.011 A 
ATOM     23  C   UNL     1      -1.258   3.792   0.034  0.00  0.00    +0.022 A 
ATOM     24  C   UNL     1      -1.232   2.407   0.021  0.00  0.00    +0.059 A 
ATOM     25  C   UNL     1      -0.021   1.732   0.012  0.00  0.00    +0.060 A 
ATOM     26  C   UNL     1       1.165   2.437   0.004  0.00  0.00    +0.031 A 
ATOM     27 CL   UNL     1       0.002  -0.004   0.002  0.00  0.00    -0.082 Cl
ATOM     28 CL   UNL     1      -2.720   1.514   0.024  0.00  0.00    -0.082 Cl
ENDBRANCH  20  21
ENDBRANCH  17  19
ENDBRANCH  14  15
TORSDOF 3
