REMARK  Name = ZINC25182151
REMARK  9 active torsions:
REMARK  status: ('A' for Active; 'I' for Inactive)
REMARK    1  A    between atoms: C_1  and  C_2
REMARK    2  A    between atoms: C_5  and  C_8
REMARK    3  A    between atoms: C_8  and  N_26
REMARK    4  A    between atoms: N_15  and  C_18
REMARK    5  A    between atoms: C_21  and  O_24
REMARK    6  A    between atoms: O_24  and  C_25
REMARK    7  A    between atoms: N_26  and  C_27
REMARK    8  A    between atoms: C_27  and  C_28
REMARK    9  A    between atoms: C_28  and  C_29
REMARK                            x       y       z     vdW  Elec       q    Type
REMARK                         _______ _______ _______ _____ _____    ______ ____
ROOT
ATOM      1  C   UNL     1       1.395  -4.387   0.053  0.00  0.00    +0.052 C 
ATOM      2  C   UNL     1       0.814  -4.980   1.177  0.00  0.00    +0.121 C 
ATOM      3  C   UNL     1       0.162  -6.296   1.097  0.00  0.00    +0.258 C 
ATOM      4  O   UNL     1       0.110  -6.905   0.045  0.00  0.00    -0.269 OA
ATOM      5  N   UNL     1      -0.379  -6.810   2.221  0.00  0.00    -0.235 N 
ATOM      6  C   UNL     1      -0.329  -6.149   3.387  0.00  0.00    +0.320 C 
ATOM      7  O   UNL     1      -0.834  -6.666   4.364  0.00  0.00    -0.251 OA
ATOM      8  N   UNL     1       0.249  -4.948   3.530  0.00  0.00    -0.190 N 
ATOM      9  C   UNL     1       0.834  -4.319   2.490  0.00  0.00    +0.265 C 
ATOM     10  O   UNL     1       1.361  -3.232   2.633  0.00  0.00    -0.269 OA
ATOM     11  H   UNL     1      -0.813  -7.676   2.186  0.00  0.00    +0.159 HD
ENDROOT
BRANCH   1  16
ATOM     12  C   UNL     1       4.542   0.393   0.630  0.00  0.00    +0.044 C 
ATOM     13  C   UNL     1       3.717  -0.860   0.479  0.00  0.00    -0.050 A 
ATOM     14  C   UNL     1       4.009  -1.973   1.247  0.00  0.00    +0.004 A 
ATOM     15  C   UNL     1       3.259  -3.123   1.115  0.00  0.00    +0.010 A 
ATOM     16  C   UNL     1       2.201  -3.162   0.201  0.00  0.00    -0.003 A 
ATOM     17  C   UNL     1       1.913  -2.033  -0.572  0.00  0.00    +0.010 A 
ATOM     18  C   UNL     1       2.668  -0.889  -0.424  0.00  0.00    +0.004 A 
ENDBRANCH   1  16
BRANCH   8  19
ATOM     19  C   UNL     1       0.252  -4.334   4.792  0.00  0.00    +0.046 A 
ATOM     20  C   UNL     1      -0.764  -3.453   5.137  0.00  0.00    +0.027 A 
ATOM     21  C   UNL     1      -0.762  -2.849   6.379  0.00  0.00    +0.047 A 
ATOM     22  C   UNL     1       0.256  -3.123   7.281  0.00  0.00    +0.120 A 
ATOM     23  C   UNL     1       1.271  -4.003   6.937  0.00  0.00    +0.047 A 
ATOM     24  C   UNL     1       1.267  -4.612   5.697  0.00  0.00    +0.027 A 
BRANCH  22  25
ATOM     25  O   UNL     1       0.258  -2.528   8.503  0.00  0.00    -0.495 OA
ATOM     26  C   UNL     1       1.336  -2.855   9.382  0.00  0.00    +0.277 C 
ENDBRANCH  22  25
ENDBRANCH   8  19
BRANCH   1  27
ATOM     27  N   UNL     1       1.217  -4.941  -1.181  0.00  0.00    -0.342 N 
ATOM     28  H   UNL     1       0.321  -5.081  -1.524  0.00  0.00    +0.146 HD
BRANCH  27  29
ATOM     29  C   UNL     1       2.378  -5.324  -1.986  0.00  0.00    +0.106 C 
BRANCH  29  30
ATOM     30  C   UNL     1       1.909  -5.815  -3.358  0.00  0.00    +0.056 C 
BRANCH  30  31
ATOM     31  C   UNL     1       3.104  -6.209  -4.186  0.00  0.00    -0.021 A 
ATOM     32  C   UNL     1       3.750  -5.437  -5.074  0.00  0.00    +0.087 A 
ATOM     33  N   UNL     1       4.786  -6.136  -5.633  0.00  0.00    -0.360 N 
ATOM     34  H   UNL     1       5.396  -5.787  -6.302  0.00  0.00    +0.165 HD
ATOM     35  C   UNL     1       4.832  -7.407  -5.106  0.00  0.00    +0.047 A 
ATOM     36  C   UNL     1       3.784  -7.507  -4.172  0.00  0.00    +0.003 A 
ATOM     37  C   UNL     1       3.589  -8.697  -3.469  0.00  0.00    +0.010 A 
ATOM     38  C   UNL     1       4.421  -9.759  -3.689  0.00  0.00    +0.001 A 
ATOM     39  C   UNL     1       5.458  -9.664  -4.606  0.00  0.00    +0.002 A 
ATOM     40  C   UNL     1       5.663  -8.502  -5.318  0.00  0.00    +0.026 A 
ENDBRANCH  30  31
ENDBRANCH  29  30
ENDBRANCH  27  29
ENDBRANCH   1  27
TORSDOF 7
