REMARK  Name = ZINC39542129
REMARK  7 active torsions:
REMARK  status: ('A' for Active; 'I' for Inactive)
REMARK    1  A    between atoms: C_1  and  C_2
REMARK    2  A    between atoms: C_2  and  C_3
REMARK    3  A    between atoms: C_2  and  S_4
REMARK    4  A    between atoms: S_4  and  N_7
REMARK    5  A    between atoms: C_20  and  C_30
REMARK    6  A    between atoms: C_21  and  O_29
REMARK    7  A    between atoms: C_35  and  O_36
REMARK                            x       y       z     vdW  Elec       q    Type
REMARK                         _______ _______ _______ _____ _____    ______ ____
ROOT
ATOM      1  N   UNL     1      -2.389  -0.021  -1.361  0.00  0.00    -0.211 N 
ATOM      2  C   UNL     1      -3.044   1.176  -1.464  0.00  0.00    +0.073 A 
ATOM      3  C   UNL     1      -3.310   2.166  -0.521  0.00  0.00    +0.028 A 
ATOM      4  C   UNL     1      -4.009   3.278  -0.957  0.00  0.00    +0.002 A 
ATOM      5  C   UNL     1      -4.433   3.414  -2.269  0.00  0.00    +0.001 A 
ATOM      6  C   UNL     1      -4.187   2.458  -3.220  0.00  0.00    +0.010 A 
ATOM      7  C   UNL     1      -3.479   1.317  -2.812  0.00  0.00    +0.006 A 
ATOM      8  C   UNL     1      -3.061   0.177  -3.490  0.00  0.00    -0.008 A 
ATOM      9  C   UNL     1      -2.394  -0.626  -2.590  0.00  0.00    +0.112 A 
ATOM     10  C   UNL     1      -1.830  -1.916  -3.028  0.00  0.00    +0.163 A 
ATOM     11  N   UNL     1      -1.512  -2.831  -2.148  0.00  0.00    -0.227 NA
ATOM     12  C   UNL     1      -1.026  -4.034  -2.514  0.00  0.00    +0.079 A 
ATOM     13  C   UNL     1      -0.677  -4.995  -1.564  0.00  0.00    +0.040 A 
ATOM     14  C   UNL     1      -0.189  -6.226  -1.979  0.00  0.00    +0.029 A 
ATOM     15  C   UNL     1      -0.048  -6.512  -3.347  0.00  0.00    +0.126 A 
ATOM     16  C   UNL     1      -0.385  -5.568  -4.295  0.00  0.00    +0.061 A 
ATOM     17  C   UNL     1      -0.872  -4.325  -3.890  0.00  0.00    +0.068 A 
ATOM     18  C   UNL     1      -1.229  -3.284  -4.864  0.00  0.00    +0.262 A 
ATOM     19  O   UNL     1      -1.136  -3.485  -6.061  0.00  0.00    -0.267 OA
ATOM     20  N   UNL     1      -1.664  -2.096  -4.387  0.00  0.00    -0.291 N 
ATOM     21  C   UNL     1      -1.923  -0.996  -5.322  0.00  0.00    +0.131 C 
ATOM     22  C   UNL     1      -3.217  -0.253  -4.929  0.00  0.00    +0.060 C 
ENDROOT
BRANCH  14  23
ATOM     23  C   UNL     1       0.185  -7.247  -0.972  0.00  0.00    +0.027 A 
ATOM     24  C   UNL     1      -0.790  -7.809  -0.149  0.00  0.00    +0.012 A 
ATOM     25  C   UNL     1      -0.436  -8.759   0.787  0.00  0.00    +0.001 A 
ATOM     26  C   UNL     1       0.884  -9.156   0.912  0.00  0.00    +0.004 A 
ATOM     27  C   UNL     1       1.858  -8.606   0.102  0.00  0.00    +0.046 A 
ATOM     28  C   UNL     1       1.517  -7.655  -0.847  0.00  0.00    +0.125 A 
BRANCH  28  29
ATOM     29  O   UNL     1       2.473  -7.118  -1.648  0.00  0.00    -0.506 OA
ATOM     30  H   UNL     1       2.889  -6.324  -1.286  0.00  0.00    +0.292 HD
ENDBRANCH  28  29
ENDBRANCH  14  23
BRANCH   1  31
ATOM     31  S   UNL     1      -1.700  -0.632   0.015  0.00  0.00    +0.058 S 
ATOM     32  O   UNL     1      -1.703  -2.041  -0.172  0.00  0.00    -0.153 OA
ATOM     33  O   UNL     1      -2.431  -0.041   1.080  0.00  0.00    -0.153 OA
BRANCH  31  35
ATOM     34  C   UNL     1      -0.019   1.526   0.010  0.00  0.00    +0.033 C 
ATOM     35  C   UNL     1       0.002  -0.004   0.002  0.00  0.00    +0.148 C 
ATOM     36  C   UNL     1       0.742  -0.511   1.242  0.00  0.00    +0.033 C 
ENDBRANCH  31  35
ENDBRANCH   1  31
BRANCH  15  37
ATOM     37  O   UNL     1       0.425  -7.724  -3.739  0.00  0.00    -0.506 OA
ATOM     38  H   UNL     1      -0.264  -8.390  -3.873  0.00  0.00    +0.292 HD
ENDBRANCH  15  37
TORSDOF 5
