REMARK  Name = ZINC04811212
REMARK  7 active torsions:
REMARK  status: ('A' for Active; 'I' for Inactive)
REMARK    1  A    between atoms: C_1  and  C_2
REMARK    2  A    between atoms: C_2  and  C_3
REMARK    3  A    between atoms: C_2  and  C_4
REMARK    4  A    between atoms: C_2  and  O_20
REMARK    5  A    between atoms: N_6  and  C_7
REMARK    6  A    between atoms: C_8  and  C_17
REMARK    7  A    between atoms: O_20  and  C_21
REMARK                            x       y       z     vdW  Elec       q    Type
REMARK                         _______ _______ _______ _____ _____    ______ ____
ROOT
ATOM      1  C   UNL     1      -0.142   1.217   0.330  0.00  0.00    +0.261 C 
ATOM      2  O   UNL     1       0.968   1.702   0.397  0.00  0.00    -0.271 OA
ATOM      3  N   UNL     1      -0.314  -0.103   0.541  0.00  0.00    -0.276 N 
ATOM      4  H   UNL     1      -1.202  -0.490   0.487  0.00  0.00    +0.155 HD
ENDROOT
BRANCH   3   5
ATOM      5  C   UNL     1       0.777  -0.906   0.835  0.00  0.00    +0.085 A 
ATOM      6  C   UNL     1       0.800  -2.269   1.086  0.00  0.00    +0.068 A 
ATOM      7  C   UNL     1       2.091  -2.885   1.365  0.00  0.00    -0.023 A 
ATOM      8  C   UNL     1       3.139  -2.034   1.363  0.00  0.00    -0.004 A 
ATOM      9  S   UNL     1       2.441  -0.450   0.983  0.00  0.00    -0.077 S 
ATOM     10  C   UNL     1       4.576  -2.352   1.636  0.00  0.00    +0.043 C 
ATOM     11  C   UNL     1       4.992  -3.574   0.806  0.00  0.00    +0.005 C 
ATOM     12  C   UNL     1       4.710  -4.831   1.624  0.00  0.00    +0.001 C 
ATOM     13  C   UNL     1       3.477  -4.622   2.501  0.00  0.00    +0.005 C 
ATOM     14  C   UNL     1       2.245  -4.376   1.638  0.00  0.00    +0.037 C 
BRANCH   6  15
ATOM     15  C   UNL     1      -0.431  -3.064   1.069  0.00  0.00    +0.244 C 
ATOM     16  O   UNL     1      -0.806  -3.583   0.033  0.00  0.00    -0.270 OA
ATOM     17  N   UNL     1      -1.148  -3.222   2.199  0.00  0.00    -0.325 N 
ATOM     18  H   UNL     1      -0.849  -2.809   3.024  0.00  0.00    +0.145 HD
ATOM     19  H   UNL     1      -1.962  -3.748   2.187  0.00  0.00    +0.145 HD
ENDBRANCH   6  15
ENDBRANCH   3   5
BRANCH   1  21
ATOM     20  C   UNL     1      -1.988   1.593  -1.282  0.00  0.00    +0.065 C 
ATOM     21  C   UNL     1      -1.327   2.090   0.005  0.00  0.00    +0.180 C 
ATOM     22  C   UNL     1      -2.336   2.028   1.153  0.00  0.00    +0.065 C 
BRANCH  21  23
ATOM     23  O   UNL     1      -0.890   3.439  -0.174  0.00  0.00    -0.477 OA
BRANCH  23  24
ATOM     24  C   UNL     1       0.004   3.671  -1.171  0.00  0.00    +0.122 A 
ATOM     25  C   UNL     1       0.539   2.609  -1.885  0.00  0.00    +0.047 A 
ATOM     26  C   UNL     1       1.444   2.848  -2.901  0.00  0.00    +0.023 A 
ATOM     27  C   UNL     1       1.825   4.144  -3.199  0.00  0.00    +0.041 A 
ATOM     28  C   UNL     1       1.296   5.204  -2.484  0.00  0.00    +0.023 A 
ATOM     29  C   UNL     1       0.387   4.970  -1.471  0.00  0.00    +0.047 A 
ATOM     30 CL   UNL     1       2.967   4.441  -4.473  0.00  0.00    -0.084 Cl
ENDBRANCH  23  24
ENDBRANCH  21  23
ENDBRANCH   1  21
TORSDOF 5
