REMARK  Name = ZINC23038235
REMARK  9 active torsions:
REMARK  status: ('A' for Active; 'I' for Inactive)
REMARK    1  A    between atoms: C_1  and  C_2
REMARK    2  A    between atoms: C_2  and  C_3
REMARK    3  A    between atoms: C_3  and  N_4
REMARK    4  A    between atoms: N_4  and  C_5
REMARK    5  A    between atoms: N_4  and  C_21
REMARK    6  A    between atoms: C_5  and  C_6
REMARK    7  A    between atoms: C_21  and  C_22
REMARK    8  A    between atoms: N_24  and  C_25
REMARK    9  A    between atoms: C_30  and  C_31
REMARK                            x       y       z     vdW  Elec       q    Type
REMARK                         _______ _______ _______ _____ _____    ______ ____
ROOT
ATOM      1  C   UNL     1       2.114   2.747   6.271  0.00  0.00    -0.001 C 
ENDROOT
BRANCH   1   2
ATOM      2  C   UNL     1       1.971   2.379   4.816  0.00  0.00    +0.116 A 
ATOM      3  N   UNL     1       3.047   2.346   4.050  0.00  0.00    -0.219 NA
ATOM      4  C   UNL     1       2.988   2.030   2.766  0.00  0.00    +0.128 A 
ATOM      5  C   UNL     1       1.726   1.716   2.189  0.00  0.00    +0.051 A 
ATOM      6  C   UNL     1       1.422   1.337   0.802  0.00  0.00    -0.025 A 
ATOM      7  C   UNL     1       0.130   1.103   0.509  0.00  0.00    -0.004 A 
ATOM      8  S   UNL     1      -0.747   1.339   2.034  0.00  0.00    -0.073 S 
ATOM      9  C   UNL     1       0.627   1.775   3.067  0.00  0.00    +0.114 A 
ATOM     10  N   UNL     1       0.775   2.099   4.337  0.00  0.00    -0.227 NA
ATOM     11  C   UNL     1      -0.454   0.726  -0.817  0.00  0.00    +0.043 C 
ATOM     12  C   UNL     1       0.352  -0.434  -1.417  0.00  0.00    +0.005 C 
ATOM     13  C   UNL     1       1.486   0.152  -2.252  0.00  0.00    +0.001 C 
ATOM     14  C   UNL     1       1.968   1.463  -1.633  0.00  0.00    +0.005 C 
ATOM     15  C   UNL     1       2.532   1.217  -0.238  0.00  0.00    +0.037 C 
ATOM     16  N   UNL     1       4.137   2.006   1.997  0.00  0.00    -0.343 N 
ATOM     17  H   UNL     1       4.079   1.742   0.930  0.00  0.00    +0.144 HD
ATOM     18  H   UNL     1       5.108   2.249   2.451  0.00  0.00    +0.144 HD
ENDBRANCH   1   2
BRANCH   1  19
ATOM     19  N   UNL     1       2.346   1.532   7.063  0.00  0.00    +0.390 N 
ATOM     20  H   UNL     1       1.557   0.808   6.811  0.00  0.00    -0.081 HD
BRANCH  19  21
ATOM     21  C   UNL     1       3.640   0.924   6.727  0.00  0.00    -0.078 C 
BRANCH  21  23
ATOM     22  C   UNL     1       6.109   1.300   6.640  0.00  0.00    +0.002 C 
ATOM     23  C   UNL     1       4.756   1.948   6.944  0.00  0.00    -0.022 C 
ENDBRANCH  21  23
ENDBRANCH  19  21
BRANCH  19  24
ATOM     24  C   UNL     1       2.255   1.815   8.501  0.00  0.00    +0.019 C 
BRANCH  24  25
ATOM     25  C   UNL     1       2.113   0.521   9.260  0.00  0.00    +0.201 C 
ATOM     26  O   UNL     1       1.990  -0.524   8.659  0.00  0.00    -0.278 OA
ATOM     27  N   UNL     1       2.123   0.526  10.608  0.00  0.00    -0.287 N 
ATOM     28  H   UNL     1       2.159   1.480  11.155  0.00  0.00    +0.155 HD
BRANCH  27  29
ATOM     29  C   UNL     1       2.086  -0.683  11.312  0.00  0.00    +0.036 A 
ATOM     30  C   UNL     1       1.489  -1.801  10.745  0.00  0.00    +0.023 A 
ATOM     31  C   UNL     1       1.458  -2.993  11.441  0.00  0.00    +0.002 A 
ATOM     32  C   UNL     1       2.014  -3.072  12.705  0.00  0.00    +0.000 A 
ATOM     33  C   UNL     1       2.604  -1.960  13.274  0.00  0.00    +0.005 A 
ATOM     34  C   UNL     1       2.642  -0.765  12.582  0.00  0.00    -0.029 A 
ATOM     35  C   UNL     1       3.285   0.447  13.204  0.00  0.00    +0.045 C 
ENDBRANCH  27  29
ENDBRANCH  24  25
ENDBRANCH  19  24
ENDBRANCH   1  19
TORSDOF 7
