REMARK  Name = ZINC06409864
REMARK  12 active torsions:
REMARK  status: ('A' for Active; 'I' for Inactive)
REMARK    1  A    between atoms: C_1  and  C_2
REMARK    2  A    between atoms: C_7  and  C_14
REMARK    3  A    between atoms: C_14  and  C_16
REMARK    4  A    between atoms: C_14  and  N_64
REMARK    5  A    between atoms: N_20  and  C_21
REMARK    6  A    between atoms: C_21  and  C_22
REMARK    7  A    between atoms: C_22  and  O_23
REMARK    8  A    between atoms: O_23  and  C_24
REMARK    9  A    between atoms: C_25  and  C_26
REMARK   10  A    between atoms: C_25  and  N_64
REMARK   11  A    between atoms: C_33  and  C_34
REMARK   12  A    between atoms: C_33  and  N_64
REMARK                            x       y       z     vdW  Elec       q    Type
REMARK                         _______ _______ _______ _____ _____    ______ ____
ROOT
ATOM      1  C   UNL     1      -5.091   0.300  -0.289  0.00  0.00    +0.040 C 
ENDROOT
BRANCH   1   8
ATOM      2  C   UNL     1       2.567   2.125   0.997  0.00  0.00    +0.044 C 
ATOM      3  C   UNL     1       1.089   1.828   0.980  0.00  0.00    -0.048 A 
ATOM      4  C   UNL     1       0.350   1.954   2.149  0.00  0.00    +0.004 A 
ATOM      5  C   UNL     1      -0.990   1.690   2.155  0.00  0.00    +0.010 A 
ATOM      6  C   UNL     1      -1.622   1.282   0.976  0.00  0.00    -0.001 A 
ATOM      7  C   UNL     1      -3.057   0.995   0.947  0.00  0.00    +0.017 A 
ATOM      8  C   UNL     1      -3.617   0.608  -0.226  0.00  0.00    +0.011 A 
ATOM      9  C   UNL     1      -2.824   0.493  -1.388  0.00  0.00    +0.251 A 
ATOM     10  O   UNL     1      -3.346   0.143  -2.432  0.00  0.00    -0.268 OA
ATOM     11  N   UNL     1      -1.506   0.759  -1.372  0.00  0.00    -0.322 N 
ATOM     12  H   UNL     1      -0.990   0.670  -2.189  0.00  0.00    +0.169 HD
ATOM     13  C   UNL     1      -0.877   1.157  -0.211  0.00  0.00    +0.049 A 
ATOM     14  C   UNL     1       0.487   1.432  -0.194  0.00  0.00    +0.029 A 
ENDBRANCH   1   8
BRANCH   1  15
ATOM     15  C   UNL     1      -5.685   0.402   1.091  0.00  0.00    +0.143 A 
ATOM     16  N   UNL     1      -5.968   1.504   1.742  0.00  0.00    -0.115 NA
ATOM     17  N   UNL     1      -6.462   1.175   2.886  0.00  0.00    -0.023 NA
ATOM     18  N   UNL     1      -6.493  -0.108   2.985  0.00  0.00    -0.044 NA
ATOM     19  N   UNL     1      -6.022  -0.621   1.899  0.00  0.00    -0.228 N 
BRANCH  19  20
ATOM     20  C   UNL     1      -5.881  -2.048   1.600  0.00  0.00    +0.175 C 
BRANCH  20  21
ATOM     21  C   UNL     1      -4.507  -2.533   2.065  0.00  0.00    +0.183 C 
BRANCH  21  22
ATOM     22  O   UNL     1      -4.369  -3.925   1.774  0.00  0.00    -0.381 OA
ATOM     23  C   UNL     1      -3.114  -4.481   2.171  0.00  0.00    +0.194 C 
ENDBRANCH  21  22
ENDBRANCH  20  21
ENDBRANCH  19  20
ENDBRANCH   1  15
BRANCH   1  24
ATOM     24  N   UNL     1      -5.743   1.258  -1.207  0.00  0.00    +0.397 N 
ATOM     25  H   UNL     1      -5.347   1.142  -2.147  0.00  0.00    -0.079 HD
BRANCH  24  26
ATOM     26  C   UNL     1      -7.196   0.995  -1.262  0.00  0.00    -0.041 C 
BRANCH  26  27
ATOM     27  C   UNL     1      -7.772   1.710  -2.457  0.00  0.00    -0.064 A 
ATOM     28  C   UNL     1      -8.374   2.945  -2.299  0.00  0.00    +0.003 A 
ATOM     29  C   UNL     1      -8.897   3.604  -3.396  0.00  0.00    +0.020 A 
ATOM     30  C   UNL     1      -8.829   3.023  -4.649  0.00  0.00    +0.041 A 
ATOM     31  C   UNL     1      -8.232   1.784  -4.805  0.00  0.00    +0.020 A 
ATOM     32  C   UNL     1      -7.704   1.129  -3.709  0.00  0.00    +0.003 A 
ATOM     33 CL   UNL     1      -9.492   3.847  -6.026  0.00  0.00    -0.084 Cl
ENDBRANCH  26  27
ENDBRANCH  24  26
BRANCH  24  34
ATOM     34  C   UNL     1      -5.497   2.642  -0.750  0.00  0.00    -0.001 C 
BRANCH  34  35
ATOM     35  C   UNL     1      -4.211   3.129  -1.366  0.00  0.00    +0.089 A 
ATOM     36  C   UNL     1      -4.076   3.646  -2.600  0.00  0.00    +0.042 A 
ATOM     37  C   UNL     1      -2.709   3.968  -2.763  0.00  0.00    +0.041 A 
ATOM     38  C   UNL     1      -2.090   3.628  -1.618  0.00  0.00    +0.195 A 
ATOM     39  O   UNL     1      -3.005   3.126  -0.773  0.00  0.00    -0.470 OA
ENDBRANCH  34  35
ENDBRANCH  24  34
ENDBRANCH   1  24
TORSDOF 10
