REMARK  Name = ZINC53631889
REMARK  11 active torsions:
REMARK  status: ('A' for Active; 'I' for Inactive)
REMARK    1  A    between atoms: C_1  and  C_2
REMARK    2  A    between atoms: C_8  and  C_16
REMARK    3  A    between atoms: C_10  and  C_14
REMARK    4  A    between atoms: C_11  and  N_13
REMARK    5  A    between atoms: C_18  and  O_25
REMARK    6  A    between atoms: C_19  and  O_23
REMARK    7  A    between atoms: O_23  and  C_24
REMARK    8  A    between atoms: O_25  and  C_26
REMARK    9  A    between atoms: N_29  and  C_30
REMARK   10  A    between atoms: C_30  and  C_31
REMARK   11  A    between atoms: C_31  and  C_32
REMARK                            x       y       z     vdW  Elec       q    Type
REMARK                         _______ _______ _______ _____ _____    ______ ____
ROOT
ATOM      1  C   UNL     1       0.005   1.734   0.333  0.00  0.00    +0.032 C 
ATOM      2  C   UNL     1      -0.008   0.228   0.062  0.00  0.00    +0.099 C 
ATOM      3  C   UNL     1      -1.420  -0.257   0.094  0.00  0.00    +0.037 C 
ATOM      4  C   UNL     1      -1.880  -1.149   0.921  0.00  0.00    +0.118 C 
ATOM      5  C   UNL     1      -1.033  -1.814   1.975  0.00  0.00    +0.153 C 
ATOM      6  C   UNL     1      -1.102  -3.329   1.747  0.00  0.00    +0.084 C 
ATOM      7  C   UNL     1      -2.522  -3.725   1.447  0.00  0.00    +0.095 C 
ATOM      8  C   UNL     1      -3.454  -2.842   1.025  0.00  0.00    +0.198 C 
ATOM      9  O   UNL     1      -3.193  -1.528   0.859  0.00  0.00    -0.445 OA
ATOM     10  C   UNL     1       0.390  -1.361   1.899  0.00  0.00    +0.227 C 
ATOM     11  O   UNL     1       1.187  -1.850   2.672  0.00  0.00    -0.275 OA
ATOM     12  N   UNL     1       0.826  -0.434   1.050  0.00  0.00    -0.294 N 
ENDROOT
BRANCH   6  13
ATOM     13  C   UNL     1      -0.219  -3.704   0.585  0.00  0.00    -0.033 A 
ATOM     14  C   UNL     1       0.827  -4.590   0.771  0.00  0.00    +0.053 A 
ATOM     15  C   UNL     1       1.640  -4.935  -0.297  0.00  0.00    +0.163 A 
ATOM     16  C   UNL     1       1.401  -4.390  -1.555  0.00  0.00    +0.175 A 
ATOM     17  C   UNL     1       0.351  -3.504  -1.734  0.00  0.00    +0.063 A 
ATOM     18  C   UNL     1      -0.460  -3.167  -0.665  0.00  0.00    +0.023 A 
ATOM     19 BR   UNL     1       0.022  -2.761  -3.442  0.00  0.00    -0.046 Br
BRANCH  16  20
ATOM     20  O   UNL     1       2.196  -4.727  -2.605  0.00  0.00    -0.490 OA
ATOM     21  C   UNL     1       1.802  -5.860  -3.381  0.00  0.00    +0.277 C 
ENDBRANCH  16  20
BRANCH  15  22
ATOM     22  O   UNL     1       2.669  -5.805  -0.115  0.00  0.00    -0.491 OA
ATOM     23  C   UNL     1       2.855  -6.324   1.203  0.00  0.00    +0.277 C 
ENDBRANCH  15  22
ENDBRANCH   6  13
BRANCH   8  24
ATOM     24  N   UNL     1      -4.719  -3.300   0.753  0.00  0.00    -0.328 N 
ATOM     25  H   UNL     1      -4.928  -4.241   0.865  0.00  0.00    +0.145 HD
ATOM     26  H   UNL     1      -5.403  -2.684   0.448  0.00  0.00    +0.145 HD
ENDBRANCH   8  24
BRANCH   7  27
ATOM     27  C   UNL     1      -2.903  -5.095   1.616  0.00  0.00    +0.100 C 
ATOM     28  N   UNL     1      -3.205  -6.182   1.750  0.00  0.00    -0.191 NA
ENDBRANCH   7  27
BRANCH  12  29
ATOM     29  C   UNL     1       2.245  -0.071   1.105  0.00  0.00    +0.114 C 
BRANCH  29  30
ATOM     30  C   UNL     1       3.054  -1.045   0.245  0.00  0.00    +0.073 C 
BRANCH  30  31
ATOM     31  C   UNL     1       4.519  -0.709   0.351  0.00  0.00    +0.035 A 
ATOM     32  H   UNL     1       7.403  -0.722   1.542  0.00  0.00    +0.166 HD
ATOM     33  C   UNL     1       5.361  -1.133   1.313  0.00  0.00    +0.105 A 
ATOM     34  N   UNL     1       6.588  -0.598   1.029  0.00  0.00    -0.352 N 
ATOM     35  C   UNL     1       6.454   0.134  -0.098  0.00  0.00    +0.171 A 
ATOM     36  N   UNL     1       5.215   0.059  -0.500  0.00  0.00    -0.350 N 
ATOM     37  H   UNL     1       4.854   0.491  -1.290  0.00  0.00    +0.166 HD
ENDBRANCH  30  31
ENDBRANCH  29  30
ENDBRANCH  12  29
TORSDOF 8
