REMARK  Name = ZINC06576263
REMARK  6 active torsions:
REMARK  status: ('A' for Active; 'I' for Inactive)
REMARK    1  A    between atoms: C_7  and  O_24
REMARK    2  A    between atoms: C_8  and  N_13
REMARK    3  A    between atoms: C_10  and  O_11
REMARK    4  A    between atoms: N_14  and  C_15
REMARK    5  A    between atoms: C_15  and  C_17
REMARK    6  A    between atoms: C_22  and  O_23
REMARK                            x       y       z     vdW  Elec       q    Type
REMARK                         _______ _______ _______ _____ _____    ______ ____
ROOT
ATOM      1  C   UNL     1      -0.013   1.076   0.008  0.00  0.00    +0.001 A 
ATOM      2  C   UNL     1      -1.233   1.746   0.017  0.00  0.00    +0.001 A 
ATOM      3  C   UNL     1      -1.285   3.108   0.031  0.00  0.00    +0.012 A 
ATOM      4  C   UNL     1      -0.095   3.850   0.024  0.00  0.00    +0.029 A 
ATOM      5  C   UNL     1       1.147   3.169   0.008  0.00  0.00    +0.029 A 
ATOM      6  C   UNL     1       1.163   1.764   0.000  0.00  0.00    +0.012 A 
ATOM      7  C   UNL     1       2.346   3.909   0.000  0.00  0.00    +0.153 A 
ATOM      8  C   UNL     1       2.288   5.309   0.008  0.00  0.00    +0.147 A 
ATOM      9  C   UNL     1       1.040   5.970   0.023  0.00  0.00    +0.113 A 
ATOM     10  C   UNL     1      -0.121   5.264   0.031  0.00  0.00    +0.145 A 
ATOM     11 CL   UNL     1       0.990   7.705   0.032  0.00  0.00    -0.077 Cl
ENDROOT
BRANCH  10  12
ATOM     12  O   UNL     1      -1.312   5.920   0.046  0.00  0.00    -0.505 OA
ATOM     13  H   UNL     1      -1.648   6.105   0.934  0.00  0.00    +0.292 HD
ENDBRANCH  10  12
BRANCH   8  14
ATOM     14  N   UNL     1       3.428   6.027   0.002  0.00  0.00    -0.152 NA
ATOM     15  N   UNL     1       3.378   7.316   0.009  0.00  0.00    -0.075 NA
BRANCH  15  16
ATOM     16  C   UNL     1       4.519   8.034   0.002  0.00  0.00    +0.288 C 
ATOM     17  O   UNL     1       5.595   7.467  -0.011  0.00  0.00    -0.266 OA
BRANCH  16  18
ATOM     18  C   UNL     1       4.462   9.509   0.011  0.00  0.00    +0.081 A 
ATOM     19  C   UNL     1       3.228  10.165   0.020  0.00  0.00    +0.017 A 
ATOM     20  C   UNL     1       3.182  11.541   0.032  0.00  0.00    +0.001 A 
ATOM     21  C   UNL     1       4.354  12.280   0.026  0.00  0.00    +0.004 A 
ATOM     22  C   UNL     1       5.580  11.646   0.011  0.00  0.00    +0.046 A 
ATOM     23  C   UNL     1       5.646  10.260   0.004  0.00  0.00    +0.129 A 
BRANCH  23  24
ATOM     24  O   UNL     1       6.850   9.636  -0.010  0.00  0.00    -0.506 OA
ATOM     25  H   UNL     1       7.191   9.459  -0.898  0.00  0.00    +0.292 HD
ENDBRANCH  23  24
ENDBRANCH  16  18
ENDBRANCH  15  16
ENDBRANCH   8  14
BRANCH   7  26
ATOM     26  O   UNL     1       3.541   3.273  -0.014  0.00  0.00    -0.504 OA
ATOM     27  H   UNL     1       3.880   3.093  -0.902  0.00  0.00    +0.292 HD
ENDBRANCH   7  26
TORSDOF 6
