REMARK  Name = ZINC25339006
REMARK  9 active torsions:
REMARK  status: ('A' for Active; 'I' for Inactive)
REMARK    1  A    between atoms: C_1  and  C_2
REMARK    2  A    between atoms: C_2  and  C_3
REMARK    3  A    between atoms: C_2  and  C_4
REMARK    4  A    between atoms: C_4  and  C_6
REMARK    5  A    between atoms: C_4  and  N_19
REMARK    6  A    between atoms: N_8  and  N_9
REMARK    7  A    between atoms: C_10  and  C_12
REMARK    8  A    between atoms: C_12  and  C_13
REMARK    9  A    between atoms: N_22  and  C_23
REMARK                            x       y       z     vdW  Elec       q    Type
REMARK                         _______ _______ _______ _____ _____    ______ ____
ROOT
ATOM      1  C   UNL     1      -0.072  -4.223   4.864  0.00  0.00    +0.164 C 
ENDROOT
BRANCH   1   2
ATOM      2  N   UNL     1       0.204  -5.652   4.697  0.00  0.00    -0.288 N 
ATOM      3  C   UNL     1       0.813  -6.340   5.683  0.00  0.00    +0.304 C 
ATOM      4  O   UNL     1       1.133  -5.775   6.711  0.00  0.00    -0.252 OA
ATOM      5  N   UNL     1       1.067  -7.655   5.530  0.00  0.00    -0.269 N 
ATOM      6  H   UNL     1      -0.085  -6.163   3.768  0.00  0.00    +0.151 HD
ATOM      7  H   UNL     1       0.702  -8.185   4.638  0.00  0.00    +0.156 HD
BRANCH   5   8
ATOM      8  C   UNL     1       1.795  -8.346   6.505  0.00  0.00    +0.035 A 
ATOM      9  C   UNL     1       2.802  -7.699   7.210  0.00  0.00    +0.023 A 
ATOM     10  C   UNL     1       3.515  -8.382   8.175  0.00  0.00    +0.002 A 
ATOM     11  C   UNL     1       3.235  -9.711   8.433  0.00  0.00    +0.000 A 
ATOM     12  C   UNL     1       2.236 -10.360   7.730  0.00  0.00    +0.002 A 
ATOM     13  C   UNL     1       1.516  -9.681   6.767  0.00  0.00    +0.023 A 
ENDBRANCH   5   8
ENDBRANCH   1   2
BRANCH   1  14
ATOM     14  C   UNL     1      -0.163  -3.567   3.510  0.00  0.00    +0.250 C 
ATOM     15  O   UNL     1      -0.511  -4.214   2.546  0.00  0.00    -0.272 OA
ATOM     16  N   UNL     1       0.143  -2.262   3.372  0.00  0.00    -0.233 N 
ATOM     17  H   UNL     1       0.378  -1.655   4.258  0.00  0.00    +0.173 HD
BRANCH  16  18
ATOM     18  N   UNL     1       0.161  -1.678   2.098  0.00  0.00    -0.234 N 
ATOM     19  C   UNL     1       0.467  -0.373   1.960  0.00  0.00    +0.233 C 
ATOM     20  O   UNL     1       0.726   0.296   2.937  0.00  0.00    -0.274 OA
ATOM     21  H   UNL     1      -0.074  -2.285   1.212  0.00  0.00    +0.173 HD
BRANCH  19  22
ATOM     22  C   UNL     1       0.487   0.255   0.590  0.00  0.00    +0.132 C 
BRANCH  22  23
ATOM     23  C   UNL     1       0.855   1.711   0.710  0.00  0.00    -0.039 A 
ATOM     24  C   UNL     1      -0.135   2.663   0.872  0.00  0.00    +0.004 A 
ATOM     25  C   UNL     1       0.203   3.998   0.988  0.00  0.00    +0.000 A 
ATOM     26  C   UNL     1       1.530   4.383   0.930  0.00  0.00    +0.000 A 
ATOM     27  C   UNL     1       2.518   3.432   0.762  0.00  0.00    +0.000 A 
ATOM     28  C   UNL     1       2.181   2.096   0.652  0.00  0.00    +0.004 A 
ENDBRANCH  22  23
ENDBRANCH  19  22
ENDBRANCH  16  18
ENDBRANCH   1  14
BRANCH   1  30
ATOM     29  C   UNL     1      -1.268  -4.612   7.023  0.00  0.00    +0.009 C 
ATOM     30  C   UNL     1      -1.396  -4.043   5.608  0.00  0.00    +0.012 C 
ATOM     31  C   UNL     1      -1.739  -2.554   5.687  0.00  0.00    +0.009 C 
ENDBRANCH   1  30
TORSDOF 7
