REMARK  Name = ZINC04954770
REMARK  3 active torsions:
REMARK  status: ('A' for Active; 'I' for Inactive)
REMARK    1  A    between atoms: C_1  and  C_2
REMARK    2  A    between atoms: N_11  and  C_15
REMARK    3  A    between atoms: C_15  and  C_16
REMARK                            x       y       z     vdW  Elec       q    Type
REMARK                         _______ _______ _______ _____ _____    ______ ____
ROOT
ATOM      1  C   UNL     1      -6.849   7.372  -3.434  0.00  0.00    +0.010 C 
ATOM      2  C   UNL     1      -7.488   6.013  -3.145  0.00  0.00    +0.018 C 
ATOM      3  C   UNL     1      -8.955   6.211  -2.755  0.00  0.00    +0.006 C 
ATOM      4  C   UNL     1      -9.588   4.853  -2.445  0.00  0.00    +0.000 C 
ATOM      5  C   UNL     1      -8.844   4.194  -1.282  0.00  0.00    +0.003 C 
ATOM      6  C   UNL     1      -7.377   3.988  -1.667  0.00  0.00    +0.035 C 
ATOM      7  C   UNL     1      -6.744   5.335  -2.000  0.00  0.00    +0.115 C 
ATOM      8  C   UNL     1      -5.284   5.164  -2.353  0.00  0.00    +0.247 C 
ATOM      9  O   UNL     1      -4.822   4.525  -3.274  0.00  0.00    -0.273 OA
ATOM     10  N   UNL     1      -4.604   5.871  -1.427  0.00  0.00    -0.220 N 
ATOM     11  C   UNL     1      -5.430   6.462  -0.554  0.00  0.00    +0.310 C 
ATOM     12  O   UNL     1      -5.052   7.157   0.369  0.00  0.00    -0.252 OA
ATOM     13  N   UNL     1      -6.725   6.201  -0.814  0.00  0.00    -0.285 N 
ATOM     14  H   UNL     1      -7.494   6.522  -0.317  0.00  0.00    +0.151 HD
ENDROOT
BRANCH  10  15
ATOM     15  C   UNL     1      -3.144   5.982  -1.384  0.00  0.00    +0.154 C 
BRANCH  15  16
ATOM     16  C   UNL     1      -2.569   4.778  -0.683  0.00  0.00    -0.012 A 
ATOM     17  C   UNL     1      -2.162   3.680  -1.419  0.00  0.00    +0.055 A 
ATOM     18  C   UNL     1      -1.633   2.573  -0.778  0.00  0.00    +0.167 A 
ATOM     19  C   UNL     1      -1.511   2.568   0.610  0.00  0.00    +0.167 A 
ATOM     20  C   UNL     1      -1.920   3.670   1.341  0.00  0.00    +0.065 A 
ATOM     21  C   UNL     1      -2.448   4.774   0.694  0.00  0.00    +0.026 A 
ATOM     22 BR   UNL     1      -3.005   6.278   1.695  0.00  0.00    -0.050 Br
ATOM     23  O   UNL     1      -0.965   1.376   0.998  0.00  0.00    -0.453 OA
ATOM     24  C   UNL     1      -0.382   0.818  -0.195  0.00  0.00    +0.466 C 
ATOM     25  O   UNL     1      -1.166   1.384  -1.261  0.00  0.00    -0.453 OA
ENDBRANCH  15  16
ENDBRANCH  10  15
TORSDOF 2
