REMARK  Name = ZINC67217821
REMARK  9 active torsions:
REMARK  status: ('A' for Active; 'I' for Inactive)
REMARK    1  A    between atoms: C_1  and  C_2
REMARK    2  A    between atoms: C_7  and  N_8
REMARK    3  A    between atoms: N_16  and  C_19
REMARK    4  A    between atoms: C_19  and  C_20
REMARK    5  A    between atoms: N_22  and  C_23
REMARK    6  A    between atoms: C_23  and  C_24
REMARK    7  A    between atoms: C_24  and  C_25
REMARK    8  A    between atoms: C_28  and  S_31
REMARK    9  A    between atoms: S_31  and  N_34
REMARK                            x       y       z     vdW  Elec       q    Type
REMARK                         _______ _______ _______ _____ _____    ______ ____
ROOT
ATOM      1  C   UNL     1       2.561   1.352   4.716  0.00  0.00    +0.222 C 
ENDROOT
BRANCH   1  10
ATOM      2  N   UNL     1       0.025  -0.013   2.418  0.00  0.00    -0.228 N 
ATOM      3  C   UNL     1      -1.146   0.299   3.019  0.00  0.00    +0.275 A 
ATOM      4  O   UNL     1      -2.206  -0.017   2.509  0.00  0.00    -0.266 OA
ATOM      5  C   UNL     1      -1.121   0.990   4.234  0.00  0.00    +0.101 A 
ATOM      6  C   UNL     1       0.085   1.361   4.836  0.00  0.00    +0.066 A 
ATOM      7  C   UNL     1      -0.076   2.041   6.039  0.00  0.00    +0.034 A 
ATOM      8  C   UNL     1      -1.319   2.279   6.512  0.00  0.00    +0.048 A 
ATOM      9  S   UNL     1      -2.342   1.601   5.362  0.00  0.00    -0.090 S 
ATOM     10  N   UNL     1       1.255   1.000   4.153  0.00  0.00    -0.284 N 
ATOM     11  C   UNL     1       1.191   0.333   2.990  0.00  0.00    +0.337 A 
ATOM     12  O   UNL     1       2.228   0.035   2.430  0.00  0.00    -0.246 OA
BRANCH   2  19
ATOM     13  C   UNL     1      -0.018   1.503   0.010  0.00  0.00    +0.046 C 
ATOM     14  C   UNL     1       0.002  -0.004   0.002  0.00  0.00    -0.026 A 
ATOM     15  C   UNL     1       0.006  -0.689  -1.198  0.00  0.00    +0.005 A 
ATOM     16  C   UNL     1       0.024  -2.071  -1.206  0.00  0.00    +0.000 A 
ATOM     17  C   UNL     1       0.040  -2.773  -0.014  0.00  0.00    +0.002 A 
ATOM     18  C   UNL     1       0.035  -2.094   1.188  0.00  0.00    +0.026 A 
ATOM     19  C   UNL     1       0.023  -0.705   1.200  0.00  0.00    +0.057 A 
ENDBRANCH   2  19
ENDBRANCH   1  10
BRANCH   1  20
ATOM     20  C   UNL     1       3.039   0.238   5.611  0.00  0.00    +0.233 C 
ATOM     21  O   UNL     1       2.356  -0.753   5.763  0.00  0.00    -0.274 OA
ATOM     22  N   UNL     1       4.225   0.342   6.242  0.00  0.00    -0.314 N 
ATOM     23  H   UNL     1       4.772   1.134   6.120  0.00  0.00    +0.149 HD
BRANCH  22  24
ATOM     24  C   UNL     1       4.689  -0.742   7.112  0.00  0.00    +0.109 C 
BRANCH  24  25
ATOM     25  C   UNL     1       6.053  -0.374   7.700  0.00  0.00    +0.054 C 
BRANCH  25  26
ATOM     26  C   UNL     1       6.531  -1.489   8.595  0.00  0.00    -0.046 A 
ATOM     27  C   UNL     1       6.203  -1.485   9.938  0.00  0.00    +0.005 A 
ATOM     28  C   UNL     1       6.641  -2.507  10.759  0.00  0.00    +0.029 A 
ATOM     29  C   UNL     1       7.407  -3.534  10.237  0.00  0.00    +0.105 A 
ATOM     30  C   UNL     1       7.734  -3.538   8.894  0.00  0.00    +0.029 A 
ATOM     31  C   UNL     1       7.292  -2.518   8.072  0.00  0.00    +0.005 A 
BRANCH  29  32
ATOM     32  S   UNL     1       7.966  -4.836  11.284  0.00  0.00    +0.056 S 
ATOM     33  O   UNL     1       9.121  -5.386  10.666  0.00  0.00    -0.153 OA
ATOM     34  O   UNL     1       7.985  -4.315  12.606  0.00  0.00    -0.153 OA
BRANCH  32  35
ATOM     35  N   UNL     1       6.806  -6.018  11.258  0.00  0.00    -0.204 NA
ATOM     36  H   UNL     1       6.005  -5.899  10.723  0.00  0.00    +0.144 HD
ATOM     37  H   UNL     1       6.928  -6.828  11.777  0.00  0.00    +0.144 HD
ENDBRANCH  32  35
ENDBRANCH  29  32
ENDBRANCH  25  26
ENDBRANCH  24  25
ENDBRANCH  22  24
ENDBRANCH   1  20
TORSDOF 8
