REMARK  Name = ZINC39696863
REMARK  6 active torsions:
REMARK  status: ('A' for Active; 'I' for Inactive)
REMARK    1  A    between atoms: C_1  and  N_2
REMARK    2  A    between atoms: C_6  and  C_9
REMARK    3  A    between atoms: C_9  and  N_10
REMARK    4  A    between atoms: C_11  and  C_13
REMARK    5  A    between atoms: C_24  and  C_26
REMARK    6  A    between atoms: C_29  and  C_31
REMARK                            x       y       z     vdW  Elec       q    Type
REMARK                         _______ _______ _______ _____ _____    ______ ____
ROOT
ATOM      1  C   UNL     1       1.989  -6.291   3.255  0.00  0.00    +0.100 C 
ATOM      2  C   UNL     1       0.557  -6.786   3.560  0.00  0.00    +0.121 C 
ATOM      3  N   UNL     1       0.749  -8.003   4.383  0.00  0.00    -0.294 N 
ATOM      4  C   UNL     1       1.884  -7.669   5.276  0.00  0.00    +0.115 C 
ATOM      5  C   UNL     1       2.857  -6.873   4.383  0.00  0.00    -0.004 C 
ATOM      6  C   UNL     1       3.505  -5.747   5.184  0.00  0.00    -0.010 C 
ATOM      7  C   UNL     1       4.409  -6.350   6.263  0.00  0.00    -0.082 C 
ATOM      8  N   UNL     1       5.438  -7.185   5.633  0.00  0.00    +0.379 N 
ATOM      9  C   UNL     1       4.810  -8.318   4.942  0.00  0.00    -0.082 C 
ATOM     10  C   UNL     1       3.923  -7.798   3.807  0.00  0.00    -0.010 C 
ATOM     11  C   UNL     1       0.050  -9.154   4.331  0.00  0.00    +0.282 C 
ATOM     12  O   UNL     1       0.330 -10.071   5.080  0.00  0.00    -0.267 OA
ATOM     13  H   UNL     1       5.956  -6.632   4.966  0.00  0.00    -0.086 HD
ATOM     14  H   UNL     1       6.068  -7.532   6.340  0.00  0.00    -0.086 HD
ENDROOT
BRANCH  11  15
ATOM     15  C   UNL     1      -1.049  -9.301   3.372  0.00  0.00    +0.190 A 
ATOM     16  C   UNL     1      -1.844 -10.415   3.218  0.00  0.00    +0.055 A 
ATOM     17  C   UNL     1      -2.756 -10.123   2.200  0.00  0.00    +0.050 A 
ATOM     18  C   UNL     1      -2.488  -8.853   1.773  0.00  0.00    +0.136 A 
ATOM     19  O   UNL     1      -1.461  -8.366   2.490  0.00  0.00    -0.450 OA
BRANCH  18  20
ATOM     20  C   UNL     1      -3.210  -8.133   0.705  0.00  0.00    +0.017 A 
ATOM     21  C   UNL     1      -4.272  -8.749   0.039  0.00  0.00    +0.014 A 
ATOM     22  C   UNL     1      -4.943  -8.072  -0.957  0.00  0.00    +0.039 A 
ATOM     23  C   UNL     1      -4.564  -6.783  -1.299  0.00  0.00    +0.123 A 
ATOM     24  C   UNL     1      -3.510  -6.167  -0.642  0.00  0.00    +0.039 A 
ATOM     25  C   UNL     1      -2.836  -6.832   0.360  0.00  0.00    +0.014 A 
ATOM     26  F   UNL     1      -5.225  -6.124  -2.276  0.00  0.00    -0.205 F 
ENDBRANCH  18  20
ENDBRANCH  11  15
BRANCH   1  28
ATOM     27  N   UNL     1       2.943  -4.131   2.520  0.00  0.00    -0.313 N 
ATOM     28  C   UNL     1       2.040  -4.785   3.276  0.00  0.00    +0.218 C 
ATOM     29  O   UNL     1       1.268  -4.162   3.974  0.00  0.00    -0.275 OA
ATOM     30  H   UNL     1       3.561  -4.629   1.962  0.00  0.00    +0.149 HD
BRANCH  27  31
ATOM     31  C   UNL     1       2.993  -2.667   2.541  0.00  0.00    +0.137 C 
BRANCH  31  37
ATOM     32  C   UNL     1       5.322   1.274   0.732  0.00  0.00    +0.105 C 
ATOM     33  N   UNL     1       5.268  -0.193   0.782  0.00  0.00    -0.301 NA
ATOM     34  C   UNL     1       6.543  -0.752   1.253  0.00  0.00    +0.112 C 
ATOM     35  C   UNL     1       6.463  -2.281   1.233  0.00  0.00    +0.175 C 
ATOM     36  O   UNL     1       5.357  -2.706   2.033  0.00  0.00    -0.372 OA
ATOM     37  C   UNL     1       4.098  -2.180   1.602  0.00  0.00    +0.149 C 
ATOM     38  C   UNL     1       4.155  -0.651   1.626  0.00  0.00    +0.117 C 
ENDBRANCH  31  37
ENDBRANCH  27  31
ENDBRANCH   1  28
TORSDOF 5
