REMARK  Name = ZINC09135758
REMARK  8 active torsions:
REMARK  status: ('A' for Active; 'I' for Inactive)
REMARK    1  A    between atoms: C_1  and  C_2
REMARK    2  A    between atoms: C_7  and  N_8
REMARK    3  A    between atoms: C_9  and  C_11
REMARK    4  A    between atoms: N_13  and  C_14
REMARK    5  A    between atoms: C_14  and  C_15
REMARK    6  A    between atoms: C_15  and  C_17
REMARK    7  A    between atoms: C_15  and  N_63
REMARK    8  A    between atoms: N_26  and  C_27
REMARK                            x       y       z     vdW  Elec       q    Type
REMARK                         _______ _______ _______ _____ _____    ______ ____
ROOT
ATOM      1  C   UNL     1       3.865  -2.308   4.030  0.00  0.00    -0.020 C 
ENDROOT
BRANCH   1   2
ATOM      2  C   UNL     1       2.821  -1.920   3.014  0.00  0.00    -0.059 A 
ATOM      3  C   UNL     1       1.715  -2.725   2.814  0.00  0.00    +0.004 A 
ATOM      4  C   UNL     1       0.764  -2.369   1.883  0.00  0.00    +0.023 A 
ATOM      5  C   UNL     1       0.907  -1.197   1.138  0.00  0.00    +0.033 A 
ATOM      6  C   UNL     1       2.013  -0.392   1.346  0.00  0.00    -0.026 A 
ATOM      7  C   UNL     1       2.968  -0.758   2.282  0.00  0.00    +0.007 A 
ATOM      8  C   UNL     1       2.219   0.895   0.588  0.00  0.00    +0.038 C 
ATOM      9  C   UNL     1       1.295   0.927  -0.632  0.00  0.00    +0.024 C 
ATOM     10  C   UNL     1      -0.110   0.518  -0.171  0.00  0.00    +0.105 C 
ATOM     11  N   UNL     1      -0.086  -0.896   0.208  0.00  0.00    -0.333 N 
ATOM     12  C   UNL     1      -1.404  -1.336   0.684  0.00  0.00    +0.129 C 
ENDBRANCH   1   2
BRANCH   1  17
ATOM     13  C   UNL     1       4.564  -4.167   2.621  0.00  0.00    -0.078 C 
ATOM     14  C   UNL     1       5.232  -5.541   2.882  0.00  0.00    -0.020 C 
ATOM     15  C   UNL     1       5.911  -5.340   4.256  0.00  0.00    -0.020 C 
ATOM     16  C   UNL     1       5.155  -4.169   4.911  0.00  0.00    -0.078 C 
ATOM     17  N   UNL     1       4.107  -3.781   3.966  0.00  0.00    +0.385 N 
ATOM     18  H   UNL     1       3.236  -4.276   4.191  0.00  0.00    -0.081 HD
ENDBRANCH   1  17
BRANCH   1  19
ATOM     19  C   UNL     1       3.381  -1.926   5.430  0.00  0.00    +0.094 C 
BRANCH  19  22
ATOM     20  C   UNL     1       2.767   0.097   6.642  0.00  0.00    +0.299 C 
ATOM     21  O   UNL     1       2.394  -0.603   7.561  0.00  0.00    -0.265 OA
ATOM     22  N   UNL     1       3.276  -0.468   5.529  0.00  0.00    -0.309 N 
ATOM     23  H   UNL     1       3.574   0.091   4.795  0.00  0.00    +0.149 HD
BRANCH  20  25
ATOM     24  N   UNL     1       2.150   2.148   7.856  0.00  0.00    -0.278 N 
ATOM     25  C   UNL     1       2.660   1.583   6.743  0.00  0.00    +0.303 C 
ATOM     26  O   UNL     1       3.033   2.282   5.824  0.00  0.00    -0.265 OA
ATOM     27  H   UNL     1       1.914   1.594   8.616  0.00  0.00    +0.155 HD
BRANCH  24  34
ATOM     28  C   UNL     1       0.084   3.152   9.534  0.00  0.00    +0.045 C 
ATOM     29  C   UNL     1       0.965   4.064   8.720  0.00  0.00    -0.029 A 
ATOM     30  C   UNL     1       0.781   5.432   8.775  0.00  0.00    +0.005 A 
ATOM     31  C   UNL     1       1.589   6.270   8.029  0.00  0.00    +0.000 A 
ATOM     32  C   UNL     1       2.583   5.742   7.225  0.00  0.00    +0.002 A 
ATOM     33  C   UNL     1       2.775   4.376   7.169  0.00  0.00    +0.023 A 
ATOM     34  C   UNL     1       1.962   3.531   7.914  0.00  0.00    +0.037 A 
ENDBRANCH  24  34
ENDBRANCH  20  25
ENDBRANCH  19  22
ENDBRANCH   1  19
TORSDOF 6
