REMARK  Name = ZINC40058090
REMARK  4 active torsions:
REMARK  status: ('A' for Active; 'I' for Inactive)
REMARK    1  A    between atoms: N_10  and  N_11
REMARK    2  A    between atoms: N_14  and  C_15
REMARK    3  A    between atoms: C_15  and  C_16
REMARK    4  A    between atoms: C_16  and  C_17
REMARK                            x       y       z     vdW  Elec       q    Type
REMARK                         _______ _______ _______ _____ _____    ______ ____
ROOT
ATOM      1  N   UNL     1       4.313  -4.297  -0.062  0.00  0.00    -0.219 N 
ATOM      2  C   UNL     1       4.651  -5.602  -0.072  0.00  0.00    +0.316 C 
ATOM      3  O   UNL     1       5.823  -5.926  -0.085  0.00  0.00    -0.251 OA
ATOM      4  N   UNL     1       3.691  -6.547  -0.067  0.00  0.00    -0.298 N 
ATOM      5  H   UNL     1       5.004  -3.617  -0.065  0.00  0.00    +0.174 HD
ATOM      6  H   UNL     1       2.756  -6.289  -0.057  0.00  0.00    +0.150 HD
ENDROOT
BRANCH   1  16
ATOM      7  C   UNL     1      -0.017   1.366   0.010  0.00  0.00    +0.002 A 
ATOM      8  C   UNL     1       1.156   2.107   0.002  0.00  0.00    +0.001 A 
ATOM      9  C   UNL     1       2.373   1.449  -0.013  0.00  0.00    +0.017 A 
ATOM     10  C   UNL     1       2.401   0.077  -0.021  0.00  0.00    +0.041 A 
ATOM     11  C   UNL     1       1.227  -0.710  -0.013  0.00  0.00    +0.080 A 
ATOM     12  C   UNL     1       0.002  -0.004   0.002  0.00  0.00    +0.029 A 
ATOM     13  N   UNL     1       1.419  -2.047  -0.023  0.00  0.00    -0.224 NA
ATOM     14  C   UNL     1       2.616  -2.588  -0.037  0.00  0.00    +0.176 A 
ATOM     15  S   UNL     1       3.682  -1.153  -0.039  0.00  0.00    -0.051 S 
ATOM     16  N   UNL     1       2.963  -3.924  -0.047  0.00  0.00    -0.241 N 
ATOM     17  H   UNL     1       2.271  -4.604  -0.044  0.00  0.00    +0.172 HD
ENDBRANCH   1  16
BRANCH   4  18
ATOM     18  C   UNL     1       4.058  -7.965  -0.078  0.00  0.00    +0.110 C 
BRANCH  18  19
ATOM     19  C   UNL     1       2.790  -8.821  -0.070  0.00  0.00    +0.054 C 
BRANCH  19  20
ATOM     20  C   UNL     1       3.168 -10.280  -0.081  0.00  0.00    -0.046 A 
ATOM     21  C   UNL     1       3.336 -10.941  -1.284  0.00  0.00    +0.006 A 
ATOM     22  C   UNL     1       3.683 -12.278  -1.295  0.00  0.00    +0.038 A 
ATOM     23  C   UNL     1       3.864 -12.956  -0.102  0.00  0.00    +0.123 A 
ATOM     24  C   UNL     1       3.696 -12.293   1.102  0.00  0.00    +0.038 A 
ATOM     25  C   UNL     1       3.353 -10.954   1.111  0.00  0.00    +0.006 A 
ATOM     26  F   UNL     1       4.203 -14.264  -0.111  0.00  0.00    -0.205 F 
ENDBRANCH  19  20
ENDBRANCH  18  19
ENDBRANCH   4  18
TORSDOF 4
