REMARK  Name = ZINC24807736
REMARK  10 active torsions:
REMARK  status: ('A' for Active; 'I' for Inactive)
REMARK    1  A    between atoms: C_1  and  C_2
REMARK    2  A    between atoms: C_3  and  N_15
REMARK    3  A    between atoms: N_6  and  C_9
REMARK    4  A    between atoms: N_7  and  C_8
REMARK    5  A    between atoms: C_16  and  C_18
REMARK    6  A    between atoms: C_18  and  C_20
REMARK    7  A    between atoms: C_18  and  N_21
REMARK    8  A    between atoms: N_21  and  C_22
REMARK    9  A    between atoms: C_22  and  C_24
REMARK   10  A    between atoms: C_22  and  C_25
REMARK                            x       y       z     vdW  Elec       q    Type
REMARK                         _______ _______ _______ _____ _____    ______ ____
ROOT
ATOM      1  N   UNL     1       1.410   2.291   0.212  0.00  0.00    -0.281 N 
ATOM      2  C   UNL     1       0.211   1.689   0.340  0.00  0.00    +0.203 C 
ATOM      3  O   UNL     1       0.141   0.478   0.373  0.00  0.00    -0.277 OA
ATOM      4  H   UNL     1       1.468   3.384   0.102  0.00  0.00    +0.155 HD
ENDROOT
BRANCH   1   7
ATOM      5  C   UNL     1       3.424   2.152  -2.098  0.00  0.00    +0.067 C 
ATOM      6  C   UNL     1       3.499   1.435  -0.775  0.00  0.00    +0.059 A 
ATOM      7  C   UNL     1       2.590   1.520   0.221  0.00  0.00    +0.121 A 
ATOM      8  C   UNL     1       3.063   0.669   1.314  0.00  0.00    +0.293 A 
ATOM      9  O   UNL     1       2.512   0.492   2.385  0.00  0.00    -0.264 OA
ATOM     10  N   UNL     1       4.223   0.115   0.906  0.00  0.00    -0.216 N 
ATOM     11  N   UNL     1       4.500   0.587  -0.382  0.00  0.00    -0.282 N 
ATOM     12  C   UNL     1       5.674   0.230  -1.183  0.00  0.00    +0.171 C 
BRANCH  10  13
ATOM     13  C   UNL     1       5.015  -0.770   1.645  0.00  0.00    +0.067 A 
ATOM     14  C   UNL     1       5.445  -1.961   1.073  0.00  0.00    +0.028 A 
ATOM     15  C   UNL     1       6.232  -2.830   1.803  0.00  0.00    +0.002 A 
ATOM     16  C   UNL     1       6.581  -2.522   3.105  0.00  0.00    +0.000 A 
ATOM     17  C   UNL     1       6.149  -1.341   3.679  0.00  0.00    +0.002 A 
ATOM     18  C   UNL     1       5.367  -0.464   2.953  0.00  0.00    +0.028 A 
ENDBRANCH  10  13
ENDBRANCH   1   7
BRANCH   2  19
ATOM     19  C   UNL     1      -1.043   2.519   0.434  0.00  0.00    +0.014 C 
ATOM     20  C   UNL     1      -1.185   3.374  -0.827  0.00  0.00    -0.004 C 
BRANCH  19  21
ATOM     21  N   UNL     1      -2.208   1.634   0.559  0.00  0.00    +0.391 N 
ATOM     22  H   UNL     1      -3.094   2.131   0.137  0.00  0.00    -0.084 HD
ATOM     23  H   UNL     1      -2.018   0.698   0.014  0.00  0.00    -0.084 HD
BRANCH  21  24
ATOM     24  C   UNL     1      -2.476   1.312   1.968  0.00  0.00    -0.042 C 
ATOM     25  C   UNL     1      -3.395   2.377   2.568  0.00  0.00    -0.009 C 
BRANCH  24  26
ATOM     26  C   UNL     1      -3.144  -0.036   2.056  0.00  0.00    -0.043 A 
ATOM     27  C   UNL     1      -3.781  -0.566   0.950  0.00  0.00    +0.005 A 
ATOM     28  C   UNL     1      -4.389  -1.805   1.029  0.00  0.00    +0.020 A 
ATOM     29  C   UNL     1      -4.371  -2.510   2.220  0.00  0.00    +0.042 A 
ATOM     30  C   UNL     1      -3.739  -1.978   3.329  0.00  0.00    +0.040 A 
ATOM     31  C   UNL     1      -3.125  -0.740   3.247  0.00  0.00    +0.044 A 
ATOM     32 CL   UNL     1      -2.331  -0.071   4.638  0.00  0.00    -0.083 Cl
ATOM     33 CL   UNL     1      -5.140  -4.063   2.321  0.00  0.00    -0.083 Cl
ENDBRANCH  24  26
ENDBRANCH  21  24
ENDBRANCH  19  21
ENDBRANCH   2  19
TORSDOF 6
