REMARK  Name = ZINC20214527
REMARK  13 active torsions:
REMARK  status: ('A' for Active; 'I' for Inactive)
REMARK    1  A    between atoms: C_1  and  C_2
REMARK    2  A    between atoms: C_2  and  O_3
REMARK    3  A    between atoms: O_3  and  C_4
REMARK    4  A    between atoms: C_4  and  C_6
REMARK    5  A    between atoms: C_7  and  C_24
REMARK    6  A    between atoms: C_12  and  C_14
REMARK    7  A    between atoms: C_17  and  O_20
REMARK    8  A    between atoms: O_20  and  C_21
REMARK    9  A    between atoms: C_21  and  C_22
REMARK   10  A    between atoms: C_21  and  C_23
REMARK   11  A    between atoms: C_24  and  N_25
REMARK   12  A    between atoms: N_28  and  C_31
REMARK   13  A    between atoms: C_34  and  N_37
REMARK                            x       y       z     vdW  Elec       q    Type
REMARK                         _______ _______ _______ _____ _____    ______ ____
ROOT
ATOM      1  C   UNL     1      -3.199   3.353   1.186  0.00  0.00    +0.079 C 
ATOM      2  C   UNL     1      -4.504   3.014   1.110  0.00  0.00    +0.038 C 
ATOM      3  N   UNL     1      -5.135   2.905  -0.096  0.00  0.00    -0.271 N 
ATOM      4  C   UNL     1      -4.531   3.119  -1.272  0.00  0.00    +0.304 C 
ATOM      5  O   UNL     1      -5.176   2.997  -2.295  0.00  0.00    -0.252 OA
ATOM      6  N   UNL     1      -3.231   3.464  -1.358  0.00  0.00    -0.288 N 
ATOM      7  C   UNL     1      -2.460   3.608  -0.112  0.00  0.00    +0.144 C 
ATOM      8  H   UNL     1      -6.199   2.627  -0.138  0.00  0.00    +0.156 HD
ATOM      9  H   UNL     1      -2.744   3.637  -2.329  0.00  0.00    +0.151 HD
ENDROOT
BRANCH   7  10
ATOM     10  C   UNL     1      -1.292   2.658  -0.175  0.00  0.00    -0.022 A 
ATOM     11  C   UNL     1      -1.490   1.347  -0.568  0.00  0.00    +0.009 A 
ATOM     12  C   UNL     1      -0.421   0.473  -0.622  0.00  0.00    +0.046 A 
ATOM     13  C   UNL     1       0.852   0.914  -0.293  0.00  0.00    +0.121 A 
ATOM     14  C   UNL     1       1.048   2.231   0.096  0.00  0.00    +0.046 A 
ATOM     15  C   UNL     1      -0.024   3.100   0.154  0.00  0.00    +0.009 A 
BRANCH  13  16
ATOM     16  O   UNL     1       1.905   0.057  -0.351  0.00  0.00    -0.489 OA
BRANCH  16  17
ATOM     17  C   UNL     1       1.614  -1.310  -0.649  0.00  0.00    +0.167 C 
ATOM     18  C   UNL     1       1.683  -1.528  -2.162  0.00  0.00    +0.051 C 
ATOM     19  C   UNL     1       2.638  -2.212   0.043  0.00  0.00    +0.051 C 
ENDBRANCH  16  17
ENDBRANCH  13  16
ENDBRANCH   7  10
BRANCH   1  20
ATOM     20  C   UNL     1      -2.545   3.466   2.435  0.00  0.00    +0.339 C 
ATOM     21  O   UNL     1      -3.121   3.140   3.456  0.00  0.00    -0.245 OA
BRANCH  20  22
ATOM     22  O   UNL     1      -1.281   3.936   2.494  0.00  0.00    -0.462 OA
BRANCH  22  24
ATOM     23  C   UNL     1       0.740   4.574   3.656  0.00  0.00    +0.048 C 
ATOM     24  C   UNL     1      -0.682   4.024   3.789  0.00  0.00    +0.229 C 
ENDBRANCH  22  24
ENDBRANCH  20  22
ENDBRANCH   1  20
BRANCH   2  25
ATOM     25  C   UNL     1      -5.277   2.753   2.377  0.00  0.00    +0.136 C 
BRANCH  25  26
ATOM     26  N   UNL     1      -5.070   1.361   2.799  0.00  0.00    -0.294 NA
ATOM     27  C   UNL     1      -5.661   0.424   1.833  0.00  0.00    +0.103 C 
ATOM     28  C   UNL     1      -5.355  -1.012   2.265  0.00  0.00    +0.120 C 
ATOM     29  N   UNL     1      -5.894  -1.240   3.613  0.00  0.00    -0.327 N 
ATOM     30  C   UNL     1      -5.303  -0.303   4.579  0.00  0.00    +0.120 C 
ATOM     31  C   UNL     1      -5.609   1.133   4.146  0.00  0.00    +0.103 C 
BRANCH  29  32
ATOM     32  C   UNL     1      -5.697  -2.563   4.014  0.00  0.00    +0.030 A 
ATOM     33  C   UNL     1      -5.011  -2.839   5.190  0.00  0.00    +0.025 A 
ATOM     34  C   UNL     1      -4.823  -4.149   5.586  0.00  0.00    +0.034 A 
ATOM     35  C   UNL     1      -5.306  -5.185   4.808  0.00  0.00    +0.126 A 
ATOM     36  C   UNL     1      -5.985  -4.913   3.634  0.00  0.00    +0.034 A 
ATOM     37  C   UNL     1      -6.182  -3.606   3.235  0.00  0.00    +0.025 A 
BRANCH  35  38
ATOM     38  N   UNL     1      -5.097  -6.587   5.233  0.00  0.00    +0.056 N 
ATOM     39  O   UNL     1      -5.522  -7.500   4.548  0.00  0.00    -0.126 OA
ATOM     40  O   UNL     1      -4.500  -6.827   6.266  0.00  0.00    -0.126 OA
ENDBRANCH  35  38
ENDBRANCH  29  32
ENDBRANCH  25  26
ENDBRANCH   2  25
TORSDOF 10
