REMARK  Name = ZINC02131194
REMARK  8 active torsions:
REMARK  status: ('A' for Active; 'I' for Inactive)
REMARK    1  A    between atoms: C_1  and  C_2
REMARK    2  A    between atoms: C_2  and  C_3
REMARK    3  A    between atoms: C_2  and  C_4
REMARK    4  A    between atoms: C_4  and  N_5
REMARK    5  A    between atoms: C_11  and  C_27
REMARK    6  A    between atoms: C_23  and  C_26
REMARK    7  A    between atoms: C_32  and  O_33
REMARK    8  A    between atoms: O_33  and  C_34
REMARK                            x       y       z     vdW  Elec       q    Type
REMARK                         _______ _______ _______ _____ _____    ______ ____
ROOT
ATOM      1  N   UNL     1      -0.018   1.461   0.010  0.00  0.00    -0.290 N 
ATOM      2  C   UNL     1       1.254   2.164   0.002  0.00  0.00    +0.203 C 
ATOM      3  C   UNL     1       1.083   3.641   0.153  0.00  0.00    +0.234 C 
ATOM      4  O   UNL     1       2.082   4.326   0.201  0.00  0.00    -0.274 OA
ATOM      5  N   UNL     1      -0.100   4.255   0.239  0.00  0.00    -0.280 N 
ATOM      6  C   UNL     1      -0.147   5.694   0.557  0.00  0.00    +0.122 C 
ATOM      7  C   UNL     1      -0.842   5.879   1.912  0.00  0.00    +0.072 C 
ATOM      8  C   UNL     1      -2.078   5.018   1.954  0.00  0.00    -0.008 A 
ATOM      9  C   UNL     1      -3.211   5.113   2.852  0.00  0.00    +0.004 A 
ATOM     10  C   UNL     1      -3.514   5.980   3.907  0.00  0.00    +0.010 A 
ATOM     11  C   UNL     1      -4.706   5.773   4.557  0.00  0.00    +0.001 A 
ATOM     12  C   UNL     1      -5.575   4.757   4.195  0.00  0.00    +0.002 A 
ATOM     13  C   UNL     1      -5.301   3.886   3.155  0.00  0.00    +0.026 A 
ATOM     14  C   UNL     1      -4.098   4.071   2.477  0.00  0.00    +0.047 A 
ATOM     15  N   UNL     1      -3.526   3.408   1.430  0.00  0.00    -0.356 N 
ATOM     16  H   UNL     1      -3.916   2.647   0.972  0.00  0.00    +0.166 HD
ATOM     17  C   UNL     1      -2.321   3.980   1.123  0.00  0.00    +0.054 A 
ATOM     18  C   UNL     1      -1.369   3.557   0.030  0.00  0.00    +0.151 C 
ATOM     19  C   UNL     1      -1.201   2.074   0.019  0.00  0.00    +0.245 C 
ATOM     20  O   UNL     1      -2.200   1.387   0.025  0.00  0.00    -0.273 OA
ATOM     21  C   UNL     1      -1.948   3.980  -1.322  0.00  0.00    +0.048 C 
ENDROOT
BRANCH   7  22
ATOM     22  C   UNL     1       0.095   5.469   3.019  0.00  0.00    +0.003 A 
ATOM     23  C   UNL     1       0.584   4.178   3.069  0.00  0.00    +0.008 A 
ATOM     24  C   UNL     1       1.443   3.801   4.084  0.00  0.00    +0.001 A 
ATOM     25  C   UNL     1       1.817   4.716   5.051  0.00  0.00    +0.004 A 
ATOM     26  C   UNL     1       1.331   6.008   5.006  0.00  0.00    +0.046 A 
ATOM     27  C   UNL     1       0.472   6.390   3.985  0.00  0.00    +0.124 A 
BRANCH  27  28
ATOM     28  O   UNL     1      -0.002   7.662   3.935  0.00  0.00    -0.495 OA
ATOM     29  C   UNL     1       0.428   8.556   4.963  0.00  0.00    +0.277 C 
ENDBRANCH  27  28
ENDBRANCH   7  22
BRANCH   1  30
ATOM     30  C   UNL     1       0.002  -0.004   0.002  0.00  0.00    +0.111 C 
BRANCH  30  32
ATOM     31  C   UNL     1      -1.283  -0.139   2.140  0.00  0.00    +0.009 C 
ATOM     32  C   UNL     1       0.023  -0.522   1.442  0.00  0.00    +0.000 C 
ATOM     33  C   UNL     1       0.169  -2.045   1.434  0.00  0.00    +0.009 C 
ENDBRANCH  30  32
ENDBRANCH   1  30
TORSDOF 4
