REMARK  Name = ZINC20179313
REMARK  5 active torsions:
REMARK  status: ('A' for Active; 'I' for Inactive)
REMARK    1  A    between atoms: N_7  and  C_27
REMARK    2  A    between atoms: C_11  and  C_12
REMARK    3  A    between atoms: C_15  and  C_18
REMARK    4  A    between atoms: N_20  and  C_21
REMARK    5  A    between atoms: C_27  and  C_28
REMARK                            x       y       z     vdW  Elec       q    Type
REMARK                         _______ _______ _______ _____ _____    ______ ____
ROOT
ATOM      1  C   UNL     1       1.800   3.694  -0.898  0.00  0.00    +0.002 A 
ATOM      2  C   UNL     1       3.054   3.111  -0.889  0.00  0.00    +0.004 A 
ATOM      3  C   UNL     1       3.180   1.735  -0.830  0.00  0.00    +0.048 A 
ATOM      4  C   UNL     1       2.048   0.939  -0.780  0.00  0.00    +0.150 A 
ATOM      5  C   UNL     1       0.784   1.526  -0.789  0.00  0.00    +0.079 A 
ATOM      6  C   UNL     1       0.666   2.907  -0.848  0.00  0.00    +0.027 A 
ATOM      7  N   UNL     1      -0.365   0.726  -0.737  0.00  0.00    -0.257 N 
ATOM      8  C   UNL     1      -0.235  -0.582  -0.407  0.00  0.00    +0.287 C 
ATOM      9  O   UNL     1      -1.204  -1.315  -0.337  0.00  0.00    -0.266 OA
ATOM     10  C   UNL     1       1.130  -1.085  -0.134  0.00  0.00    +0.191 C 
ATOM     11  C   UNL     1       1.342  -2.158   0.662  0.00  0.00    +0.059 C 
ATOM     12  O   UNL     1       2.168  -0.417  -0.722  0.00  0.00    -0.449 OA
ENDROOT
BRANCH  11  13
ATOM     13  C   UNL     1       2.675  -2.773   0.727  0.00  0.00    -0.021 A 
ATOM     14  C   UNL     1       3.679  -2.367  -0.161  0.00  0.00    +0.009 A 
ATOM     15  C   UNL     1       4.918  -2.937  -0.097  0.00  0.00    +0.013 A 
ATOM     16  C   UNL     1       5.183  -3.931   0.848  0.00  0.00    +0.037 A 
ATOM     17  C   UNL     1       4.181  -4.341   1.732  0.00  0.00    +0.013 A 
ATOM     18  C   UNL     1       2.942  -3.770   1.673  0.00  0.00    +0.009 A 
BRANCH  16  19
ATOM     19  C   UNL     1       6.522  -4.550   0.913  0.00  0.00    +0.244 C 
ATOM     20  O   UNL     1       6.753  -5.416   1.735  0.00  0.00    -0.270 OA
ATOM     21  N   UNL     1       7.489  -4.155   0.061  0.00  0.00    -0.308 N 
ATOM     22  H   UNL     1       7.281  -3.372  -0.682  0.00  0.00    +0.149 HD
BRANCH  21  23
ATOM     23  C   UNL     1       8.818  -4.769   0.126  0.00  0.00    +0.073 C 
ATOM     24  C   UNL     1       9.696  -4.022   1.151  0.00  0.00    +0.022 C 
ATOM     25  C   UNL     1      11.109  -4.026   0.515  0.00  0.00    +0.002 C 
ATOM     26  C   UNL     1      10.807  -3.820  -0.990  0.00  0.00    +0.002 C 
ATOM     27  C   UNL     1       9.524  -4.641  -1.235  0.00  0.00    +0.022 C 
ENDBRANCH  21  23
ENDBRANCH  16  19
ENDBRANCH  11  13
BRANCH   7  28
ATOM     28  C   UNL     1      -1.681   1.291  -1.042  0.00  0.00    +0.149 C 
BRANCH  28  29
ATOM     29  C   UNL     1      -1.897   1.288  -2.533  0.00  0.00    -0.027 A 
ATOM     30  C   UNL     1      -2.370   0.151  -3.161  0.00  0.00    +0.005 A 
ATOM     31  C   UNL     1      -2.568   0.147  -4.529  0.00  0.00    +0.003 A 
ATOM     32  C   UNL     1      -2.293   1.280  -5.271  0.00  0.00    +0.038 A 
ATOM     33  C   UNL     1      -1.819   2.420  -4.643  0.00  0.00    +0.124 A 
ATOM     34  C   UNL     1      -1.627   2.424  -3.272  0.00  0.00    +0.043 A 
ATOM     35  F   UNL     1      -1.551   3.528  -5.367  0.00  0.00    -0.205 F 
ENDBRANCH  28  29
ENDBRANCH   7  28
TORSDOF 5
