REMARK  Name = ZINC04816270
REMARK  10 active torsions:
REMARK  status: ('A' for Active; 'I' for Inactive)
REMARK    1  A    between atoms: C_1  and  C_2
REMARK    2  A    between atoms: C_8  and  C_10
REMARK    3  A    between atoms: C_10  and  C_12
REMARK    4  A    between atoms: C_10  and  S_13
REMARK    5  A    between atoms: S_13  and  C_14
REMARK    6  A    between atoms: C_17  and  C_20
REMARK    7  A    between atoms: N_18  and  C_19
REMARK    8  A    between atoms: C_20  and  C_21
REMARK    9  A    between atoms: C_24  and  O_27
REMARK   10  A    between atoms: O_27  and  C_28
REMARK                            x       y       z     vdW  Elec       q    Type
REMARK                         _______ _______ _______ _____ _____    ______ ____
ROOT
ATOM      1  C   UNL     1      -0.137   1.835   2.427  0.00  0.00    +0.192 A 
ATOM      2  N   UNL     1      -1.107   2.228   3.219  0.00  0.00    -0.122 NA
ATOM      3  N   UNL     1      -2.223   2.214   2.583  0.00  0.00    -0.133 NA
ATOM      4  C   UNL     1      -2.033   1.820   1.355  0.00  0.00    +0.138 A 
ATOM      5  N   UNL     1      -0.698   1.558   1.213  0.00  0.00    -0.309 N 
ATOM      6  C   UNL     1      -0.013   1.086   0.008  0.00  0.00    +0.152 C 
ENDROOT
BRANCH   1   7
ATOM      7  S   UNL     1       1.568   1.691   2.849  0.00  0.00    -0.074 S 
BRANCH   7   8
ATOM      8  C   UNL     1       1.509   2.221   4.579  0.00  0.00    +0.137 C 
ATOM      9  C   UNL     1       1.087   3.690   4.647  0.00  0.00    +0.029 C 
BRANCH   8  17
ATOM     10  C   UNL     1       6.175   1.265  10.206  0.00  0.00    +0.066 C 
ATOM     11  C   UNL     1       5.823   1.457   8.753  0.00  0.00    +0.047 A 
ATOM     12  C   UNL     1       6.792   1.505   7.806  0.00  0.00    +0.071 A 
ATOM     13  S   UNL     1       5.805   1.740   6.335  0.00  0.00    -0.060 S 
ATOM     14  C   UNL     1       4.249   1.750   7.106  0.00  0.00    +0.165 A 
ATOM     15  N   UNL     1       4.567   1.588   8.375  0.00  0.00    -0.230 NA
ATOM     16  N   UNL     1       2.991   1.898   6.533  0.00  0.00    -0.264 N 
ATOM     17  C   UNL     1       2.873   2.061   5.200  0.00  0.00    +0.232 C 
ATOM     18  O   UNL     1       3.864   2.078   4.501  0.00  0.00    -0.274 OA
ATOM     19  H   UNL     1       2.199   1.885   7.092  0.00  0.00    +0.157 HD
ENDBRANCH   8  17
ENDBRANCH   7   8
ENDBRANCH   1   7
BRANCH   4  20
ATOM     20  C   UNL     1      -3.089   1.676   0.290  0.00  0.00    +0.111 C 
BRANCH  20  21
ATOM     21  C   UNL     1      -3.663   0.283   0.335  0.00  0.00    -0.040 A 
ATOM     22  C   UNL     1      -3.095  -0.722  -0.425  0.00  0.00    +0.007 A 
ATOM     23  C   UNL     1      -3.615  -2.001  -0.381  0.00  0.00    +0.046 A 
ATOM     24  C   UNL     1      -4.715  -2.274   0.419  0.00  0.00    +0.120 A 
ATOM     25  C   UNL     1      -5.286  -1.262   1.177  0.00  0.00    +0.046 A 
ATOM     26  C   UNL     1      -4.759   0.014   1.133  0.00  0.00    +0.007 A 
BRANCH  24  27
ATOM     27  O   UNL     1      -5.231  -3.530   0.461  0.00  0.00    -0.495 OA
ATOM     28  C   UNL     1      -4.592  -4.522  -0.346  0.00  0.00    +0.277 C 
ENDBRANCH  24  27
ENDBRANCH  20  21
ENDBRANCH   4  20
TORSDOF 6
