REMARK  Name = ZINC07278403
REMARK  3 active torsions:
REMARK  status: ('A' for Active; 'I' for Inactive)
REMARK    1  A    between atoms: C_1  and  C_2
REMARK    2  A    between atoms: C_7  and  N_8
REMARK    3  A    between atoms: C_12  and  N_15
REMARK                            x       y       z     vdW  Elec       q    Type
REMARK                         _______ _______ _______ _____ _____    ______ ____
ROOT
ATOM      1  N   UNL     1      -4.825   4.067   0.047  0.00  0.00    -0.299 N 
ATOM      2  C   UNL     1      -3.672   3.472  -0.456  0.00  0.00    +0.123 A 
ATOM      3  C   UNL     1      -2.436   4.071  -0.236  0.00  0.00    +0.046 A 
ATOM      4  C   UNL     1      -1.298   3.469  -0.742  0.00  0.00    +0.037 A 
ATOM      5  C   UNL     1      -1.435   2.284  -1.454  0.00  0.00    +0.144 A 
ATOM      6  C   UNL     1      -2.694   1.749  -1.639  0.00  0.00    +0.145 A 
ATOM      7  N   UNL     1      -3.762   2.342  -1.140  0.00  0.00    -0.238 NA
ATOM      8  H   UNL     1      -4.776   4.938   0.469  0.00  0.00    +0.154 HD
ENDROOT
BRANCH   1  15
ATOM      9  C   UNL     1      -7.185   5.646  -0.131  0.00  0.00    +0.046 C 
ATOM     10  C   UNL     1      -7.230   4.139  -0.146  0.00  0.00    -0.028 A 
ATOM     11  C   UNL     1      -8.442   3.485  -0.254  0.00  0.00    +0.019 A 
ATOM     12  C   UNL     1      -8.485   2.103  -0.261  0.00  0.00    +0.014 A 
ATOM     13  C   UNL     1      -7.315   1.371  -0.166  0.00  0.00    +0.016 A 
ATOM     14  C   UNL     1      -6.100   2.019  -0.064  0.00  0.00    +0.024 A 
ATOM     15  C   UNL     1      -6.053   3.408  -0.056  0.00  0.00    +0.035 A 
ATOM     16  I   UNL     1     -10.326   1.115  -0.416  0.00  0.00    -0.044 I 
ENDBRANCH   1  15
BRANCH   5  17
ATOM     17  N   UNL     1      -0.244   1.606  -2.013  0.00  0.00    +0.058 N 
ATOM     18  O   UNL     1       0.863   2.086  -1.850  0.00  0.00    -0.126 OA
ATOM     19  O   UNL     1      -0.371   0.565  -2.632  0.00  0.00    -0.126 OA
ENDBRANCH   5  17
TORSDOF 2
