REMARK  Name = ZINC09535073
REMARK  7 active torsions:
REMARK  status: ('A' for Active; 'I' for Inactive)
REMARK    1  A    between atoms: C_6  and  C_7
REMARK    2  A    between atoms: C_10  and  S_19
REMARK    3  A    between atoms: N_11  and  C_12
REMARK    4  A    between atoms: C_12  and  C_13
REMARK    5  A    between atoms: S_19  and  C_20
REMARK    6  A    between atoms: C_20  and  C_21
REMARK    7  A    between atoms: N_26  and  C_27
REMARK                            x       y       z     vdW  Elec       q    Type
REMARK                         _______ _______ _______ _____ _____    ______ ____
ROOT
ATOM      1  C   UNL     1       1.239  -2.163   0.039  0.00  0.00    +0.165 A 
ATOM      2  N   UNL     1       0.215  -2.959  -0.164  0.00  0.00    -0.128 NA
ATOM      3  N   UNL     1       0.608  -4.183  -0.180  0.00  0.00    -0.122 NA
ATOM      4  C   UNL     1       1.907  -4.243   0.011  0.00  0.00    +0.192 A 
ATOM      5  N   UNL     1       2.354  -2.960   0.151  0.00  0.00    -0.300 N 
ENDROOT
BRANCH   1  11
ATOM      6  C   UNL     1       2.253   0.007   0.722  0.00  0.00    +0.014 A 
ATOM      7  C   UNL     1       2.213   1.383   0.798  0.00  0.00    +0.039 A 
ATOM      8  C   UNL     1       1.130   2.077   0.281  0.00  0.00    +0.123 A 
ATOM      9  C   UNL     1       0.082   1.392  -0.314  0.00  0.00    +0.039 A 
ATOM     10  C   UNL     1       0.112   0.016  -0.395  0.00  0.00    +0.014 A 
ATOM     11  C   UNL     1       1.201  -0.688   0.123  0.00  0.00    +0.019 A 
ATOM     12  F   UNL     1       1.095   3.425   0.358  0.00  0.00    -0.205 F 
ENDBRANCH   1  11
BRANCH   5  13
ATOM     13  C   UNL     1       3.735  -2.524   0.377  0.00  0.00    +0.157 C 
BRANCH  13  14
ATOM     14  C   UNL     1       4.024  -2.504   1.879  0.00  0.00    +0.138 C 
ATOM     15  C   UNL     1       5.437  -1.936   2.133  0.00  0.00    +0.035 C 
ATOM     16  C   UNL     1       5.952  -2.838   3.288  0.00  0.00    +0.031 C 
ATOM     17  C   UNL     1       5.282  -4.188   2.928  0.00  0.00    +0.160 C 
ATOM     18  O   UNL     1       3.994  -3.839   2.398  0.00  0.00    -0.375 OA
ENDBRANCH  13  14
ENDBRANCH   5  13
BRANCH   4  19
ATOM     19  S   UNL     1       2.888  -5.705   0.070  0.00  0.00    -0.077 S 
BRANCH  19  20
ATOM     20  C   UNL     1       1.607  -6.955  -0.199  0.00  0.00    +0.173 C 
BRANCH  20  21
ATOM     21  C   UNL     1       2.232  -8.326  -0.189  0.00  0.00    +0.231 C 
ATOM     22  O   UNL     1       3.426  -8.446  -0.017  0.00  0.00    -0.274 OA
ATOM     23  N   UNL     1       1.464  -9.418  -0.371  0.00  0.00    -0.239 N 
ATOM     24  C   UNL     1       2.024 -10.644  -0.361  0.00  0.00    +0.306 C 
ATOM     25  O   UNL     1       3.221 -10.765  -0.189  0.00  0.00    -0.252 OA
ATOM     26  N   UNL     1       1.256 -11.737  -0.543  0.00  0.00    -0.296 N 
ATOM     27  H   UNL     1       0.509  -9.322  -0.508  0.00  0.00    +0.159 HD
ATOM     28  H   UNL     1       0.300 -11.641  -0.681  0.00  0.00    +0.151 HD
BRANCH  26  29
ATOM     29  C   UNL     1       1.864 -13.070  -0.533  0.00  0.00    +0.074 C 
ATOM     30  C   UNL     1       2.401 -13.396  -1.928  0.00  0.00    +0.022 C 
ATOM     31  C   UNL     1       3.036 -14.788  -1.917  0.00  0.00    +0.002 C 
ATOM     32  C   UNL     1       1.984 -15.825  -1.521  0.00  0.00    +0.000 C 
ATOM     33  C   UNL     1       1.446 -15.499  -0.127  0.00  0.00    +0.002 C 
ATOM     34  C   UNL     1       0.811 -14.107  -0.137  0.00  0.00    +0.022 C 
ENDBRANCH  26  29
ENDBRANCH  20  21
ENDBRANCH  19  20
ENDBRANCH   4  19
TORSDOF 7
