REMARK  Name = ZINC28615401
REMARK  4 active torsions:
REMARK  status: ('A' for Active; 'I' for Inactive)
REMARK    1  A    between atoms: C_1  and  C_2
REMARK    2  A    between atoms: N_9  and  C_24
REMARK    3  A    between atoms: N_14  and  C_22
REMARK    4  A    between atoms: C_24  and  C_25
REMARK                            x       y       z     vdW  Elec       q    Type
REMARK                         _______ _______ _______ _____ _____    ______ ____
ROOT
ATOM      1  C   UNL     1       4.648  -7.576   1.024  0.00  0.00    +0.068 C 
ATOM      2  C   UNL     1       5.993  -7.461   0.353  0.00  0.00    +0.071 C 
ATOM      3  N   UNL     1       6.853  -8.426   0.199  0.00  0.00    -0.184 NA
ATOM      4  N   UNL     1       7.987  -7.944  -0.462  0.00  0.00    -0.203 N 
ATOM      5  C   UNL     1       7.808  -6.633  -0.726  0.00  0.00    +0.268 C 
ATOM      6  O   UNL     1       8.596  -5.890  -1.293  0.00  0.00    -0.268 OA
ATOM      7  C   UNL     1       6.537  -6.285  -0.222  0.00  0.00    +0.091 C 
ATOM      8  C   UNL     1       5.930  -5.015  -0.275  0.00  0.00    +0.098 A 
ATOM      9  N   UNL     1       6.523  -3.793  -0.441  0.00  0.00    -0.297 N 
ATOM     10  C   UNL     1       5.786  -2.695  -0.466  0.00  0.00    +0.269 A 
ATOM     11  O   UNL     1       6.294  -1.594  -0.613  0.00  0.00    -0.266 OA
ATOM     12  C   UNL     1       4.394  -2.844  -0.315  0.00  0.00    +0.107 A 
ATOM     13  C   UNL     1       3.401  -1.871  -0.303  0.00  0.00    +0.092 C 
ATOM     14  N   UNL     1       3.506  -0.535  -0.575  0.00  0.00    -0.296 N 
ATOM     15  C   UNL     1       2.388   0.278  -0.507  0.00  0.00    +0.048 A 
ATOM     16  C   UNL     1       2.321   1.661  -0.752  0.00  0.00    +0.024 A 
ATOM     17  C   UNL     1       1.130   2.339  -0.645  0.00  0.00    +0.002 A 
ATOM     18  C   UNL     1      -0.039   1.686  -0.293  0.00  0.00    +0.001 A 
ATOM     19  C   UNL     1      -0.003   0.325  -0.046  0.00  0.00    +0.017 A 
ATOM     20  C   UNL     1       1.188  -0.354  -0.153  0.00  0.00    +0.035 A 
ATOM     21  S   UNL     1       1.664  -2.051   0.070  0.00  0.00    -0.071 S 
ATOM     22  C   UNL     1       4.805   0.038  -0.937  0.00  0.00    +0.136 C 
ATOM     23  S   UNL     1       4.247  -4.614  -0.136  0.00  0.00    -0.063 S 
ATOM     24  H   UNL     1       8.827  -8.620  -0.677  0.00  0.00    +0.178 HD
ENDROOT
BRANCH   9  25
ATOM     25  C   UNL     1       7.977  -3.701  -0.593  0.00  0.00    +0.152 C 
BRANCH  25  26
ATOM     26  C   UNL     1       8.326  -3.647  -2.058  0.00  0.00    -0.013 C 
ATOM     27  C   UNL     1       9.069  -2.671  -2.519  0.00  0.00    +0.005 C 
ENDBRANCH  25  26
ENDBRANCH   9  25
TORSDOF 2
