REMARK  Name = ZINC01351778
REMARK  8 active torsions:
REMARK  status: ('A' for Active; 'I' for Inactive)
REMARK    1  A    between atoms: C_9  and  C_12
REMARK    2  A    between atoms: N_14  and  C_15
REMARK    3  A    between atoms: N_14  and  C_22
REMARK    4  A    between atoms: C_19  and  O_21
REMARK    5  A    between atoms: C_22  and  C_24
REMARK    6  A    between atoms: C_22  and  C_29
REMARK    7  A    between atoms: N_31  and  C_32
REMARK    8  A    between atoms: C_32  and  C_33
REMARK                            x       y       z     vdW  Elec       q    Type
REMARK                         _______ _______ _______ _____ _____    ______ ____
ROOT
ATOM      1  C   UNL     1       6.740  -5.749  -1.471  0.00  0.00    +0.265 C 
ATOM      2  O   UNL     1       6.300  -4.863  -2.172  0.00  0.00    -0.271 OA
ATOM      3  N   UNL     1       6.842  -5.567  -0.139  0.00  0.00    -0.252 N 
ENDROOT
BRANCH   1  12
ATOM      4  C   UNL     1       6.925 -10.754  -5.371  0.00  0.00    +0.004 A 
ATOM      5  C   UNL     1       6.866  -9.586  -6.109  0.00  0.00    +0.004 A 
ATOM      6  C   UNL     1       6.818  -8.363  -5.468  0.00  0.00    +0.049 A 
ATOM      7  C   UNL     1       6.830  -8.303  -4.082  0.00  0.00    +0.163 A 
ATOM      8  C   UNL     1       6.892  -9.477  -3.341  0.00  0.00    +0.162 A 
ATOM      9  C   UNL     1       6.938 -10.702  -3.990  0.00  0.00    +0.049 A 
ATOM     10  O   UNL     1       6.913  -9.442  -1.980  0.00  0.00    -0.484 OA
ATOM     11  C   UNL     1       6.491  -8.221  -1.362  0.00  0.00    +0.283 C 
ATOM     12  C   UNL     1       7.173  -7.054  -2.088  0.00  0.00    +0.296 C 
ATOM     13  O   UNL     1       6.779  -7.092  -3.464  0.00  0.00    -0.472 OA
ENDBRANCH   1  12
BRANCH   3  14
ATOM     14  C   UNL     1       7.768  -6.311   0.600  0.00  0.00    +0.041 A 
ATOM     15  C   UNL     1       8.328  -7.461   0.057  0.00  0.00    +0.024 A 
ATOM     16  C   UNL     1       9.242  -8.196   0.787  0.00  0.00    +0.005 A 
ATOM     17  C   UNL     1       9.602  -7.790   2.058  0.00  0.00    +0.045 A 
ATOM     18  C   UNL     1       9.045  -6.642   2.605  0.00  0.00    +0.119 A 
ATOM     19  C   UNL     1       8.133  -5.899   1.873  0.00  0.00    +0.069 A 
BRANCH  18  20
ATOM     20  O   UNL     1       9.400  -6.245   3.855  0.00  0.00    -0.507 OA
ATOM     21  H   UNL     1      10.161  -5.648   3.877  0.00  0.00    +0.292 HD
ENDBRANCH  18  20
ENDBRANCH   3  14
BRANCH   3  22
ATOM     22  C   UNL     1       5.983  -4.590   0.534  0.00  0.00    +0.204 C 
BRANCH  22  23
ATOM     23  C   UNL     1       5.115  -5.295   1.544  0.00  0.00    +0.019 A 
ATOM     24  C   UNL     1       5.262  -5.374   2.889  0.00  0.00    +0.013 A 
ATOM     25  C   UNL     1       4.332  -6.084   3.625  0.00  0.00    +0.008 A 
ATOM     26  C   UNL     1       3.300  -6.681   2.980  0.00  0.00    +0.045 A 
ATOM     27  S   UNL     1       3.622  -6.238   1.280  0.00  0.00    -0.099 S 
ENDBRANCH  22  23
BRANCH  22  28
ATOM     28  C   UNL     1       6.840  -3.567   1.235  0.00  0.00    +0.239 C 
ATOM     29  O   UNL     1       8.048  -3.647   1.178  0.00  0.00    -0.273 OA
ATOM     30  N   UNL     1       6.262  -2.564   1.926  0.00  0.00    -0.306 N 
ATOM     31  H   UNL     1       5.295  -2.500   1.972  0.00  0.00    +0.149 HD
BRANCH  30  32
ATOM     32  C   UNL     1       7.095  -1.570   2.607  0.00  0.00    +0.178 C 
BRANCH  32  33
ATOM     33  C   UNL     1       6.212  -0.565   3.300  0.00  0.00    +0.122 A 
ATOM     34  C   UNL     1       5.757  -0.655   4.563  0.00  0.00    +0.046 A 
ATOM     35  C   UNL     1       4.970   0.496   4.799  0.00  0.00    +0.041 A 
ATOM     36  C   UNL     1       4.991   1.221   3.666  0.00  0.00    +0.195 A 
ATOM     37  O   UNL     1       5.749   0.577   2.764  0.00  0.00    -0.466 OA
ENDBRANCH  32  33
ENDBRANCH  30  32
ENDBRANCH  22  28
ENDBRANCH   3  22
TORSDOF 8
