REMARK  Name = ZINC40113620
REMARK  6 active torsions:
REMARK  status: ('A' for Active; 'I' for Inactive)
REMARK    1  A    between atoms: N_13  and  C_17
REMARK    2  A    between atoms: C_17  and  C_18
REMARK    3  A    between atoms: N_20  and  C_21
REMARK    4  A    between atoms: C_21  and  C_22
REMARK    5  A    between atoms: C_22  and  O_23
REMARK    6  A    between atoms: O_23  and  C_24
REMARK                            x       y       z     vdW  Elec       q    Type
REMARK                         _______ _______ _______ _____ _____    ______ ____
ROOT
ATOM      1  C   UNL     1      -0.017   1.375   0.010  0.00  0.00    +0.000 A 
ATOM      2  C   UNL     1       1.174   2.078   0.002  0.00  0.00    +0.000 A 
ATOM      3  C   UNL     1       2.373   1.395  -0.017  0.00  0.00    +0.006 A 
ATOM      4  C   UNL     1       2.394   0.006  -0.026  0.00  0.00    -0.012 A 
ATOM      5  C   UNL     1       1.207  -0.694  -0.013  0.00  0.00    -0.042 A 
ATOM      6  C   UNL     1       0.002  -0.004   0.002  0.00  0.00    +0.004 A 
ATOM      7  C   UNL     1       1.158  -2.199  -0.005  0.00  0.00    +0.035 C 
ATOM      8  C   UNL     1       2.489  -2.786  -0.470  0.00  0.00    +0.008 C 
ATOM      9  C   UNL     1       3.616  -2.144   0.349  0.00  0.00    +0.040 C 
ATOM     10  C   UNL     1       3.731  -0.679  -0.055  0.00  0.00    +0.138 C 
ATOM     11  C   UNL     1       4.706   0.039   0.851  0.00  0.00    +0.251 C 
ATOM     12  O   UNL     1       4.615   0.195   2.050  0.00  0.00    -0.272 OA
ATOM     13  N   UNL     1       5.698   0.470   0.045  0.00  0.00    -0.215 N 
ATOM     14  C   UNL     1       5.482   0.125  -1.230  0.00  0.00    +0.310 C 
ATOM     15  O   UNL     1       6.236   0.402  -2.142  0.00  0.00    -0.252 OA
ATOM     16  N   UNL     1       4.335  -0.562  -1.389  0.00  0.00    -0.281 N 
ATOM     17  H   UNL     1       3.978  -0.911  -2.221  0.00  0.00    +0.152 HD
ENDROOT
BRANCH  13  18
ATOM     18  C   UNL     1       6.866   1.223   0.508  0.00  0.00    +0.213 C 
BRANCH  18  19
ATOM     19  C   UNL     1       7.968   0.264   0.877  0.00  0.00    +0.231 C 
ATOM     20  O   UNL     1       7.794  -0.931   0.766  0.00  0.00    -0.274 OA
ATOM     21  N   UNL     1       9.146   0.734   1.332  0.00  0.00    -0.311 N 
ATOM     22  H   UNL     1       9.285   1.690   1.422  0.00  0.00    +0.149 HD
BRANCH  21  23
ATOM     23  C   UNL     1      10.217  -0.199   1.692  0.00  0.00    +0.145 C 
BRANCH  23  24
ATOM     24  C   UNL     1      11.437   0.588   2.175  0.00  0.00    +0.247 C 
BRANCH  24  25
ATOM     25  O   UNL     1      11.113   1.275   3.385  0.00  0.00    -0.490 OA
BRANCH  25  26
ATOM     26  C   UNL     1      12.094   2.026   3.950  0.00  0.00    +0.122 A 
ATOM     27  C   UNL     1      13.342   2.104   3.350  0.00  0.00    +0.046 A 
ATOM     28  C   UNL     1      14.339   2.868   3.925  0.00  0.00    +0.005 A 
ATOM     29  C   UNL     1      14.093   3.555   5.100  0.00  0.00    +0.020 A 
ATOM     30  C   UNL     1      12.850   3.479   5.702  0.00  0.00    +0.044 A 
ATOM     31  C   UNL     1      11.848   2.720   5.126  0.00  0.00    +0.065 A 
ATOM     32 CL   UNL     1      12.545   4.342   7.177  0.00  0.00    -0.083 Cl
ENDBRANCH  25  26
ENDBRANCH  24  25
ENDBRANCH  23  24
ENDBRANCH  21  23
ENDBRANCH  18  19
ENDBRANCH  13  18
TORSDOF 6
