REMARK  Name = ZINC03253068
REMARK  9 active torsions:
REMARK  status: ('A' for Active; 'I' for Inactive)
REMARK    1  A    between atoms: C_1  and  C_2
REMARK    2  A    between atoms: C_2  and  N_3
REMARK    3  A    between atoms: C_9  and  S_16
REMARK    4  A    between atoms: N_13  and  C_14
REMARK    5  A    between atoms: C_14  and  C_15
REMARK    6  A    between atoms: S_16  and  C_17
REMARK    7  A    between atoms: C_17  and  C_19
REMARK    8  A    between atoms: C_17  and  C_20
REMARK    9  A    between atoms: N_22  and  C_23
REMARK                            x       y       z     vdW  Elec       q    Type
REMARK                         _______ _______ _______ _____ _____    ______ ____
ROOT
ATOM      1  N   UNL     1      -0.718   1.485   1.207  0.00  0.00    -0.314 N 
ATOM      2  C   UNL     1      -0.228   1.161   2.455  0.00  0.00    +0.221 A 
ATOM      3  N   UNL     1       0.856   0.411   2.549  0.00  0.00    -0.177 NA
ATOM      4  C   UNL     1       1.349   0.090   3.758  0.00  0.00    +0.262 A 
ATOM      5  N   UNL     1       2.380  -0.615   4.171  0.00  0.00    -0.107 NA
ATOM      6  N   UNL     1       2.417  -0.627   5.457  0.00  0.00    -0.120 NA
ATOM      7  C   UNL     1       1.417   0.065   5.949  0.00  0.00    +0.200 A 
ATOM      8  N   UNL     1       0.700   0.547   4.889  0.00  0.00    -0.226 N 
ATOM      9  C   UNL     1      -0.422   1.317   4.754  0.00  0.00    +0.207 A 
ATOM     10  N   UNL     1      -0.863   1.608   3.545  0.00  0.00    -0.182 NA
ATOM     11  N   UNL     1      -1.080   1.780   5.861  0.00  0.00    -0.315 N 
ATOM     12  H   UNL     1      -1.515   2.031   1.126  0.00  0.00    +0.149 HD
ATOM     13  H   UNL     1      -0.751   1.563   6.747  0.00  0.00    +0.149 HD
ENDROOT
BRANCH   1  15
ATOM     14  C   UNL     1      -0.777   1.500  -1.238  0.00  0.00    +0.024 C 
ATOM     15  C   UNL     1      -0.035   1.003   0.004  0.00  0.00    +0.101 C 
ENDBRANCH   1  15
BRANCH  11  16
ATOM     16  C   UNL     1      -2.282   2.604   5.707  0.00  0.00    +0.101 C 
ATOM     17  C   UNL     1      -2.818   2.986   7.088  0.00  0.00    +0.024 C 
ENDBRANCH  11  16
BRANCH   7  18
ATOM     18  S   UNL     1       1.065   0.325   7.656  0.00  0.00    -0.073 S 
BRANCH  18  19
ATOM     19  C   UNL     1       2.384  -0.573   8.518  0.00  0.00    +0.137 C 
ATOM     20  C   UNL     1       2.250  -2.071   8.236  0.00  0.00    +0.029 C 
BRANCH  19  21
ATOM     21  C   UNL     1       2.271  -0.330  10.001  0.00  0.00    +0.230 C 
ATOM     22  O   UNL     1       1.200  -0.031  10.487  0.00  0.00    -0.274 OA
ATOM     23  N   UNL     1       3.359  -0.444  10.788  0.00  0.00    -0.283 N 
ATOM     24  H   UNL     1       4.200  -0.746  10.411  0.00  0.00    +0.155 HD
BRANCH  23  25
ATOM     25  C   UNL     1       3.276  -0.127  12.149  0.00  0.00    +0.053 A 
ATOM     26  C   UNL     1       2.109  -0.391  12.854  0.00  0.00    +0.046 A 
ATOM     27  C   UNL     1       2.031  -0.081  14.199  0.00  0.00    +0.061 A 
ATOM     28  C   UNL     1       3.111   0.502  14.841  0.00  0.00    +0.061 A 
ATOM     29  C   UNL     1       4.273   0.771  14.139  0.00  0.00    +0.043 A 
ATOM     30  C   UNL     1       4.358   0.458  12.795  0.00  0.00    +0.064 A 
ATOM     31 CL   UNL     1       5.816   0.795  11.915  0.00  0.00    -0.082 Cl
ATOM     32 CL   UNL     1       3.008   0.895  16.528  0.00  0.00    -0.082 Cl
ATOM     33 CL   UNL     1       0.575  -0.416  15.083  0.00  0.00    -0.082 Cl
ENDBRANCH  23  25
ENDBRANCH  19  21
ENDBRANCH  18  19
ENDBRANCH   7  18
TORSDOF 6
