REMARK  Name = ZINC67020389
REMARK  5 active torsions:
REMARK  status: ('A' for Active; 'I' for Inactive)
REMARK    1  A    between atoms: C_1  and  C_2
REMARK    2  A    between atoms: C_7  and  N_8
REMARK    3  A    between atoms: C_9  and  C_11
REMARK    4  A    between atoms: N_14  and  C_16
REMARK    5  A    between atoms: C_19  and  N_22
REMARK                            x       y       z     vdW  Elec       q    Type
REMARK                         _______ _______ _______ _____ _____    ______ ____
ROOT
ATOM      1  C   UNL     1      -0.165   0.040   4.855  0.00  0.00    +0.148 A 
ATOM      2  C   UNL     1      -0.252  -0.532   6.147  0.00  0.00    +0.054 A 
ATOM      3  C   UNL     1      -0.334   0.514   7.002  0.00  0.00    +0.115 A 
ATOM      4  N   UNL     1      -0.297   1.647   6.253  0.00  0.00    -0.239 N 
ATOM      5  N   UNL     1      -0.193   1.349   5.007  0.00  0.00    -0.162 NA
ENDROOT
BRANCH   4   6
ATOM      6  C   UNL     1      -0.358   2.950   6.764  0.00  0.00    +0.065 A 
ATOM      7  C   UNL     1      -0.459   3.156   8.133  0.00  0.00    +0.030 A 
ATOM      8  C   UNL     1      -0.519   4.442   8.634  0.00  0.00    +0.035 A 
ATOM      9  C   UNL     1      -0.478   5.524   7.773  0.00  0.00    +0.126 A 
ATOM     10  C   UNL     1      -0.378   5.322   6.409  0.00  0.00    +0.035 A 
ATOM     11  C   UNL     1      -0.312   4.038   5.902  0.00  0.00    +0.030 A 
BRANCH   9  12
ATOM     12  N   UNL     1      -0.543   6.900   8.313  0.00  0.00    +0.056 N 
ATOM     13  O   UNL     1      -0.631   7.078   9.506  0.00  0.00    -0.126 OA
ATOM     14  O   UNL     1      -0.507   7.847   7.562  0.00  0.00    -0.126 OA
ENDBRANCH   9  12
ENDBRANCH   4   6
BRANCH   1  16
ATOM     15  N   UNL     1       0.026  -0.014   2.417  0.00  0.00    -0.280 N 
ATOM     16  C   UNL     1      -0.056  -0.693   3.578  0.00  0.00    +0.268 C 
ATOM     17  O   UNL     1      -0.040  -1.909   3.574  0.00  0.00    -0.268 OA
ATOM     18  H   UNL     1       0.079   0.955   2.424  0.00  0.00    +0.155 HD
BRANCH  15  25
ATOM     19  C   UNL     1      -1.267   1.183   0.183  0.00  0.00    +0.045 C 
ATOM     20  C   UNL     1      -0.586  -0.158   0.085  0.00  0.00    -0.029 A 
ATOM     21  C   UNL     1      -0.572  -0.840  -1.116  0.00  0.00    +0.008 A 
ATOM     22  C   UNL     1       0.052  -2.070  -1.208  0.00  0.00    +0.039 A 
ATOM     23  C   UNL     1       0.666  -2.623  -0.095  0.00  0.00    +0.125 A 
ATOM     24  C   UNL     1       0.655  -1.944   1.110  0.00  0.00    +0.062 A 
ATOM     25  C   UNL     1       0.033  -0.706   1.201  0.00  0.00    +0.039 A 
ATOM     26  F   UNL     1       1.275  -3.825  -0.188  0.00  0.00    -0.205 F 
ENDBRANCH  15  25
ENDBRANCH   1  16
TORSDOF 4
