REMARK  Name = ZINC52927979
REMARK  10 active torsions:
REMARK  status: ('A' for Active; 'I' for Inactive)
REMARK    1  A    between atoms: C_1  and  C_2
REMARK    2  A    between atoms: C_2  and  N_3
REMARK    3  A    between atoms: N_3  and  C_4
REMARK    4  A    between atoms: N_3  and  C_6
REMARK    5  A    between atoms: C_4  and  C_5
REMARK    6  A    between atoms: C_9  and  N_12
REMARK    7  A    between atoms: C_13  and  C_15
REMARK    8  A    between atoms: N_17  and  C_29
REMARK    9  A    between atoms: C_19  and  C_20
REMARK   10  A    between atoms: C_23  and  N_26
REMARK                            x       y       z     vdW  Elec       q    Type
REMARK                         _______ _______ _______ _____ _____    ______ ____
ROOT
ATOM      1  N   UNL     1       0.113  -5.779  -1.846  0.00  0.00    -0.281 N 
ATOM      2  C   UNL     1      -0.440  -6.259  -2.978  0.00  0.00    +0.252 C 
ATOM      3  O   UNL     1      -0.690  -5.506  -3.899  0.00  0.00    -0.270 OA
ATOM      4  H   UNL     1       0.374  -6.388  -1.138  0.00  0.00    +0.155 HD
ENDROOT
BRANCH   1   8
ATOM      5  C   UNL     1       0.705  -1.681  -1.392  0.00  0.00    +0.014 A 
ATOM      6  C   UNL     1       0.353  -2.453  -0.299  0.00  0.00    +0.023 A 
ATOM      7  C   UNL     1       0.156  -3.812  -0.447  0.00  0.00    +0.025 A 
ATOM      8  C   UNL     1       0.311  -4.403  -1.694  0.00  0.00    +0.034 A 
ATOM      9  C   UNL     1       0.665  -3.625  -2.789  0.00  0.00    +0.025 A 
ATOM     10  C   UNL     1       0.855  -2.266  -2.636  0.00  0.00    +0.023 A 
BRANCH   5  11
ATOM     11  N   UNL     1       0.903  -0.306  -1.239  0.00  0.00    -0.394 NA
ATOM     12  H   UNL     1       1.148   0.100  -2.130  0.00  0.00    +0.126 HD
BRANCH  11  14
ATOM     13  C   UNL     1      -1.426   0.199  -1.806  0.00  0.00    +0.022 C 
ATOM     14  C   UNL     1      -0.333   0.315  -0.742  0.00  0.00    +0.081 C 
ENDBRANCH  11  14
BRANCH  11  15
ATOM     15  C   UNL     1       1.989  -0.071  -0.279  0.00  0.00    +0.081 C 
ATOM     16  C   UNL     1       3.301  -0.613  -0.851  0.00  0.00    +0.022 C 
ENDBRANCH  11  15
ENDBRANCH   5  11
ENDBRANCH   1   8
BRANCH   2  17
ATOM     17  C   UNL     1      -0.742  -7.695  -3.098  0.00  0.00    +0.082 A 
ATOM     18  C   UNL     1      -0.623  -8.651  -2.110  0.00  0.00    +0.121 A 
ATOM     19  N   UNL     1      -0.997  -9.830  -2.629  0.00  0.00    -0.273 N 
ATOM     20  N   UNL     1      -1.367  -9.659  -3.966  0.00  0.00    -0.171 NA
ATOM     21  C   UNL     1      -1.236  -8.393  -4.289  0.00  0.00    +0.105 A 
ATOM     22  C   UNL     1      -1.015 -11.103  -1.905  0.00  0.00    +0.172 C 
BRANCH  21  23
ATOM     23  C   UNL     1      -1.528  -7.784  -5.610  0.00  0.00    +0.003 A 
ATOM     24  C   UNL     1      -0.641  -6.865  -6.168  0.00  0.00    +0.012 A 
ATOM     25  C   UNL     1      -0.918  -6.303  -7.398  0.00  0.00    +0.033 A 
ATOM     26  C   UNL     1      -2.074  -6.649  -8.075  0.00  0.00    +0.126 A 
ATOM     27  C   UNL     1      -2.957  -7.560  -7.526  0.00  0.00    +0.033 A 
ATOM     28  C   UNL     1      -2.688  -8.133  -6.300  0.00  0.00    +0.012 A 
BRANCH  26  29
ATOM     29  N   UNL     1      -2.366  -6.041  -9.393  0.00  0.00    +0.056 N 
ATOM     30  O   UNL     1      -1.595  -5.244  -9.875  0.00  0.00    -0.126 OA
ATOM     31  O   UNL     1      -3.375  -6.342  -9.987  0.00  0.00    -0.126 OA
ENDBRANCH  26  29
ENDBRANCH  21  23
ENDBRANCH   2  17
TORSDOF 7
