REMARK  Name = ZINC04972050
REMARK  4 active torsions:
REMARK  status: ('A' for Active; 'I' for Inactive)
REMARK    1  A    between atoms: C_1  and  C_2
REMARK    2  A    between atoms: C_8  and  N_10
REMARK    3  A    between atoms: C_11  and  C_13
REMARK    4  A    between atoms: C_14  and  C_24
REMARK                            x       y       z     vdW  Elec       q    Type
REMARK                         _______ _______ _______ _____ _____    ______ ____
ROOT
ATOM      1  C   UNL     1       0.411   6.036  -1.046  0.00  0.00    +0.202 A 
ATOM      2  C   UNL     1      -0.070   5.324   0.030  0.00  0.00    +0.038 A 
ATOM      3  C   UNL     1      -0.611   6.059   1.186  0.00  0.00    +0.000 A 
ATOM      4  C   UNL     1      -1.110   5.405   2.309  0.00  0.00    +0.009 A 
ATOM      5  C   UNL     1      -1.600   6.145   3.365  0.00  0.00    +0.001 A 
ATOM      6  C   UNL     1      -1.595   7.532   3.320  0.00  0.00    +0.001 A 
ATOM      7  C   UNL     1      -1.100   8.199   2.218  0.00  0.00    +0.015 A 
ATOM      8  C   UNL     1      -0.601   7.471   1.141  0.00  0.00    +0.067 A 
ATOM      9  C   UNL     1      -0.062   8.128  -0.058  0.00  0.00    +0.345 A 
ATOM     10  O   UNL     1      -0.042   9.342  -0.133  0.00  0.00    -0.245 OA
ATOM     11  O   UNL     1       0.408   7.383  -1.072  0.00  0.00    -0.416 OA
ENDROOT
BRANCH   2  12
ATOM     12  C   UNL     1      -0.050   3.845   0.023  0.00  0.00    -0.014 A 
ATOM     13  C   UNL     1       1.166   3.160   0.008  0.00  0.00    +0.008 A 
ATOM     14  C   UNL     1       1.178   1.781   0.000  0.00  0.00    +0.001 A 
ATOM     15  C   UNL     1      -0.013   1.076   0.008  0.00  0.00    +0.000 A 
ATOM     16  C   UNL     1      -1.222   1.748   0.017  0.00  0.00    +0.001 A 
ATOM     17  C   UNL     1      -1.248   3.127   0.030  0.00  0.00    +0.008 A 
ENDBRANCH   2  12
BRANCH   1  19
ATOM     18  N   UNL     1       1.423   5.979  -3.266  0.00  0.00    -0.306 N 
ATOM     19  C   UNL     1       0.946   5.303  -2.201  0.00  0.00    +0.280 C 
ATOM     20  O   UNL     1       0.959   4.087  -2.198  0.00  0.00    -0.267 OA
ATOM     21  H   UNL     1       1.413   6.949  -3.269  0.00  0.00    +0.149 HD
BRANCH  18  28
ATOM     22  C   UNL     1       4.103   6.512  -4.226  0.00  0.00    +0.009 C 
ATOM     23  C   UNL     1       2.956   6.133  -5.165  0.00  0.00    +0.006 C 
ATOM     24  C   UNL     1       3.513   5.370  -6.369  0.00  0.00    +0.005 C 
ATOM     25  C   UNL     1       2.366   4.992  -7.308  0.00  0.00    +0.000 C 
ATOM     26  C   UNL     1       1.366   4.107  -6.561  0.00  0.00    +0.002 C 
ATOM     27  C   UNL     1       0.809   4.870  -5.357  0.00  0.00    +0.022 C 
ATOM     28  C   UNL     1       1.956   5.248  -4.418  0.00  0.00    +0.076 C 
ENDBRANCH  18  28
ENDBRANCH   1  19
TORSDOF 3
