REMARK  Name = ZINC06441933
REMARK  11 active torsions:
REMARK  status: ('A' for Active; 'I' for Inactive)
REMARK    1  A    between atoms: C_1  and  C_2
REMARK    2  A    between atoms: C_7  and  C_15
REMARK    3  A    between atoms: C_13  and  C_14
REMARK    4  A    between atoms: C_15  and  C_17
REMARK    5  A    between atoms: C_15  and  N_71
REMARK    6  A    between atoms: N_21  and  C_22
REMARK    7  A    between atoms: C_22  and  C_23
REMARK    8  A    between atoms: C_22  and  C_24
REMARK    9  A    between atoms: C_22  and  C_25
REMARK   10  A    between atoms: N_28  and  C_31
REMARK   11  A    between atoms: C_36  and  C_37
REMARK                            x       y       z     vdW  Elec       q    Type
REMARK                         _______ _______ _______ _____ _____    ______ ____
ROOT
ATOM      1  C   UNL     1      -0.030   1.207  -0.029  0.00  0.00    +0.039 C 
ENDROOT
BRANCH   1   8
ATOM      2  C   UNL     1       7.523   3.392   1.312  0.00  0.00    +0.044 C 
ATOM      3  C   UNL     1       6.181   2.761   1.045  0.00  0.00    -0.046 A 
ATOM      4  C   UNL     1       6.089   1.387   0.874  0.00  0.00    +0.004 A 
ATOM      5  C   UNL     1       4.882   0.795   0.631  0.00  0.00    +0.010 A 
ATOM      6  C   UNL     1       3.727   1.582   0.554  0.00  0.00    -0.001 A 
ATOM      7  C   UNL     1       2.417   0.980   0.302  0.00  0.00    +0.017 A 
ATOM      8  C   UNL     1       1.333   1.793   0.234  0.00  0.00    +0.011 A 
ATOM      9  C   UNL     1       1.477   3.186   0.414  0.00  0.00    +0.251 A 
ATOM     10  O   UNL     1       0.489   3.897   0.353  0.00  0.00    -0.268 OA
ATOM     11  N   UNL     1       2.676   3.746   0.651  0.00  0.00    -0.322 N 
ATOM     12  H   UNL     1       2.739   4.707   0.770  0.00  0.00    +0.169 HD
ATOM     13  C   UNL     1       3.816   2.976   0.727  0.00  0.00    +0.052 A 
ATOM     14  C   UNL     1       5.057   3.556   0.972  0.00  0.00    -0.024 A 
ATOM     15  C   UNL     1       5.171   5.047   1.159  0.00  0.00    +0.046 C 
ENDBRANCH   1   8
BRANCH   1  21
ATOM     16  C   UNL     1      -0.437   1.223   2.358  0.00  0.00    -0.058 C 
ATOM     17  C   UNL     1      -1.385   1.735   3.445  0.00  0.00    +0.086 C 
ATOM     18  N   UNL     1      -2.728   1.180   3.221  0.00  0.00    -0.333 N 
ATOM     19  C   UNL     1      -3.243   1.571   1.902  0.00  0.00    +0.086 C 
ATOM     20  C   UNL     1      -2.295   1.060   0.815  0.00  0.00    -0.058 C 
ATOM     21  N   UNL     1      -0.955   1.642   1.039  0.00  0.00    +0.391 N 
ATOM     22  H   UNL     1      -1.028   2.666   1.019  0.00  0.00    -0.080 HD
BRANCH  18  23
ATOM     23  C   UNL     1      -3.605   1.568   4.237  0.00  0.00    +0.034 A 
ATOM     24  C   UNL     1      -3.844   2.916   4.473  0.00  0.00    +0.043 A 
ATOM     25  C   UNL     1      -4.715   3.296   5.476  0.00  0.00    +0.043 A 
ATOM     26  C   UNL     1      -5.343   2.335   6.250  0.00  0.00    +0.020 A 
ATOM     27  C   UNL     1      -5.103   0.993   6.019  0.00  0.00    +0.006 A 
ATOM     28  C   UNL     1      -4.236   0.607   5.016  0.00  0.00    -0.029 A 
ATOM     29  C   UNL     1      -3.976  -0.857   4.766  0.00  0.00    +0.045 C 
ATOM     30 CL   UNL     1      -5.019   4.979   5.769  0.00  0.00    -0.083 Cl
ENDBRANCH  18  23
ENDBRANCH   1  21
BRANCH   1  31
ATOM     31  C   UNL     1      -0.544   1.705  -1.355  0.00  0.00    +0.143 A 
ATOM     32  N   UNL     1      -0.923   2.928  -1.638  0.00  0.00    -0.115 NA
ATOM     33  N   UNL     1      -1.293   2.954  -2.872  0.00  0.00    -0.023 NA
ATOM     34  N   UNL     1      -1.168   1.779  -3.381  0.00  0.00    -0.043 NA
ATOM     35  N   UNL     1      -0.708   0.981  -2.477  0.00  0.00    -0.225 N 
BRANCH  35  36
ATOM     36  C   UNL     1      -0.420  -0.446  -2.642  0.00  0.00    +0.059 C 
ATOM     37  C   UNL     1      -1.323  -1.260  -1.713  0.00  0.00    +0.036 C 
ATOM     38  C   UNL     1      -0.680  -0.855  -4.093  0.00  0.00    +0.036 C 
ATOM     39  C   UNL     1       1.046  -0.714  -2.292  0.00  0.00    +0.036 C 
ENDBRANCH  35  36
ENDBRANCH   1  31
TORSDOF 5
