REMARK  Name = ZINC13064550
REMARK  14 active torsions:
REMARK  status: ('A' for Active; 'I' for Inactive)
REMARK    1  A    between atoms: C_1  and  C_2
REMARK    2  A    between atoms: C_2  and  C_3
REMARK    3  A    between atoms: C_3  and  C_5
REMARK    4  A    between atoms: C_3  and  N_65
REMARK    5  A    between atoms: N_9  and  C_10
REMARK    6  A    between atoms: C_10  and  C_11
REMARK    7  A    between atoms: C_10  and  C_12
REMARK    8  A    between atoms: C_10  and  C_13
REMARK    9  A    between atoms: C_14  and  C_15
REMARK   10  A    between atoms: C_14  and  N_65
REMARK   11  A    between atoms: C_20  and  C_21
REMARK   12  A    between atoms: C_20  and  N_65
REMARK   13  A    between atoms: C_25  and  C_34
REMARK   14  A    between atoms: C_26  and  C_33
REMARK                            x       y       z     vdW  Elec       q    Type
REMARK                         _______ _______ _______ _____ _____    ______ ____
ROOT
ATOM      1  N   UNL     1      -0.495  -2.169  -0.817  0.00  0.00    +0.394 N 
ATOM      2  H   UNL     1       0.290  -2.547  -0.275  0.00  0.00    -0.080 HD
ENDROOT
BRANCH   1   3
ATOM      3  C   UNL     1      -0.676  -0.744  -0.469  0.00  0.00    +0.003 C 
BRANCH   3   4
ATOM      4  C   UNL     1       0.462   0.055  -1.051  0.00  0.00    +0.139 A 
ATOM      5  N   UNL     1       1.732  -0.270  -1.041  0.00  0.00    -0.115 NA
ATOM      6  N   UNL     1       2.387   0.667  -1.635  0.00  0.00    -0.023 NA
ATOM      7  N   UNL     1       1.568   1.581  -2.024  0.00  0.00    -0.043 NA
ATOM      8  N   UNL     1       0.371   1.240  -1.682  0.00  0.00    -0.226 N 
BRANCH   8   9
ATOM      9  C   UNL     1      -0.856   1.998  -1.939  0.00  0.00    +0.059 C 
ATOM     10  C   UNL     1      -1.597   2.231  -0.620  0.00  0.00    +0.036 C 
ATOM     11  C   UNL     1      -0.501   3.346  -2.569  0.00  0.00    +0.036 C 
ATOM     12  C   UNL     1      -1.752   1.209  -2.895  0.00  0.00    +0.036 C 
ENDBRANCH   8   9
ENDBRANCH   3   4
BRANCH   3  14
ATOM     13  C   UNL     1       0.667  -1.105   1.607  0.00  0.00    +0.002 C 
ATOM     14  C   UNL     1      -0.670  -0.605   1.055  0.00  0.00    -0.011 C 
ENDBRANCH   3  14
ENDBRANCH   1   3
BRANCH   1  15
ATOM     15  C   UNL     1      -0.192  -2.302  -2.258  0.00  0.00    -0.002 C 
BRANCH  15  16
ATOM     16  C   UNL     1       0.356  -3.683  -2.511  0.00  0.00    +0.089 A 
ATOM     17  C   UNL     1      -0.352  -4.746  -2.930  0.00  0.00    +0.042 A 
ATOM     18  C   UNL     1       0.553  -5.827  -3.034  0.00  0.00    +0.041 A 
ATOM     19  C   UNL     1       1.761  -5.359  -2.672  0.00  0.00    +0.195 A 
ATOM     20  O   UNL     1       1.637  -4.058  -2.361  0.00  0.00    -0.470 OA
ENDBRANCH  15  16
ENDBRANCH   1  15
BRANCH   1  21
ATOM     21  C   UNL     1      -1.719  -2.929  -0.486  0.00  0.00    -0.036 C 
BRANCH  21  22
ATOM     22  C   UNL     1      -2.898  -2.394  -1.256  0.00  0.00    +0.001 A 
ATOM     23  C   UNL     1      -3.245  -2.959  -2.439  0.00  0.00    +0.017 A 
ATOM     24  C   UNL     1      -4.396  -2.416  -3.163  0.00  0.00    -0.001 A 
ATOM     25  C   UNL     1      -4.801  -2.957  -4.387  0.00  0.00    +0.013 A 
ATOM     26  C   UNL     1      -5.879  -2.427  -5.038  0.00  0.00    -0.047 A 
ATOM     27  C   UNL     1      -6.576  -1.356  -4.495  0.00  0.00    -0.046 A 
ATOM     28  C   UNL     1      -6.195  -0.807  -3.290  0.00  0.00    +0.030 A 
ATOM     29  C   UNL     1      -5.100  -1.330  -2.609  0.00  0.00    +0.049 A 
ATOM     30  N   UNL     1      -4.697  -0.801  -1.401  0.00  0.00    -0.322 N 
ATOM     31  H   UNL     1      -5.183  -0.053  -1.021  0.00  0.00    +0.169 HD
ATOM     32  C   UNL     1      -3.642  -1.310  -0.741  0.00  0.00    +0.251 A 
ATOM     33  O   UNL     1      -3.316  -0.820   0.326  0.00  0.00    -0.268 OA
ATOM     34  C   UNL     1      -7.763  -0.788  -5.231  0.00  0.00    +0.044 C 
ATOM     35  C   UNL     1      -6.316  -3.010  -6.357  0.00  0.00    +0.044 C 
ENDBRANCH  21  22
ENDBRANCH   1  21
TORSDOF 8
