REMARK  Name = ZINC34978982
REMARK  11 active torsions:
REMARK  status: ('A' for Active; 'I' for Inactive)
REMARK    1  A    between atoms: C_1  and  C_2
REMARK    2  A    between atoms: C_2  and  C_3
REMARK    3  A    between atoms: C_3  and  C_4
REMARK    4  A    between atoms: C_4  and  N_5
REMARK    5  A    between atoms: C_13  and  C_15
REMARK    6  A    between atoms: C_16  and  C_18
REMARK    7  A    between atoms: C_18  and  C_20
REMARK    8  A    between atoms: C_18  and  N_27
REMARK    9  A    between atoms: C_20  and  C_21
REMARK   10  A    between atoms: N_27  and  S_28
REMARK   11  A    between atoms: S_28  and  C_31
REMARK                            x       y       z     vdW  Elec       q    Type
REMARK                         _______ _______ _______ _____ _____    ______ ____
ROOT
ATOM      1  C   UNL     1      -8.923  -4.662   1.521  0.00  0.00    +0.166 C 
ENDROOT
BRANCH   1  12
ATOM      2  N   UNL     1      -2.915  -2.993  -0.799  0.00  0.00    -0.299 N 
ATOM      3  C   UNL     1      -3.176  -4.303  -0.619  0.00  0.00    +0.303 C 
ATOM      4  O   UNL     1      -2.282  -5.120  -0.717  0.00  0.00    -0.253 OA
ATOM      5  N   UNL     1      -4.430  -4.706  -0.331  0.00  0.00    -0.280 N 
ATOM      6  C   UNL     1      -5.542  -3.745  -0.323  0.00  0.00    +0.128 C 
ATOM      7  C   UNL     1      -6.241  -3.817   1.040  0.00  0.00    +0.127 C 
ATOM      8  N   UNL     1      -6.520  -5.226   1.352  0.00  0.00    -0.297 N 
ATOM      9  C   UNL     1      -5.408  -6.186   1.344  0.00  0.00    +0.130 C 
ATOM     10  C   UNL     1      -4.709  -6.116  -0.024  0.00  0.00    +0.092 C 
ATOM     11  C   UNL     1      -5.623  -6.704  -1.102  0.00  0.00    +0.030 C 
ATOM     12  C   UNL     1      -7.773  -5.629   1.640  0.00  0.00    +0.235 C 
ATOM     13  O   UNL     1      -7.976  -6.771   1.996  0.00  0.00    -0.274 OA
ATOM     14  H   UNL     1      -3.640  -2.348  -0.793  0.00  0.00    +0.150 HD
BRANCH   2  15
ATOM     15  C   UNL     1      -1.536  -2.542  -1.004  0.00  0.00    +0.106 C 
BRANCH  15  16
ATOM     16  C   UNL     1      -1.517  -1.023  -1.181  0.00  0.00    +0.018 C 
BRANCH  16  18
ATOM     17  C   UNL     1      -0.058   0.967  -1.572  0.00  0.00    +0.004 C 
ATOM     18  C   UNL     1      -0.077  -0.552  -1.395  0.00  0.00    -0.002 C 
ENDBRANCH  16  18
ENDBRANCH  15  16
ENDBRANCH   2  15
ENDBRANCH   1  12
BRANCH   1  19
ATOM     19  N   UNL     1     -10.187  -5.402   1.536  0.00  0.00    -0.178 NA
ATOM     20  H   UNL     1     -10.276  -6.199   2.081  0.00  0.00    +0.149 HD
BRANCH  19  21
ATOM     21  S   UNL     1     -11.464  -4.877   0.622  0.00  0.00    +0.059 S 
ATOM     22  O   UNL     1     -12.520  -5.807   0.827  0.00  0.00    -0.153 OA
ATOM     23  O   UNL     1     -11.610  -3.489   0.887  0.00  0.00    -0.153 OA
BRANCH  21  24
ATOM     24  C   UNL     1     -10.989  -5.020  -1.069  0.00  0.00    +0.105 A 
ATOM     25  C   UNL     1     -10.360  -3.964  -1.701  0.00  0.00    +0.030 A 
ATOM     26  C   UNL     1      -9.987  -4.076  -3.027  0.00  0.00    +0.022 A 
ATOM     27  C   UNL     1     -10.243  -5.245  -3.722  0.00  0.00    +0.041 A 
ATOM     28  C   UNL     1     -10.872  -6.301  -3.088  0.00  0.00    +0.022 A 
ATOM     29  C   UNL     1     -11.240  -6.191  -1.760  0.00  0.00    +0.030 A 
ATOM     30 CL   UNL     1      -9.775  -5.386  -5.387  0.00  0.00    -0.084 Cl
ENDBRANCH  21  24
ENDBRANCH  19  21
ENDBRANCH   1  19
BRANCH   1  31
ATOM     31  C   UNL     1      -8.890  -3.683   2.696  0.00  0.00    +0.065 C 
BRANCH  31  32
ATOM     32  C   UNL     1     -10.058  -2.736   2.594  0.00  0.00    -0.045 A 
ATOM     33  C   UNL     1      -9.927  -1.550   1.896  0.00  0.00    +0.004 A 
ATOM     34  C   UNL     1     -10.998  -0.681   1.802  0.00  0.00    +0.000 A 
ATOM     35  C   UNL     1     -12.200  -0.999   2.406  0.00  0.00    +0.000 A 
ATOM     36  C   UNL     1     -12.332  -2.185   3.103  0.00  0.00    +0.000 A 
ATOM     37  C   UNL     1     -11.262  -3.056   3.193  0.00  0.00    +0.004 A 
ENDBRANCH  31  32
ENDBRANCH   1  31
TORSDOF 9
