REMARK  Name = ZINC21313520
REMARK  6 active torsions:
REMARK  status: ('A' for Active; 'I' for Inactive)
REMARK    1  A    between atoms: C_1  and  C_2
REMARK    2  A    between atoms: C_2  and  C_4
REMARK    3  A    between atoms: C_2  and  N_14
REMARK    4  A    between atoms: C_15  and  C_17
REMARK    5  A    between atoms: C_17  and  S_18
REMARK    6  A    between atoms: S_18  and  C_19
REMARK                            x       y       z     vdW  Elec       q    Type
REMARK                         _______ _______ _______ _____ _____    ______ ____
ROOT
ATOM      1  C   UNL     1      -6.347  -0.268  -2.813  0.00  0.00    +0.173 C 
ENDROOT
BRANCH   1   3
ATOM      2  N   UNL     1      -4.158  -0.316  -1.663  0.00  0.00    -0.308 N 
ATOM      3  C   UNL     1      -5.240  -0.994  -2.093  0.00  0.00    +0.224 C 
ATOM      4  O   UNL     1      -5.323  -2.189  -1.901  0.00  0.00    -0.275 OA
ATOM      5  H   UNL     1      -4.082   0.767  -1.837  0.00  0.00    +0.149 HD
BRANCH   2   7
ATOM      6  C   UNL     1      -3.425  -1.129   0.524  0.00  0.00    +0.033 C 
ATOM      7  C   UNL     1      -3.082  -1.022  -0.963  0.00  0.00    +0.100 C 
BRANCH   7   8
ATOM      8  C   UNL     1      -1.791  -0.261  -1.127  0.00  0.00    -0.024 A 
ATOM      9  C   UNL     1      -1.792   1.120  -1.063  0.00  0.00    +0.009 A 
ATOM     10  C   UNL     1      -0.611   1.821  -1.218  0.00  0.00    +0.050 A 
ATOM     11  C   UNL     1       0.579   1.141  -1.432  0.00  0.00    +0.162 A 
ATOM     12  C   UNL     1       0.579  -0.247  -1.494  0.00  0.00    +0.162 A 
ATOM     13  C   UNL     1      -0.610  -0.945  -1.342  0.00  0.00    +0.055 A 
ATOM     14  O   UNL     1       1.735  -0.934  -1.702  0.00  0.00    -0.485 OA
ATOM     15  C   UNL     1       2.842  -0.190  -2.223  0.00  0.00    +0.270 C 
ATOM     16  C   UNL     1       2.956   1.118  -1.428  0.00  0.00    +0.270 C 
ATOM     17  O   UNL     1       1.733   1.846  -1.584  0.00  0.00    -0.485 OA
ENDBRANCH   7   8
ENDBRANCH   2   7
ENDBRANCH   1   3
BRANCH   1  18
ATOM     18  S   UNL     1      -7.648  -1.444  -3.261  0.00  0.00    -0.077 S 
BRANCH  18  19
ATOM     19  C   UNL     1      -8.779  -0.357  -4.064  0.00  0.00    +0.191 A 
ATOM     20  N   UNL     1      -8.483   0.934  -4.164  0.00  0.00    -0.207 NA
ATOM     21  C   UNL     1      -9.292   1.797  -4.755  0.00  0.00    +0.129 A 
ATOM     22  C   UNL     1     -10.521   1.335  -5.304  0.00  0.00    +0.051 A 
ATOM     23  C   UNL     1     -11.560   2.101  -5.995  0.00  0.00    -0.025 A 
ATOM     24  C   UNL     1     -12.640   1.418  -6.424  0.00  0.00    -0.004 A 
ATOM     25  S   UNL     1     -12.347  -0.262  -5.942  0.00  0.00    -0.073 S 
ATOM     26  C   UNL     1     -10.769  -0.045  -5.162  0.00  0.00    +0.115 A 
ATOM     27  N   UNL     1      -9.907  -0.844  -4.562  0.00  0.00    -0.214 NA
ATOM     28  C   UNL     1     -13.831   1.966  -7.151  0.00  0.00    +0.043 C 
ATOM     29  C   UNL     1     -13.821   3.495  -7.014  0.00  0.00    +0.005 C 
ATOM     30  C   UNL     1     -12.415   4.008  -7.341  0.00  0.00    +0.005 C 
ATOM     31  C   UNL     1     -11.445   3.605  -6.230  0.00  0.00    +0.037 C 
ATOM     32  N   UNL     1      -8.947   3.134  -4.839  0.00  0.00    -0.343 N 
ATOM     33  H   UNL     1      -9.625   3.846  -5.332  0.00  0.00    +0.144 HD
ATOM     34  H   UNL     1      -7.996   3.484  -4.413  0.00  0.00    +0.144 HD
ENDBRANCH  18  19
ENDBRANCH   1  18
TORSDOF 5
