REMARK  Name = ZINC06797561
REMARK  7 active torsions:
REMARK  status: ('A' for Active; 'I' for Inactive)
REMARK    1  A    between atoms: C_1  and  C_2
REMARK    2  A    between atoms: C_7  and  N_12
REMARK    3  A    between atoms: C_9  and  C_11
REMARK    4  A    between atoms: C_13  and  C_15
REMARK    5  A    between atoms: C_15  and  C_16
REMARK    6  A    between atoms: C_16  and  C_17
REMARK    7  A    between atoms: C_17  and  N_18
REMARK                            x       y       z     vdW  Elec       q    Type
REMARK                         _______ _______ _______ _____ _____    ______ ____
ROOT
ATOM      1  C   UNL     1      -4.386   0.931  -4.463  0.00  0.00    +0.127 C 
ENDROOT
BRANCH   1   2
ATOM      2  N   UNL     1      -5.482   0.014  -4.786  0.00  0.00    -0.290 N 
ATOM      3  C   UNL     1      -6.741   0.222  -4.233  0.00  0.00    +0.160 A 
ATOM      4  C   UNL     1      -7.795  -0.643  -4.531  0.00  0.00    +0.090 A 
ATOM      5  C   UNL     1      -9.044  -0.415  -3.966  0.00  0.00    +0.031 A 
ATOM      6  C   UNL     1      -9.196   0.673  -3.120  0.00  0.00    +0.022 A 
ATOM      7  C   UNL     1      -8.109   1.489  -2.868  0.00  0.00    +0.113 A 
ATOM      8  N   UNL     1      -6.935   1.250  -3.418  0.00  0.00    -0.236 NA
ATOM      9  N   UNL     1      -7.602  -1.730  -5.388  0.00  0.00    -0.309 N 
ATOM     10  C   UNL     1      -8.437  -2.702  -5.833  0.00  0.00    +0.092 A 
ATOM     11  C   UNL     1      -7.749  -3.529  -6.658  0.00  0.00    +0.020 A 
ATOM     12  C   UNL     1      -6.434  -3.062  -6.736  0.00  0.00    +0.033 A 
ATOM     13  C   UNL     1      -6.355  -1.941  -5.940  0.00  0.00    +0.112 A 
ATOM     14  C   UNL     1      -5.262  -1.020  -5.622  0.00  0.00    +0.277 A 
ATOM     15  O   UNL     1      -4.158  -1.192  -6.105  0.00  0.00    -0.265 OA
ENDBRANCH   1   2
BRANCH   1  16
ATOM     16  C   UNL     1      -3.647   0.424  -3.223  0.00  0.00    +0.031 C 
BRANCH  16  17
ATOM     17  C   UNL     1      -2.502   1.382  -2.885  0.00  0.00    +0.097 C 
BRANCH  17  19
ATOM     18  N   UNL     1      -0.721   1.571  -1.179  0.00  0.00    -0.312 N 
ATOM     19  C   UNL     1      -1.773   0.883  -1.664  0.00  0.00    +0.213 C 
ATOM     20  O   UNL     1      -2.134  -0.139  -1.118  0.00  0.00    -0.276 OA
ATOM     21  H   UNL     1      -0.433   2.388  -1.615  0.00  0.00    +0.149 HD
BRANCH  18  27
ATOM     22  C   UNL     1       3.598   1.638   1.226  0.00  0.00    +0.008 C 
ATOM     23  C   UNL     1       2.163   1.109   1.237  0.00  0.00    -0.009 C 
ATOM     24  C   UNL     1       1.446   1.602   2.495  0.00  0.00    +0.003 C 
ATOM     25  C   UNL     1       0.011   1.072   2.506  0.00  0.00    +0.002 C 
ATOM     26  C   UNL     1      -0.729   1.579   1.267  0.00  0.00    +0.022 C 
ATOM     27  C   UNL     1      -0.013   1.086   0.008  0.00  0.00    +0.076 C 
ATOM     28  C   UNL     1       1.423   1.615  -0.003  0.00  0.00    +0.009 C 
ATOM     29  C   UNL     1       2.139   1.122  -1.262  0.00  0.00    +0.009 C 
ENDBRANCH  18  27
ENDBRANCH  17  19
ENDBRANCH  16  17
ENDBRANCH   1  16
TORSDOF 5
