REMARK  Name = ZINC16796273
REMARK  13 active torsions:
REMARK  status: ('A' for Active; 'I' for Inactive)
REMARK    1  A    between atoms: C_1  and  C_2
REMARK    2  A    between atoms: C_5  and  N_9
REMARK    3  A    between atoms: C_6  and  C_8
REMARK    4  A    between atoms: C_10  and  C_12
REMARK    5  A    between atoms: C_12  and  C_14
REMARK    6  A    between atoms: C_12  and  S_15
REMARK    7  A    between atoms: S_15  and  C_16
REMARK    8  A    between atoms: N_29  and  C_30
REMARK    9  A    between atoms: C_30  and  C_31
REMARK   10  A    between atoms: C_31  and  C_32
REMARK   11  A    between atoms: C_32  and  N_68
REMARK   12  A    between atoms: C_33  and  N_68
REMARK   13  A    between atoms: C_34  and  N_68
REMARK                            x       y       z     vdW  Elec       q    Type
REMARK                         _______ _______ _______ _____ _____    ______ ____
ROOT
ATOM      1  C   UNL     1       2.314   0.892   1.429  0.00  0.00    +0.173 A 
ATOM      2  N   UNL     1       1.528   0.094   2.123  0.00  0.00    -0.216 NA
ATOM      3  C   UNL     1       1.984  -0.546   3.193  0.00  0.00    +0.117 A 
ATOM      4  C   UNL     1       3.307  -0.401   3.644  0.00  0.00    +0.076 A 
ATOM      5  C   UNL     1       3.661  -1.165   4.842  0.00  0.00    -0.023 A 
ATOM      6  C   UNL     1       2.694  -1.927   5.390  0.00  0.00    -0.004 A 
ATOM      7  S   UNL     1       1.272  -1.677   4.362  0.00  0.00    -0.073 S 
ATOM      8  C   UNL     1       2.802  -2.796   6.606  0.00  0.00    +0.043 C 
ATOM      9  C   UNL     1       4.290  -2.986   6.935  0.00  0.00    +0.005 C 
ATOM     10  C   UNL     1       4.980  -1.619   6.898  0.00  0.00    +0.005 C 
ATOM     11  C   UNL     1       5.057  -1.115   5.457  0.00  0.00    +0.037 C 
ATOM     12  C   UNL     1       4.135   0.476   2.874  0.00  0.00    +0.263 A 
ATOM     13  O   UNL     1       5.297   0.664   3.191  0.00  0.00    -0.267 OA
ATOM     14  N   UNL     1       3.613   1.091   1.797  0.00  0.00    -0.287 N 
ENDROOT
BRANCH   1  15
ATOM     15  S   UNL     1       1.677   1.720   0.009  0.00  0.00    -0.075 S 
BRANCH  15  16
ATOM     16  C   UNL     1      -0.021   1.094   0.017  0.00  0.00    +0.137 C 
ATOM     17  C   UNL     1      -0.744   1.596   1.269  0.00  0.00    +0.029 C 
BRANCH  16  19
ATOM     18  N   UNL     1      -1.854   0.954  -1.639  0.00  0.00    -0.284 N 
ATOM     19  C   UNL     1      -0.743   1.587  -1.211  0.00  0.00    +0.230 C 
ATOM     20  O   UNL     1      -0.325   2.553  -1.814  0.00  0.00    -0.274 OA
ATOM     21  H   UNL     1      -2.143   0.136  -1.206  0.00  0.00    +0.155 HD
BRANCH  18  26
ATOM     22  C   UNL     1      -4.835   3.076  -5.974  0.00  0.00    +0.044 C 
ATOM     23  C   UNL     1      -4.043   2.512  -4.822  0.00  0.00    -0.050 A 
ATOM     24  C   UNL     1      -3.254   3.348  -4.053  0.00  0.00    +0.005 A 
ATOM     25  C   UNL     1      -2.527   2.834  -2.997  0.00  0.00    +0.024 A 
ATOM     26  C   UNL     1      -2.589   1.477  -2.708  0.00  0.00    +0.036 A 
ATOM     27  C   UNL     1      -3.378   0.640  -3.486  0.00  0.00    -0.029 A 
ATOM     28  C   UNL     1      -4.107   1.161  -4.537  0.00  0.00    +0.008 A 
ATOM     29  C   UNL     1      -3.444  -0.834  -3.179  0.00  0.00    +0.045 C 
ENDBRANCH  18  26
ENDBRANCH  16  19
ENDBRANCH  15  16
ENDBRANCH   1  15
BRANCH  14  30
ATOM     30  C   UNL     1       4.456   1.990   1.004  0.00  0.00    +0.125 C 
BRANCH  30  31
ATOM     31  C   UNL     1       4.344   3.412   1.557  0.00  0.00    +0.003 C 
BRANCH  31  32
ATOM     32  C   UNL     1       5.224   4.351   0.729  0.00  0.00    -0.078 C 
BRANCH  32  35
ATOM     33  C   UNL     1       5.688   5.803   2.611  0.00  0.00    -0.097 C 
ATOM     34  C   UNL     1       5.754   6.684   0.356  0.00  0.00    -0.097 C 
ATOM     35  N   UNL     1       5.089   5.723   1.262  0.00  0.00    +0.376 N 
ATOM     36  H   UNL     1       4.092   5.960   1.325  0.00  0.00    -0.083 HD
ENDBRANCH  32  35
ENDBRANCH  31  32
ENDBRANCH  30  31
ENDBRANCH  14  30
TORSDOF 8
