REMARK  Name = ZINC35096455
REMARK  9 active torsions:
REMARK  status: ('A' for Active; 'I' for Inactive)
REMARK    1  A    between atoms: C_1  and  C_2
REMARK    2  A    between atoms: C_7  and  N_8
REMARK    3  A    between atoms: N_11  and  C_12
REMARK    4  A    between atoms: N_11  and  C_23
REMARK    5  A    between atoms: C_12  and  C_13
REMARK    6  A    between atoms: C_13  and  C_14
REMARK    7  A    between atoms: C_14  and  N_15
REMARK    8  A    between atoms: C_20  and  C_22
REMARK    9  A    between atoms: C_23  and  C_24
REMARK                            x       y       z     vdW  Elec       q    Type
REMARK                         _______ _______ _______ _____ _____    ______ ____
ROOT
ATOM      1  N   UNL     1       0.025  -0.015   2.417  0.00  0.00    -0.269 N 
ATOM      2  C   UNL     1      -0.056  -0.694   3.578  0.00  0.00    +0.307 C 
ATOM      3  O   UNL     1      -0.040  -1.910   3.573  0.00  0.00    -0.252 OA
ATOM      4  N   UNL     1      -0.156  -0.026   4.745  0.00  0.00    -0.281 N 
ATOM      5  H   UNL     1       0.095   0.953   2.425  0.00  0.00    +0.156 HD
ENDROOT
BRANCH   1  12
ATOM      6  C   UNL     1       1.222   1.226   0.153  0.00  0.00    +0.045 C 
ATOM      7  C   UNL     1       0.583  -0.136   0.070  0.00  0.00    -0.029 A 
ATOM      8  C   UNL     1       0.571  -0.822  -1.129  0.00  0.00    +0.005 A 
ATOM      9  C   UNL     1      -0.016  -2.071  -1.206  0.00  0.00    +0.000 A 
ATOM     10  C   UNL     1      -0.593  -2.638  -0.084  0.00  0.00    +0.002 A 
ATOM     11  C   UNL     1      -0.585  -1.957   1.117  0.00  0.00    +0.023 A 
ATOM     12  C   UNL     1       0.009  -0.705   1.200  0.00  0.00    +0.038 A 
ENDBRANCH   1  12
BRANCH   4  13
ATOM     13  C   UNL     1      -0.245  -0.765   6.006  0.00  0.00    +0.108 C 
BRANCH  13  14
ATOM     14  C   UNL     1       1.163  -1.004   6.558  0.00  0.00    +0.000 C 
BRANCH  14  15
ATOM     15  C   UNL     1       1.070  -1.775   7.876  0.00  0.00    -0.077 C 
BRANCH  15  16
ATOM     16  N   UNL     1       2.421  -2.004   8.405  0.00  0.00    +0.381 N 
ATOM     17  C   UNL     1       3.038  -0.715   8.742  0.00  0.00    -0.078 C 
ATOM     18  C   UNL     1       4.474  -0.942   9.218  0.00  0.00    -0.019 C 
ATOM     19  C   UNL     1       4.460  -1.843  10.456  0.00  0.00    -0.003 C 
ATOM     20  C   UNL     1       3.749  -3.155  10.113  0.00  0.00    -0.016 C 
ATOM     21  C   UNL     1       2.339  -2.846   9.604  0.00  0.00    -0.072 C 
ATOM     22  C   UNL     1       1.624  -4.154   9.261  0.00  0.00    -0.013 C 
ATOM     23  H   UNL     1       2.981  -2.470   7.706  0.00  0.00    -0.081 HD
ENDBRANCH  15  16
ENDBRANCH  14  15
ENDBRANCH  13  14
ENDBRANCH   4  13
BRANCH   4  24
ATOM     24  C   UNL     1      -0.176   1.438   4.750  0.00  0.00    +0.144 C 
BRANCH  24  25
ATOM     25  C   UNL     1      -1.599   1.922   4.642  0.00  0.00    -0.026 A 
ATOM     26  C   UNL     1      -2.159   2.144   3.398  0.00  0.00    +0.009 A 
ATOM     27  C   UNL     1      -3.464   2.587   3.293  0.00  0.00    +0.050 A 
ATOM     28  C   UNL     1      -4.214   2.811   4.437  0.00  0.00    +0.166 A 
ATOM     29  C   UNL     1      -3.650   2.587   5.690  0.00  0.00    +0.167 A 
ATOM     30  C   UNL     1      -2.343   2.138   5.787  0.00  0.00    +0.054 A 
ATOM     31  O   UNL     1      -4.581   2.877   6.646  0.00  0.00    -0.453 OA
ATOM     32  C   UNL     1      -5.582   3.668   5.979  0.00  0.00    +0.466 C 
ATOM     33  O   UNL     1      -5.499   3.240   4.607  0.00  0.00    -0.453 OA
ENDBRANCH  24  25
ENDBRANCH   4  24
TORSDOF 7
