REMARK  Name = ZINC49223121
REMARK  10 active torsions:
REMARK  status: ('A' for Active; 'I' for Inactive)
REMARK    1  A    between atoms: C_1  and  C_2
REMARK    2  A    between atoms: C_2  and  C_3
REMARK    3  A    between atoms: C_2  and  C_4
REMARK    4  A    between atoms: C_4  and  C_6
REMARK    5  A    between atoms: C_4  and  N_10
REMARK    6  A    between atoms: C_6  and  N_7
REMARK    7  A    between atoms: N_7  and  C_8
REMARK    8  A    between atoms: N_7  and  C_9
REMARK    9  A    between atoms: C_18  and  C_19
REMARK   10  A    between atoms: C_19  and  C_20
REMARK                            x       y       z     vdW  Elec       q    Type
REMARK                         _______ _______ _______ _____ _____    ______ ____
ROOT
ATOM      1  N   UNL     1      -1.659  -1.601   0.267  0.00  0.00    -0.326 N 
ATOM      2  C   UNL     1      -1.243  -2.553  -0.645  0.00  0.00    +0.069 A 
ATOM      3  C   UNL     1      -0.688  -2.493  -1.916  0.00  0.00    +0.031 A 
ATOM      4  C   UNL     1      -0.375  -3.658  -2.583  0.00  0.00    +0.040 A 
ATOM      5  C   UNL     1      -0.612  -4.893  -1.992  0.00  0.00    +0.126 A 
ATOM      6  C   UNL     1      -1.162  -4.971  -0.731  0.00  0.00    +0.068 A 
ATOM      7  C   UNL     1      -1.484  -3.798  -0.042  0.00  0.00    +0.092 A 
ATOM      8  N   UNL     1      -2.023  -3.549   1.179  0.00  0.00    -0.232 NA
ATOM      9  C   UNL     1      -2.120  -2.264   1.361  0.00  0.00    +0.112 A 
ATOM     10  F   UNL     1      -0.300  -6.027  -2.658  0.00  0.00    -0.205 F 
ENDROOT
BRANCH   1  11
ATOM     11  C   UNL     1      -1.607  -0.148   0.089  0.00  0.00    +0.075 C 
BRANCH  11  13
ATOM     12  C   UNL     1      -0.088   1.831  -0.059  0.00  0.00    +0.009 C 
ATOM     13  C   UNL     1      -0.148   0.303  -0.006  0.00  0.00    +0.004 C 
ATOM     14  C   UNL     1       0.621  -0.196   1.219  0.00  0.00    +0.009 C 
ENDBRANCH  11  13
BRANCH  11  15
ATOM     15  C   UNL     1      -2.345   0.236  -1.195  0.00  0.00    -0.054 C 
BRANCH  15  16
ATOM     16  N   UNL     1      -3.774  -0.071  -1.049  0.00  0.00    +0.377 N 
ATOM     17  C   UNL     1      -4.360   0.802  -0.024  0.00  0.00    -0.097 C 
ATOM     18  C   UNL     1      -4.455   0.152  -2.331  0.00  0.00    -0.097 C 
ATOM     19  H   UNL     1      -3.884  -1.035  -0.773  0.00  0.00    -0.083 HD
ENDBRANCH  15  16
ENDBRANCH  11  15
ENDBRANCH   1  11
BRANCH   9  20
ATOM     20  C   UNL     1      -2.666  -1.606   2.602  0.00  0.00    +0.090 C 
BRANCH  20  21
ATOM     21  C   UNL     1      -4.192  -1.545   2.517  0.00  0.00    +0.116 C 
ATOM     22 CL   UNL     1      -4.837  -0.624   3.926  0.00  0.00    -0.125 Cl
ENDBRANCH  20  21
ENDBRANCH   9  20
TORSDOF 6
