REMARK  Name = ZINC61862778
REMARK  3 active torsions:
REMARK  status: ('A' for Active; 'I' for Inactive)
REMARK    1  A    between atoms: C_3  and  C_8
REMARK    2  A    between atoms: C_8  and  C_10
REMARK    3  A    between atoms: C_8  and  N_23
REMARK                            x       y       z     vdW  Elec       q    Type
REMARK                         _______ _______ _______ _____ _____    ______ ____
ROOT
ATOM      1  C   UNL     1       4.535   1.581   1.131  0.00  0.00    -0.040 A 
ATOM      2  C   UNL     1       4.529   2.278   2.323  0.00  0.00    +0.031 A 
ATOM      3  C   UNL     1       5.305   1.838   3.384  0.00  0.00    +0.067 A 
ATOM      4  C   UNL     1       6.090   0.691   3.243  0.00  0.00    +0.068 A 
ATOM      5  C   UNL     1       6.091  -0.002   2.043  0.00  0.00    +0.043 A 
ATOM      6  C   UNL     1       5.309   0.441   0.992  0.00  0.00    +0.022 A 
ATOM      7 BR   UNL     1       5.303  -0.509  -0.643  0.00  0.00    -0.050 Br
ATOM      8  N   UNL     1       6.747   0.501   4.457  0.00  0.00    -0.306 N 
ATOM      9  H   UNL     1       7.364  -0.218   4.662  0.00  0.00    +0.170 HD
ATOM     10  C   UNL     1       6.378   1.486   5.297  0.00  0.00    +0.325 A 
ATOM     11  O   UNL     1       6.771   1.615   6.442  0.00  0.00    -0.247 OA
ATOM     12  N   UNL     1       5.509   2.308   4.679  0.00  0.00    -0.306 N 
ATOM     13  H   UNL     1       5.095   3.094   5.070  0.00  0.00    +0.170 HD
ENDROOT
BRANCH   1  14
ATOM     14  C   UNL     1       3.691   2.059  -0.023  0.00  0.00    +0.007 C 
BRANCH  14  17
ATOM     15  C   UNL     1      -0.017   1.383   0.010  0.00  0.00    +0.018 A 
ATOM     16  C   UNL     1       1.194   2.059   0.002  0.00  0.00    +0.023 A 
ATOM     17  C   UNL     1       2.370   1.334  -0.013  0.00  0.00    +0.031 A 
ATOM     18  N   UNL     1       2.351   0.016  -0.020  0.00  0.00    -0.260 NA
ATOM     19  C   UNL     1       1.219  -0.661  -0.013  0.00  0.00    +0.126 A 
ATOM     20  C   UNL     1       0.002  -0.004   0.002  0.00  0.00    +0.036 A 
ATOM     21 BR   UNL     1      -1.615  -0.984   0.013  0.00  0.00    -0.049 Br
ENDBRANCH  14  17
BRANCH  14  22
ATOM     22  N   UNL     1       3.458   3.504   0.108  0.00  0.00    +0.386 N 
ATOM     23  H   UNL     1       2.893   3.824  -0.664  0.00  0.00    -0.089 HD
ATOM     24  H   UNL     1       2.978   3.690   0.976  0.00  0.00    -0.089 HD
ATOM     25  H   UNL     1       4.342   3.990   0.102  0.00  0.00    -0.089 HD
ENDBRANCH  14  22
ENDBRANCH   1  14
TORSDOF 3
