REMARK  Name = ZINC65297973
REMARK  5 active torsions:
REMARK  status: ('A' for Active; 'I' for Inactive)
REMARK    1  A    between atoms: C_4  and  C_7
REMARK    2  A    between atoms: C_7  and  N_8
REMARK    3  A    between atoms: C_15  and  C_27
REMARK    4  A    between atoms: C_18  and  C_20
REMARK    5  A    between atoms: C_32  and  O_33
REMARK                            x       y       z     vdW  Elec       q    Type
REMARK                         _______ _______ _______ _____ _____    ______ ____
ROOT
ATOM      1  N   UNL     1       4.153  -0.953   1.342  0.00  0.00    +0.383 N 
ATOM      2  C   UNL     1       4.424   0.329   2.003  0.00  0.00    -0.075 C 
ATOM      3  C   UNL     1       4.809   0.083   3.463  0.00  0.00    +0.027 C 
ATOM      4  C   UNL     1       6.066  -0.791   3.513  0.00  0.00    +0.109 C 
ATOM      5  C   UNL     1       5.791  -2.098   2.760  0.00  0.00    +0.027 C 
ATOM      6  C   UNL     1       5.371  -1.772   1.325  0.00  0.00    -0.075 C 
ATOM      7  N   UNL     1       6.387  -1.099   4.913  0.00  0.00    -0.286 NA
ATOM      8  C   UNL     1       7.692  -1.776   4.998  0.00  0.00    +0.095 C 
ATOM      9  C   UNL     1       8.778  -0.772   4.598  0.00  0.00    +0.079 C 
ATOM     10  C   UNL     1       8.370  -0.070   3.333  0.00  0.00    +0.047 C 
ATOM     11  N   UNL     1       7.175  -0.087   2.878  0.00  0.00    -0.266 NA
ATOM     12  H   UNL     1       6.375  -0.264   5.478  0.00  0.00    +0.125 HD
ATOM     13  H   UNL     1       3.427  -1.442   1.844  0.00  0.00    -0.081 HD
ENDROOT
BRANCH  10  14
ATOM     14  C   UNL     1       9.398   0.676   2.581  0.00  0.00    -0.004 A 
ATOM     15  C   UNL     1      10.715   0.714   3.043  0.00  0.00    +0.011 A 
ATOM     16  C   UNL     1      11.671   1.412   2.335  0.00  0.00    +0.020 A 
ATOM     17  C   UNL     1      11.326   2.075   1.169  0.00  0.00    +0.041 A 
ATOM     18  C   UNL     1      10.021   2.041   0.706  0.00  0.00    +0.020 A 
ATOM     19  C   UNL     1       9.058   1.342   1.401  0.00  0.00    +0.011 A 
ATOM     20 CL   UNL     1      12.535   2.951   0.283  0.00  0.00    -0.084 Cl
ENDBRANCH  10  14
BRANCH   8  21
ATOM     21  C   UNL     1       7.929  -2.248   6.409  0.00  0.00    +0.013 A 
ATOM     22  C   UNL     1       7.218  -1.689   7.454  0.00  0.00    +0.028 A 
ATOM     23  C   UNL     1       7.435  -2.123   8.749  0.00  0.00    +0.042 A 
ATOM     24  C   UNL     1       8.365  -3.116   9.002  0.00  0.00    +0.023 A 
ATOM     25  C   UNL     1       9.078  -3.677   7.961  0.00  0.00    +0.047 A 
ATOM     26  C   UNL     1       8.857  -3.248   6.660  0.00  0.00    +0.122 A 
ATOM     27 CL   UNL     1       6.541  -1.419  10.060  0.00  0.00    -0.084 Cl
BRANCH  26  28
ATOM     28  O   UNL     1       9.553  -3.803   5.633  0.00  0.00    -0.506 OA
ATOM     29  H   UNL     1      10.386  -3.354   5.434  0.00  0.00    +0.292 HD
ENDBRANCH  26  28
ENDBRANCH   8  21
BRANCH   1  30
ATOM     30  C   UNL     1       3.711  -0.707  -0.038  0.00  0.00    -0.043 C 
BRANCH  30  34
ATOM     31  C   UNL     1      -0.017   1.378   0.010  0.00  0.00    +0.000 A 
ATOM     32  C   UNL     1       1.171   2.086   0.002  0.00  0.00    +0.000 A 
ATOM     33  C   UNL     1       2.377   1.411  -0.013  0.00  0.00    +0.002 A 
ATOM     34  C   UNL     1       2.396   0.029  -0.020  0.00  0.00    -0.064 A 
ATOM     35  C   UNL     1       1.208  -0.679  -0.012  0.00  0.00    +0.002 A 
ATOM     36  C   UNL     1       0.002  -0.004   0.002  0.00  0.00    +0.000 A 
ENDBRANCH  30  34
ENDBRANCH   1  30
TORSDOF 5
