REMARK  Name = ZINC34760716
REMARK  8 active torsions:
REMARK  status: ('A' for Active; 'I' for Inactive)
REMARK    1  A    between atoms: C_1  and  C_2
REMARK    2  A    between atoms: C_2  and  C_3
REMARK    3  A    between atoms: C_4  and  C_28
REMARK    4  A    between atoms: C_8  and  N_19
REMARK    5  A    between atoms: C_10  and  C_12
REMARK    6  A    between atoms: C_12  and  C_13
REMARK    7  A    between atoms: N_22  and  C_25
REMARK    8  A    between atoms: C_25  and  C_26
REMARK                            x       y       z     vdW  Elec       q    Type
REMARK                         _______ _______ _______ _____ _____    ______ ____
ROOT
ATOM      1  C   UNL     1       0.576  -0.598  -1.264  0.00  0.00    -0.025 A 
ATOM      2  C   UNL     1      -0.200  -0.769  -2.344  0.00  0.00    -0.007 A 
ATOM      3  S   UNL     1       0.944  -1.327  -3.594  0.00  0.00    -0.073 S 
ATOM      4  C   UNL     1       2.433  -1.315  -2.631  0.00  0.00    +0.114 A 
ATOM      5  C   UNL     1       2.000  -0.870  -1.362  0.00  0.00    +0.051 A 
ATOM      6  C   UNL     1       3.017  -0.761  -0.375  0.00  0.00    +0.133 A 
ATOM      7  N   UNL     1       4.263  -1.067  -0.696  0.00  0.00    -0.216 NA
ATOM      8  C   UNL     1       4.598  -1.473  -1.908  0.00  0.00    +0.137 A 
ATOM      9  N   UNL     1       3.698  -1.603  -2.863  0.00  0.00    -0.224 NA
ATOM     10  C   UNL     1      -1.684  -0.545  -2.472  0.00  0.00    +0.052 C 
ENDROOT
BRANCH   6  11
ATOM     11  N   UNL     1       2.707  -0.339   0.906  0.00  0.00    -0.318 N 
ATOM     12  C   UNL     1       2.392  -1.309   1.966  0.00  0.00    +0.088 C 
ATOM     13  C   UNL     1       3.249  -0.983   3.193  0.00  0.00    -0.059 C 
ATOM     14  N   UNL     1       3.044   0.420   3.574  0.00  0.00    +0.384 N 
ATOM     15  C   UNL     1       3.529   1.304   2.507  0.00  0.00    -0.059 C 
ATOM     16  C   UNL     1       2.691   1.092   1.248  0.00  0.00    +0.088 C 
ATOM     17  H   UNL     1       2.060   0.585   3.725  0.00  0.00    -0.081 HD
BRANCH  14  18
ATOM     18  C   UNL     1       3.780   0.701   4.814  0.00  0.00    -0.052 C 
BRANCH  18  19
ATOM     19  C   UNL     1       3.472   2.103   5.273  0.00  0.00    -0.053 C 
ATOM     20  C   UNL     1       3.015   2.311   6.483  0.00  0.00    +0.002 C 
ENDBRANCH  18  19
ENDBRANCH  14  18
ENDBRANCH   6  11
BRANCH   1  22
ATOM     21  C   UNL     1      -0.120   1.405   0.022  0.00  0.00    +0.009 C 
ATOM     22  C   UNL     1      -0.021  -0.122   0.035  0.00  0.00    +0.033 C 
ENDBRANCH   1  22
BRANCH   8  23
ATOM     23  C   UNL     1       6.038  -1.805  -2.202  0.00  0.00    +0.111 C 
BRANCH  23  24
ATOM     24  C   UNL     1       6.287  -3.263  -1.913  0.00  0.00    -0.040 A 
ATOM     25  C   UNL     1       6.689  -3.659  -0.651  0.00  0.00    +0.004 A 
ATOM     26  C   UNL     1       6.917  -4.996  -0.386  0.00  0.00    +0.000 A 
ATOM     27  C   UNL     1       6.743  -5.938  -1.383  0.00  0.00    +0.000 A 
ATOM     28  C   UNL     1       6.340  -5.542  -2.645  0.00  0.00    +0.000 A 
ATOM     29  C   UNL     1       6.107  -4.205  -2.909  0.00  0.00    +0.004 A 
ENDBRANCH  23  24
ENDBRANCH   8  23
TORSDOF 6
