REMARK  Name = ZINC53916069
REMARK  6 active torsions:
REMARK  status: ('A' for Active; 'I' for Inactive)
REMARK    1  A    between atoms: C_1  and  N_2
REMARK    2  A    between atoms: N_2  and  C_3
REMARK    3  A    between atoms: C_3  and  C_4
REMARK    4  A    between atoms: C_9  and  O_10
REMARK    5  A    between atoms: C_11  and  C_13
REMARK    6  A    between atoms: C_16  and  C_18
REMARK                            x       y       z     vdW  Elec       q    Type
REMARK                         _______ _______ _______ _____ _____    ______ ____
ROOT
ATOM      1  C   UNL     1      -0.122   0.066  -2.438  0.00  0.00    +0.147 A 
ATOM      2  C   UNL     1      -0.326  -0.469  -3.674  0.00  0.00    +0.051 A 
ATOM      3  N   UNL     1      -0.259   0.545  -4.568  0.00  0.00    -0.327 N 
ATOM      4  C   UNL     1      -0.032   1.694  -3.865  0.00  0.00    +0.142 A 
ATOM      5  N   UNL     1       0.048   1.397  -2.590  0.00  0.00    -0.223 NA
ATOM      6  C   UNL     1      -0.390   0.425  -6.023  0.00  0.00    +0.123 C 
ATOM      7  C   UNL     1      -1.267  -0.783  -6.359  0.00  0.00    +0.022 C 
ATOM      8  C   UNL     1      -0.397  -2.032  -6.492  0.00  0.00    +0.002 C 
ATOM      9  C   UNL     1       0.313  -2.330  -5.175  0.00  0.00    +0.006 C 
ATOM     10  C   UNL     1      -0.585  -1.915  -4.006  0.00  0.00    +0.056 C 
ENDROOT
BRANCH   4  11
ATOM     11  C   UNL     1       0.097   3.049  -4.445  0.00  0.00    +0.017 A 
ATOM     12  C   UNL     1       0.401   3.206  -5.798  0.00  0.00    +0.011 A 
ATOM     13  C   UNL     1       0.520   4.472  -6.333  0.00  0.00    +0.001 A 
ATOM     14  C   UNL     1       0.338   5.585  -5.532  0.00  0.00    +0.000 A 
ATOM     15  C   UNL     1       0.036   5.436  -4.189  0.00  0.00    +0.001 A 
ATOM     16  C   UNL     1      -0.090   4.175  -3.643  0.00  0.00    +0.011 A 
ENDBRANCH   4  11
BRANCH   1  19
ATOM     17  C   UNL     1       0.101   1.456   0.004  0.00  0.00    +0.132 C 
ATOM     18  N   UNL     1       0.049  -0.008  -0.001  0.00  0.00    -0.295 N 
ATOM     19  C   UNL     1      -0.098  -0.673  -1.164  0.00  0.00    +0.267 C 
ATOM     20  O   UNL     1      -0.211  -1.884  -1.161  0.00  0.00    -0.268 OA
BRANCH  18  21
ATOM     21  C   UNL     1       0.157  -0.749   1.258  0.00  0.00    +0.146 C 
BRANCH  21  22
ATOM     22  C   UNL     1      -1.218  -0.953   1.840  0.00  0.00    +0.011 A 
ATOM     23  C   UNL     1      -1.670  -0.129   2.853  0.00  0.00    +0.009 A 
ATOM     24  C   UNL     1      -2.931  -0.315   3.388  0.00  0.00    +0.001 A 
ATOM     25  C   UNL     1      -3.744  -1.327   2.910  0.00  0.00    +0.004 A 
ATOM     26  C   UNL     1      -3.298  -2.153   1.897  0.00  0.00    +0.046 A 
ATOM     27  C   UNL     1      -2.034  -1.964   1.356  0.00  0.00    +0.122 A 
BRANCH  27  28
ATOM     28  O   UNL     1      -1.595  -2.772   0.355  0.00  0.00    -0.506 OA
ATOM     29  H   UNL     1      -1.132  -3.563   0.663  0.00  0.00    +0.292 HD
ENDBRANCH  27  28
ENDBRANCH  21  22
ENDBRANCH  18  21
ENDBRANCH   1  19
TORSDOF 5
