REMARK  Name = ZINC66366170
REMARK  9 active torsions:
REMARK  status: ('A' for Active; 'I' for Inactive)
REMARK    1  A    between atoms: C_1  and  C_2
REMARK    2  A    between atoms: C_2  and  C_3
REMARK    3  A    between atoms: C_3  and  C_5
REMARK    4  A    between atoms: C_3  and  N_8
REMARK    5  A    between atoms: C_5  and  C_6
REMARK    6  A    between atoms: C_5  and  C_7
REMARK    7  A    between atoms: N_11  and  C_12
REMARK    8  A    between atoms: C_15  and  S_18
REMARK    9  A    between atoms: S_18  and  N_21
REMARK                            x       y       z     vdW  Elec       q    Type
REMARK                         _______ _______ _______ _____ _____    ______ ____
ROOT
ATOM      1  C   UNL     1      -5.412   0.324   2.629  0.00  0.00    +0.035 A 
ATOM      2  C   UNL     1      -6.225  -0.009   1.553  0.00  0.00    +0.025 A 
ATOM      3  C   UNL     1      -7.599   0.026   1.690  0.00  0.00    +0.031 A 
ATOM      4  C   UNL     1      -8.165   0.393   2.898  0.00  0.00    +0.113 A 
ATOM      5  C   UNL     1      -7.359   0.725   3.971  0.00  0.00    +0.031 A 
ATOM      6  C   UNL     1      -5.984   0.686   3.841  0.00  0.00    +0.025 A 
ENDROOT
BRANCH   1  10
ATOM      7  N   UNL     1      -1.911   1.063   3.127  0.00  0.00    -0.296 N 
ATOM      8  C   UNL     1      -3.254   1.165   3.173  0.00  0.00    +0.304 C 
ATOM      9  O   UNL     1      -3.775   2.047   3.829  0.00  0.00    -0.253 OA
ATOM     10  N   UNL     1      -4.020   0.289   2.493  0.00  0.00    -0.269 N 
ATOM     11  H   UNL     1      -1.495   0.360   2.605  0.00  0.00    +0.151 HD
ATOM     12  H   UNL     1      -3.606  -0.366   1.910  0.00  0.00    +0.156 HD
BRANCH   7  13
ATOM     13  C   UNL     1      -1.079   2.016   3.866  0.00  0.00    +0.077 C 
BRANCH  13  14
ATOM     14  C   UNL     1      -0.866   3.272   3.019  0.00  0.00    +0.003 C 
ATOM     15  C   UNL     1      -0.283   2.878   1.661  0.00  0.00    +0.009 C 
ATOM     16  C   UNL     1      -2.206   3.981   2.813  0.00  0.00    +0.009 C 
ENDBRANCH  13  14
BRANCH  13  18
ATOM     17  C   UNL     1       0.074   0.192   5.126  0.00  0.00    +0.006 C 
ATOM     18  C   UNL     1       0.276   1.375   4.178  0.00  0.00    +0.019 C 
ENDBRANCH  13  18
ENDBRANCH   7  13
ENDBRANCH   1  10
BRANCH   4  19
ATOM     19  S   UNL     1      -9.918   0.436   3.069  0.00  0.00    +0.100 S 
ATOM     20  O   UNL     1     -10.200   1.336   4.132  0.00  0.00    -0.146 OA
ATOM     21  O   UNL     1     -10.450   0.611   1.762  0.00  0.00    -0.146 OA
BRANCH  19  22
ATOM     22  N   UNL     1     -10.398  -1.064   3.579  0.00  0.00    -0.118 NA
ATOM     23  C   UNL     1     -11.652  -1.307   3.785  0.00  0.00    +0.117 C 
ATOM     24  C   UNL     1     -12.691  -0.213   3.553  0.00  0.00    +0.073 C 
ATOM     25  C   UNL     1     -13.499  -0.612   2.336  0.00  0.00    +0.008 C 
ATOM     26  C   UNL     1     -14.706  -1.492   2.668  0.00  0.00    +0.002 C 
ATOM     27  C   UNL     1     -14.390  -2.580   3.695  0.00  0.00    +0.019 C 
ATOM     28  C   UNL     1     -13.062  -3.264   3.450  0.00  0.00    +0.102 C 
ATOM     29  N   UNL     1     -12.035  -2.501   4.191  0.00  0.00    -0.331 N 
ATOM     30  H   UNL     1     -11.640  -2.886   4.988  0.00  0.00    +0.147 HD
ENDBRANCH  19  22
ENDBRANCH   4  19
TORSDOF 6
