REMARK  Name = ZINC08622840
REMARK  8 active torsions:
REMARK  status: ('A' for Active; 'I' for Inactive)
REMARK    1  A    between atoms: C_1  and  C_2
REMARK    2  A    between atoms: C_4  and  C_26
REMARK    3  A    between atoms: C_6  and  C_8
REMARK    4  A    between atoms: C_16  and  C_18
REMARK    5  A    between atoms: C_18  and  N_19
REMARK    6  A    between atoms: N_22  and  C_23
REMARK    7  A    between atoms: C_23  and  C_24
REMARK    8  A    between atoms: C_23  and  C_25
REMARK                            x       y       z     vdW  Elec       q    Type
REMARK                         _______ _______ _______ _____ _____    ______ ____
ROOT
ATOM      1  C   UNL     1      -0.495   1.591   1.116  0.00  0.00    +0.024 C 
ATOM      2  C   UNL     1       0.228   1.091  -0.138  0.00  0.00    -0.068 C 
ATOM      3  C   UNL     1      -0.598   2.967  -1.429  0.00  0.00    -0.078 C 
ATOM      4  C   UNL     1      -1.344   3.520  -0.212  0.00  0.00    -0.015 C 
ATOM      5  C   UNL     1      -1.758   2.350   0.690  0.00  0.00    -0.007 C 
ATOM      6  C   UNL     1      -2.650   1.401  -0.120  0.00  0.00    -0.010 C 
ATOM      7  C   UNL     1      -1.867   0.907  -1.340  0.00  0.00    -0.051 C 
ATOM      8  N   UNL     1      -0.510   1.493  -1.355  0.00  0.00    +0.383 N 
ATOM      9  H   UNL     1      -0.006   1.147  -2.180  0.00  0.00    -0.081 HD
ENDROOT
BRANCH   1  15
ATOM     10  C   UNL     1       0.269  -3.031   2.520  0.00  0.00    +0.088 C 
ATOM     11  C   UNL     1      -0.529  -1.759   2.648  0.00  0.00    +0.127 A 
ATOM     12  N   UNL     1      -1.528  -1.714   3.504  0.00  0.00    -0.232 NA
ATOM     13  C   UNL     1      -2.256  -0.605   3.643  0.00  0.00    +0.081 A 
ATOM     14  C   UNL     1      -1.933   0.516   2.866  0.00  0.00    +0.052 A 
ATOM     15  C   UNL     1      -0.879   0.416   1.979  0.00  0.00    +0.047 A 
ATOM     16  N   UNL     1      -0.206  -0.723   1.900  0.00  0.00    -0.237 NA
BRANCH  13  17
ATOM     17  C   UNL     1      -3.376  -0.556   4.602  0.00  0.00    +0.038 A 
ATOM     18  C   UNL     1      -3.777  -1.502   5.509  0.00  0.00    +0.017 A 
ATOM     19  C   UNL     1      -4.864  -1.233   6.309  0.00  0.00    +0.008 A 
ATOM     20  C   UNL     1      -5.504  -0.041   6.176  0.00  0.00    +0.046 A 
ATOM     21  S   UNL     1      -4.556   0.752   4.888  0.00  0.00    -0.095 S 
ENDBRANCH  13  17
ENDBRANCH   1  15
BRANCH   7  22
ATOM     22  C   UNL     1      -1.749  -0.618  -1.289  0.00  0.00    +0.090 C 
BRANCH  22  23
ATOM     23  N   UNL     1      -0.893  -1.079  -2.385  0.00  0.00    -0.301 N 
ATOM     24  C   UNL     1      -0.563  -2.382  -2.479  0.00  0.00    +0.300 C 
ATOM     25  O   UNL     1      -1.048  -3.189  -1.710  0.00  0.00    -0.253 OA
ATOM     26  N   UNL     1       0.305  -2.791  -3.426  0.00  0.00    -0.297 N 
ATOM     27  H   UNL     1      -0.565  -0.446  -3.042  0.00  0.00    +0.150 HD
ATOM     28  H   UNL     1       0.691  -2.147  -4.040  0.00  0.00    +0.150 HD
BRANCH  26  29
ATOM     29  C   UNL     1       0.664  -4.207  -3.528  0.00  0.00    +0.068 C 
ATOM     30  C   UNL     1       1.112  -4.517  -4.958  0.00  0.00    +0.027 C 
ATOM     31  C   UNL     1       1.806  -4.515  -2.558  0.00  0.00    +0.027 C 
ENDBRANCH  26  29
ENDBRANCH  22  23
ENDBRANCH   7  22
TORSDOF 5
