REMARK  Name = ZINC15569553
REMARK  5 active torsions:
REMARK  status: ('A' for Active; 'I' for Inactive)
REMARK    1  A    between atoms: C_1  and  C_2
REMARK    2  A    between atoms: C_5  and  S_17
REMARK    3  A    between atoms: C_7  and  N_8
REMARK    4  A    between atoms: C_11  and  C_16
REMARK    5  A    between atoms: S_17  and  N_20
REMARK                            x       y       z     vdW  Elec       q    Type
REMARK                         _______ _______ _______ _____ _____    ______ ____
ROOT
ATOM      1  C   UNL     1       2.364   1.975   2.497  0.00  0.00    +0.045 C 
ATOM      2  C   UNL     1       3.049   1.704   1.182  0.00  0.00    -0.029 A 
ATOM      3  C   UNL     1       4.334   1.198   1.163  0.00  0.00    +0.007 A 
ATOM      4  C   UNL     1       4.965   0.955  -0.042  0.00  0.00    +0.029 A 
ATOM      5  C   UNL     1       4.310   1.212  -1.233  0.00  0.00    +0.107 A 
ATOM      6  C   UNL     1       3.023   1.712  -1.220  0.00  0.00    +0.052 A 
ATOM      7  C   UNL     1       2.387   1.958  -0.011  0.00  0.00    +0.048 A 
ENDROOT
BRANCH   7   8
ATOM      8  N   UNL     1       1.081   2.466   0.005  0.00  0.00    -0.220 N 
ATOM      9  C   UNL     1       0.780   3.780   0.015  0.00  0.00    +0.245 C 
ATOM     10  O   UNL     1       1.558   4.710   0.012  0.00  0.00    -0.273 OA
ATOM     11  C   UNL     1      -0.734   3.854   0.030  0.00  0.00    +0.156 C 
ATOM     12  N   UNL     1      -1.149   2.440   0.020  0.00  0.00    -0.315 N 
ATOM     13  C   UNL     1      -0.021   1.708   0.011  0.00  0.00    +0.144 C 
ATOM     14  S   UNL     1       0.002  -0.004   0.002  0.00  0.00    -0.018 S 
ATOM     15  C   UNL     1      -1.250   4.573  -1.218  0.00  0.00    +0.038 C 
ATOM     16  H   UNL     1      -2.059   2.103   0.022  0.00  0.00    +0.148 HD
ENDBRANCH   7   8
BRANCH   5  17
ATOM     17  S   UNL     1       5.118   0.899  -2.767  0.00  0.00    +0.061 S 
ATOM     18  O   UNL     1       6.115  -0.080  -2.510  0.00  0.00    -0.153 OA
ATOM     19  O   UNL     1       4.094   0.708  -3.734  0.00  0.00    -0.153 OA
BRANCH  17  20
ATOM     20  N   UNL     1       5.916   2.287  -3.192  0.00  0.00    -0.177 NA
ATOM     21  C   UNL     1       5.253   3.311  -4.010  0.00  0.00    +0.109 C 
ATOM     22  C   UNL     1       5.354   4.660  -3.281  0.00  0.00    +0.017 C 
ATOM     23  C   UNL     1       6.823   4.957  -2.972  0.00  0.00    +0.003 C 
ATOM     24  C   UNL     1       7.383   3.870  -2.052  0.00  0.00    +0.017 C 
ATOM     25  C   UNL     1       7.303   2.515  -2.762  0.00  0.00    +0.109 C 
ENDBRANCH  17  20
ENDBRANCH   5  17
TORSDOF 3
