REMARK  Name = ZINC01213592
REMARK  5 active torsions:
REMARK  status: ('A' for Active; 'I' for Inactive)
REMARK    1  A    between atoms: C_1  and  C_2
REMARK    2  A    between atoms: C_2  and  O_3
REMARK    3  A    between atoms: O_3  and  C_4
REMARK    4  A    between atoms: C_9  and  C_10
REMARK    5  A    between atoms: C_15  and  C_20
REMARK                            x       y       z     vdW  Elec       q    Type
REMARK                         _______ _______ _______ _____ _____    ______ ____
ROOT
ATOM      1  C   UNL     1      -0.059   5.351   0.030  0.00  0.00    +0.139 C 
ATOM      2  C   UNL     1      -0.260   5.836  -1.386  0.00  0.00    +0.037 C 
ATOM      3  C   UNL     1       0.656   6.445  -2.151  0.00  0.00    +0.017 C 
ATOM      4  C   UNL     1       0.325   6.845  -3.579  0.00  0.00    +0.059 C 
ATOM      5  C   UNL     1      -1.139   7.235  -3.683  0.00  0.00    +0.032 C 
ATOM      6  C   UNL     1      -1.974   6.017  -3.270  0.00  0.00    +0.088 C 
ATOM      7  C   UNL     1      -1.559   5.598  -1.892  0.00  0.00    +0.163 C 
ATOM      8  O   UNL     1      -2.369   5.032  -1.183  0.00  0.00    -0.292 OA
ATOM      9  N   UNL     1       1.921   6.742  -1.759  0.00  0.00    -0.316 N 
ATOM     10  C   UNL     1       2.776   5.859  -1.107  0.00  0.00    +0.052 A 
ATOM     11  C   UNL     1       3.979   5.455  -1.659  0.00  0.00    +0.025 A 
ATOM     12  C   UNL     1       4.834   4.660  -0.914  0.00  0.00    +0.002 A 
ATOM     13  C   UNL     1       4.488   4.274   0.368  0.00  0.00    +0.002 A 
ATOM     14  C   UNL     1       3.276   4.661   0.913  0.00  0.00    +0.025 A 
ATOM     15  C   UNL     1       2.410   5.443   0.164  0.00  0.00    +0.049 A 
ATOM     16  N   UNL     1       1.161   5.820   0.653  0.00  0.00    -0.331 N 
ATOM     17  H   UNL     1       2.253   7.634  -1.947  0.00  0.00    +0.152 HD
ATOM     18  H   UNL     1       1.108   6.407   1.423  0.00  0.00    +0.147 HD
ENDROOT
BRANCH   5  19
ATOM     19  C   UNL     1      -1.465   7.620  -5.103  0.00  0.00    -0.040 A 
ATOM     20  C   UNL     1      -1.259   6.716  -6.128  0.00  0.00    +0.008 A 
ATOM     21  C   UNL     1      -1.556   7.064  -7.432  0.00  0.00    +0.050 A 
ATOM     22  C   UNL     1      -2.063   8.322  -7.715  0.00  0.00    +0.166 A 
ATOM     23  C   UNL     1      -2.272   9.233  -6.683  0.00  0.00    +0.166 A 
ATOM     24  C   UNL     1      -1.976   8.875  -5.377  0.00  0.00    +0.053 A 
ATOM     25  O   UNL     1      -2.772  10.387  -7.213  0.00  0.00    -0.453 OA
ATOM     26  C   UNL     1      -3.251  10.031  -8.524  0.00  0.00    +0.466 C 
ATOM     27  O   UNL     1      -2.433   8.905  -8.893  0.00  0.00    -0.453 OA
ENDBRANCH   5  19
BRANCH   1  33
ATOM     28  C   UNL     1      -0.317   3.140   1.186  0.00  0.00    +0.126 A 
ATOM     29  C   UNL     1      -0.306   1.753   1.174  0.00  0.00    +0.046 A 
ATOM     30  C   UNL     1      -0.012   1.076   0.006  0.00  0.00    +0.004 A 
ATOM     31  C   UNL     1       0.260   1.780  -1.153  0.00  0.00    +0.001 A 
ATOM     32  C   UNL     1       0.245   3.162  -1.144  0.00  0.00    +0.009 A 
ATOM     33  C   UNL     1      -0.043   3.844   0.022  0.00  0.00    +0.019 A 
BRANCH  28  34
ATOM     34  O   UNL     1      -0.602   3.809   2.334  0.00  0.00    -0.492 OA
BRANCH  34  36
ATOM     35  C   UNL     1      -1.171   3.940   4.679  0.00  0.00    +0.048 C 
ATOM     36  C   UNL     1      -0.875   3.019   3.494  0.00  0.00    +0.225 C 
ENDBRANCH  34  36
ENDBRANCH  28  34
ENDBRANCH   1  33
TORSDOF 4
