REMARK  Name = ZINC13729431
REMARK  7 active torsions:
REMARK  status: ('A' for Active; 'I' for Inactive)
REMARK    1  A    between atoms: C_4  and  N_7
REMARK    2  A    between atoms: C_8  and  O_12
REMARK    3  A    between atoms: O_12  and  C_13
REMARK    4  A    between atoms: C_17  and  C_19
REMARK    5  A    between atoms: C_19  and  N_20
REMARK    6  A    between atoms: N_20  and  C_21
REMARK    7  A    between atoms: C_30  and  O_33
REMARK                            x       y       z     vdW  Elec       q    Type
REMARK                         _______ _______ _______ _____ _____    ______ ____
ROOT
ATOM      1  C   UNL     1       0.039  -2.088   1.187  0.00  0.00    +0.132 A 
ATOM      2  C   UNL     1      -0.206  -2.754  -0.005  0.00  0.00    +0.046 A 
ATOM      3  C   UNL     1      -0.228  -2.053  -1.195  0.00  0.00    +0.004 A 
ATOM      4  C   UNL     1      -0.012  -0.687  -1.198  0.00  0.00    +0.002 A 
ATOM      5  C   UNL     1       0.238  -0.022  -0.013  0.00  0.00    -0.061 A 
ATOM      6  C   UNL     1       0.261  -0.718   1.180  0.00  0.00    +0.048 A 
ENDROOT
BRANCH   1   7
ATOM      7  O   UNL     1       0.062  -2.775   2.359  0.00  0.00    -0.423 OA
BRANCH   7   9
ATOM      8  N   UNL     1      -0.115  -4.969   3.362  0.00  0.00    -0.162 N 
ATOM      9  C   UNL     1      -0.025  -4.126   2.305  0.00  0.00    +0.347 A 
ATOM     10  N   UNL     1      -0.043  -4.864   1.219  0.00  0.00    -0.070 NA
ATOM     11  N   UNL     1      -0.130  -6.109   1.522  0.00  0.00    -0.019 NA
ATOM     12  N   UNL     1      -0.181  -6.257   2.802  0.00  0.00    -0.036 NA
BRANCH   8  16
ATOM     13  C   UNL     1      -0.181  -3.961   7.407  0.00  0.00    +0.000 A 
ATOM     14  C   UNL     1      -0.926  -5.033   6.950  0.00  0.00    +0.002 A 
ATOM     15  C   UNL     1      -0.906  -5.369   5.611  0.00  0.00    +0.028 A 
ATOM     16  C   UNL     1      -0.138  -4.630   4.723  0.00  0.00    +0.072 A 
ATOM     17  C   UNL     1       0.614  -3.558   5.185  0.00  0.00    +0.028 A 
ATOM     18  C   UNL     1       0.586  -3.223   6.524  0.00  0.00    +0.002 A 
ENDBRANCH   8  16
ENDBRANCH   7   9
ENDBRANCH   1   7
BRANCH   5  19
ATOM     19  C   UNL     1       0.478   1.466  -0.021  0.00  0.00    -0.046 C 
BRANCH  19  20
ATOM     20  N   UNL     1       1.915   1.729  -0.178  0.00  0.00    +0.386 N 
ATOM     21  H   UNL     1       2.465   1.273   0.658  0.00  0.00    -0.085 HD
ATOM     22  H   UNL     1       2.265   1.296  -1.127  0.00  0.00    -0.085 HD
BRANCH  20  23
ATOM     23  C   UNL     1       2.187   3.173  -0.190  0.00  0.00    -0.065 C 
ATOM     24  C   UNL     1       1.439   3.823  -1.355  0.00  0.00    -0.009 C 
ATOM     25  C   UNL     1       1.723   5.327  -1.368  0.00  0.00    -0.009 C 
ATOM     26  C   UNL     1       1.252   5.946  -0.050  0.00  0.00    +0.007 C 
ATOM     27  C   UNL     1       2.001   5.295   1.115  0.00  0.00    -0.009 C 
ATOM     28  C   UNL     1       1.717   3.791   1.127  0.00  0.00    -0.009 C 
ATOM     29  C   UNL     1       3.504   5.529   0.949  0.00  0.00    +0.038 C 
ATOM     30  C   UNL     1       3.974   4.910  -0.369  0.00  0.00    +0.065 C 
ATOM     31  C   UNL     1       3.226   5.560  -1.533  0.00  0.00    +0.038 C 
ATOM     32  C   UNL     1       3.690   3.406  -0.356  0.00  0.00    +0.022 C 
BRANCH  30  33
ATOM     33  O   UNL     1       5.378   5.128  -0.523  0.00  0.00    -0.389 OA
ATOM     34  H   UNL     1       5.898   4.752  -1.417  0.00  0.00    +0.210 HD
ENDBRANCH  30  33
ENDBRANCH  20  23
ENDBRANCH  19  20
ENDBRANCH   5  19
TORSDOF 7
