REMARK  Name = ZINC37675710
REMARK  6 active torsions:
REMARK  status: ('A' for Active; 'I' for Inactive)
REMARK    1  A    between atoms: C_1  and  C_2
REMARK    2  A    between atoms: C_3  and  C_19
REMARK    3  A    between atoms: C_4  and  N_7
REMARK    4  A    between atoms: C_8  and  C_10
REMARK    5  A    between atoms: C_10  and  S_11
REMARK    6  A    between atoms: S_11  and  C_12
REMARK                            x       y       z     vdW  Elec       q    Type
REMARK                         _______ _______ _______ _____ _____    ______ ____
ROOT
ATOM      1  N   UNL     1       0.034  -3.096  -2.004  0.00  0.00    -0.277 N 
ATOM      2  C   UNL     1       0.054  -4.395  -1.647  0.00  0.00    +0.228 C 
ATOM      3  O   UNL     1       0.065  -4.702  -0.474  0.00  0.00    -0.275 OA
ATOM      4  H   UNL     1       0.026  -2.850  -2.942  0.00  0.00    +0.155 HD
ENDROOT
BRANCH   1   8
ATOM      5  C   UNL     1      -0.018   1.503   0.010  0.00  0.00    +0.067 C 
ATOM      6  C   UNL     1       0.002  -0.004   0.002  0.00  0.00    +0.063 A 
ATOM      7  C   UNL     1       0.006  -0.723  -1.196  0.00  0.00    +0.114 A 
ATOM      8  C   UNL     1       0.026  -2.112  -1.031  0.00  0.00    +0.106 A 
ATOM      9  S   UNL     1       0.037  -2.289   0.637  0.00  0.00    +0.028 S 
ATOM     10  N   UNL     1       0.022  -0.686   1.111  0.00  0.00    -0.213 NA
BRANCH   7  11
ATOM     11  C   UNL     1      -0.010  -0.078  -2.510  0.00  0.00    +0.391 C 
ATOM     12  O   UNL     1      -0.028   1.143  -2.592  0.00  0.00    -0.240 OA
ATOM     13  O   UNL     1      -0.006  -0.760  -3.526  0.00  0.00    -0.240 OA
ENDBRANCH   7  11
ENDBRANCH   1   8
BRANCH   2  14
ATOM     14  C   UNL     1       0.064  -5.467  -2.707  0.00  0.00    +0.170 C 
BRANCH  14  15
ATOM     15  S   UNL     1       0.090  -7.099  -1.915  0.00  0.00    -0.116 S 
BRANCH  15  16
ATOM     16  C   UNL     1       0.099  -8.229  -3.268  0.00  0.00    +0.009 A 
ATOM     17  C   UNL     1       0.091  -7.752  -4.572  0.00  0.00    +0.017 A 
ATOM     18  C   UNL     1       0.098  -8.639  -5.631  0.00  0.00    +0.039 A 
ATOM     19  C   UNL     1       0.113 -10.003  -5.392  0.00  0.00    +0.123 A 
ATOM     20  C   UNL     1       0.121 -10.481  -4.092  0.00  0.00    +0.039 A 
ATOM     21  C   UNL     1       0.119  -9.598  -3.031  0.00  0.00    +0.017 A 
ATOM     22  F   UNL     1       0.119 -10.869  -6.429  0.00  0.00    -0.205 F 
ENDBRANCH  15  16
ENDBRANCH  14  15
ENDBRANCH   2  14
TORSDOF 5
