REMARK  Name = ZINC21467244
REMARK  6 active torsions:
REMARK  status: ('A' for Active; 'I' for Inactive)
REMARK    1  A    between atoms: C_6  and  N_7
REMARK    2  A    between atoms: C_8  and  C_10
REMARK    3  A    between atoms: C_10  and  O_11
REMARK    4  A    between atoms: O_11  and  C_12
REMARK    5  A    between atoms: C_12  and  C_14
REMARK    6  A    between atoms: C_14  and  C_15
REMARK                            x       y       z     vdW  Elec       q    Type
REMARK                         _______ _______ _______ _____ _____    ______ ____
ROOT
ATOM      1  N   UNL     1       5.659   5.999   0.419  0.00  0.00    -0.283 N 
ATOM      2  C   UNL     1       6.741   6.330  -0.312  0.00  0.00    +0.255 C 
ATOM      3  O   UNL     1       6.867   5.898  -1.439  0.00  0.00    -0.272 OA
ATOM      4  H   UNL     1       5.500   6.458   1.406  0.00  0.00    +0.155 HD
ENDROOT
BRANCH   1  10
ATOM      5  C   UNL     1       5.169   4.019  -0.874  0.00  0.00    +0.027 A 
ATOM      6  C   UNL     1       4.260   3.099  -1.365  0.00  0.00    +0.051 A 
ATOM      7  C   UNL     1       2.917   3.224  -1.061  0.00  0.00    +0.167 A 
ATOM      8  C   UNL     1       2.478   4.279  -0.259  0.00  0.00    +0.169 A 
ATOM      9  C   UNL     1       3.387   5.198   0.230  0.00  0.00    +0.073 A 
ATOM     10  C   UNL     1       4.736   5.069  -0.076  0.00  0.00    +0.037 A 
ATOM     11  O   UNL     1       1.119   4.171  -0.111  0.00  0.00    -0.447 OA
ATOM     12  C   UNL     1       0.852   2.797  -0.415  0.00  0.00    +0.254 C 
ATOM     13  O   UNL     1       1.827   2.466  -1.410  0.00  0.00    -0.448 OA
ATOM     14  C   UNL     1      -0.577   2.588  -0.919  0.00  0.00    +0.093 C 
ATOM     15  C   UNL     1      -1.038   1.228  -0.357  0.00  0.00    +0.008 C 
ATOM     16  C   UNL     1       0.150   0.659   0.448  0.00  0.00    +0.008 C 
ATOM     17  C   UNL     1       0.989   1.907   0.829  0.00  0.00    +0.093 C 
ENDBRANCH   1  10
BRANCH   2  18
ATOM     18  C   UNL     1       7.794   7.238   0.268  0.00  0.00    +0.328 C 
BRANCH  18  19
ATOM     19  O   UNL     1       8.849   7.442  -0.708  0.00  0.00    -0.455 OA
BRANCH  19  20
ATOM     20  C   UNL     1       9.871   8.233  -0.345  0.00  0.00    +0.308 C 
ATOM     21  O   UNL     1       9.884   8.738   0.753  0.00  0.00    -0.251 OA
BRANCH  20  22
ATOM     22  C   UNL     1      11.003   8.491  -1.306  0.00  0.00    +0.124 C 
BRANCH  22  23
ATOM     23  C   UNL     1      12.029   9.417  -0.649  0.00  0.00    +0.003 C 
ATOM     24  C   UNL     1      11.419  10.818  -0.416  0.00  0.00    +0.008 C 
ATOM     25  C   UNL     1      12.311  11.780  -1.259  0.00  0.00    -0.010 C 
ATOM     26  C   UNL     1      13.674  11.813  -0.502  0.00  0.00    +0.004 C 
ATOM     27  C   UNL     1      14.283  10.412  -0.734  0.00  0.00    +0.004 C 
ATOM     28  C   UNL     1      13.231   9.664  -1.610  0.00  0.00    -0.007 C 
ATOM     29  C   UNL     1      12.674  10.852  -2.471  0.00  0.00    +0.007 C 
ENDBRANCH  22  23
ENDBRANCH  20  22
ENDBRANCH  19  20
ENDBRANCH  18  19
ENDBRANCH   2  18
TORSDOF 6
