REMARK  Name = ZINC19192936
REMARK  11 active torsions:
REMARK  status: ('A' for Active; 'I' for Inactive)
REMARK    1  A    between atoms: C_1  and  C_2
REMARK    2  A    between atoms: C_5  and  N_34
REMARK    3  A    between atoms: C_6  and  O_8
REMARK    4  A    between atoms: O_8  and  C_9
REMARK    5  A    between atoms: C_9  and  C_10
REMARK    6  A    between atoms: N_12  and  C_13
REMARK    7  A    between atoms: C_13  and  C_14
REMARK    8  A    between atoms: C_14  and  C_16
REMARK    9  A    between atoms: C_14  and  C_24
REMARK   10  A    between atoms: C_19  and  O_22
REMARK   11  A    between atoms: O_22  and  C_23
REMARK                            x       y       z     vdW  Elec       q    Type
REMARK                         _______ _______ _______ _____ _____    ______ ____
ROOT
ATOM      1  C   UNL     1      -2.513   0.977   0.019  0.00  0.00    +0.068 C 
ENDROOT
BRANCH   1   2
ATOM      2  C   UNL     1      -3.314   1.336  -1.206  0.00  0.00    -0.013 A 
ATOM      3  C   UNL     1      -3.767   2.557  -1.534  0.00  0.00    +0.088 A 
ATOM      4  N   UNL     1      -4.451   2.498  -2.718  0.00  0.00    -0.360 N 
ATOM      5  H   UNL     1      -4.889   3.411  -3.147  0.00  0.00    +0.165 HD
ATOM      6  C   UNL     1      -4.464   1.203  -3.187  0.00  0.00    +0.047 A 
ATOM      7  C   UNL     1      -3.752   0.419  -2.261  0.00  0.00    +0.003 A 
ATOM      8  C   UNL     1      -3.601  -0.951  -2.479  0.00  0.00    +0.010 A 
ATOM      9  C   UNL     1      -4.146  -1.525  -3.594  0.00  0.00    +0.001 A 
ATOM     10  C   UNL     1      -4.849  -0.756  -4.510  0.00  0.00    +0.002 A 
ATOM     11  C   UNL     1      -5.010   0.599  -4.314  0.00  0.00    +0.026 A 
ENDBRANCH   1   2
BRANCH   1  12
ATOM     12  C   UNL     1      -1.220   1.750   0.017  0.00  0.00    -0.038 A 
ATOM     13  C   UNL     1      -0.013   1.076   0.008  0.00  0.00    +0.008 A 
ATOM     14  C   UNL     1       1.175   1.782   0.000  0.00  0.00    +0.046 A 
ATOM     15  C   UNL     1       1.155   3.169   0.008  0.00  0.00    +0.120 A 
ATOM     16  C   UNL     1      -0.057   3.844   0.023  0.00  0.00    +0.046 A 
ATOM     17  C   UNL     1      -1.242   3.133   0.031  0.00  0.00    +0.008 A 
BRANCH  15  18
ATOM     18  O   UNL     1       2.322   3.866   0.000  0.00  0.00    -0.495 OA
ATOM     19  C   UNL     1       2.225   5.292   0.009  0.00  0.00    +0.277 C 
ENDBRANCH  15  18
ENDBRANCH   1  12
BRANCH   1  20
ATOM     20  C   UNL     1      -3.315   1.327   1.274  0.00  0.00    +0.117 C 
BRANCH  20  23
ATOM     21  C   UNL     1      -5.378   0.623   2.363  0.00  0.00    +0.251 C 
ATOM     22  O   UNL     1      -5.161   1.438   3.235  0.00  0.00    -0.272 OA
ATOM     23  N   UNL     1      -4.515   0.489   1.336  0.00  0.00    -0.312 N 
ATOM     24  H   UNL     1      -4.712  -0.249   0.545  0.00  0.00    +0.149 HD
BRANCH  21  25
ATOM     25  C   UNL     1      -6.613  -0.239   2.427  0.00  0.00    +0.324 C 
BRANCH  25  26
ATOM     26  O   UNL     1      -7.362   0.088   3.599  0.00  0.00    -0.480 OA
BRANCH  26  32
ATOM     27  C   UNL     1     -10.518  -3.336   2.139  0.00  0.00    +0.044 C 
ATOM     28  C   UNL     1     -10.083  -2.278   3.120  0.00  0.00    -0.047 A 
ATOM     29  C   UNL     1     -10.855  -2.011   4.236  0.00  0.00    +0.006 A 
ATOM     30  C   UNL     1     -10.458  -1.042   5.138  0.00  0.00    +0.037 A 
ATOM     31  C   UNL     1      -9.286  -0.341   4.929  0.00  0.00    +0.168 A 
ATOM     32  C   UNL     1      -8.513  -0.603   3.808  0.00  0.00    +0.152 A 
ATOM     33  C   UNL     1      -8.913  -1.577   2.904  0.00  0.00    +0.051 A 
BRANCH  31  34
ATOM     34  N   UNL     1      -8.860   0.693   5.899  0.00  0.00    +0.060 N 
ATOM     35  O   UNL     1      -9.539   0.923   6.883  0.00  0.00    -0.126 OA
ATOM     36  O   UNL     1      -7.828   1.314   5.712  0.00  0.00    -0.126 OA
ENDBRANCH  31  34
ENDBRANCH  26  32
ENDBRANCH  25  26
ENDBRANCH  21  25
ENDBRANCH  20  23
ENDBRANCH   1  20
TORSDOF 9
