REMARK  Name = ZINC10325887
REMARK  5 active torsions:
REMARK  status: ('A' for Active; 'I' for Inactive)
REMARK    1  A    between atoms: C_1  and  C_2
REMARK    2  A    between atoms: C_2  and  C_34
REMARK    3  A    between atoms: C_6  and  C_22
REMARK    4  A    between atoms: N_12  and  C_15
REMARK    5  A    between atoms: C_26  and  N_28
REMARK                            x       y       z     vdW  Elec       q    Type
REMARK                         _______ _______ _______ _____ _____    ______ ____
ROOT
ATOM      1  C   UNL     1      -0.019   1.526   0.010  0.00  0.00    +0.011 C 
ATOM      2  C   UNL     1       0.002  -0.004   0.002  0.00  0.00    -0.023 C 
ATOM      3  C   UNL     1      -1.430  -0.539   0.042  0.00  0.00    +0.058 C 
ATOM      4  C   UNL     1      -1.407  -2.051   0.067  0.00  0.00    +0.017 C 
ATOM      5  C   UNL     1      -0.398  -2.714   0.666  0.00  0.00    +0.024 C 
ATOM      6  C   UNL     1      -0.347  -4.226   0.727  0.00  0.00    +0.092 C 
ATOM      7  C   UNL     1      -1.343  -4.801  -0.241  0.00  0.00    +0.070 A 
ATOM      8  C   UNL     1      -2.328  -4.041  -0.821  0.00  0.00    +0.125 A 
ATOM      9  N   UNL     1      -3.060  -4.846  -1.637  0.00  0.00    -0.277 N 
ATOM     10  H   UNL     1      -3.823  -4.576  -2.172  0.00  0.00    +0.189 HD
ATOM     11  N   UNL     1      -2.517  -6.139  -1.567  0.00  0.00    -0.218 N 
ATOM     12  C   UNL     1      -1.469  -6.107  -0.715  0.00  0.00    +0.278 A 
ATOM     13  O   UNL     1      -0.760  -7.051  -0.413  0.00  0.00    -0.265 OA
ATOM     14  N   UNL     1      -2.452  -2.700  -0.549  0.00  0.00    -0.303 N 
ATOM     15  C   UNL     1       0.670  -2.019   1.266  0.00  0.00    +0.162 C 
ATOM     16  O   UNL     1       1.554  -2.647   1.815  0.00  0.00    -0.292 OA
ATOM     17  C   UNL     1       0.742  -0.517   1.242  0.00  0.00    +0.086 C 
ATOM     18  C   UNL     1       0.705  -0.503  -1.262  0.00  0.00    +0.011 C 
ATOM     19  H   UNL     1      -3.261  -2.220  -0.786  0.00  0.00    +0.153 HD
ENDROOT
BRANCH  11  20
ATOM     20  C   UNL     1      -2.979  -7.264  -2.259  0.00  0.00    +0.067 A 
ATOM     21  C   UNL     1      -2.349  -8.490  -2.093  0.00  0.00    +0.028 A 
ATOM     22  C   UNL     1      -2.808  -9.599  -2.777  0.00  0.00    +0.002 A 
ATOM     23  C   UNL     1      -3.893  -9.488  -3.627  0.00  0.00    +0.000 A 
ATOM     24  C   UNL     1      -4.522  -8.268  -3.795  0.00  0.00    +0.002 A 
ATOM     25  C   UNL     1      -4.072  -7.157  -3.109  0.00  0.00    +0.028 A 
ENDBRANCH  11  20
BRANCH   6  26
ATOM     26  C   UNL     1      -0.682  -4.684   2.123  0.00  0.00    -0.033 A 
ATOM     27  C   UNL     1      -1.911  -4.374   2.676  0.00  0.00    +0.005 A 
ATOM     28  C   UNL     1      -2.218  -4.794   3.956  0.00  0.00    +0.003 A 
ATOM     29  C   UNL     1      -1.297  -5.526   4.684  0.00  0.00    +0.033 A 
ATOM     30  C   UNL     1      -0.070  -5.837   4.130  0.00  0.00    +0.126 A 
ATOM     31  C   UNL     1       0.236  -5.420   2.848  0.00  0.00    +0.037 A 
BRANCH  30  32
ATOM     32  N   UNL     1       0.916  -6.620   4.909  0.00  0.00    +0.056 N 
ATOM     33  O   UNL     1       0.647  -6.987   6.029  0.00  0.00    -0.126 OA
ATOM     34  O   UNL     1       1.990  -6.892   4.425  0.00  0.00    -0.126 OA
ENDBRANCH  30  32
ENDBRANCH   6  26
TORSDOF 3
