REMARK  Name = ZINC31162204
REMARK  12 active torsions:
REMARK  status: ('A' for Active; 'I' for Inactive)
REMARK    1  A    between atoms: C_1  and  C_2
REMARK    2  A    between atoms: C_2  and  C_3
REMARK    3  A    between atoms: C_2  and  C_4
REMARK    4  A    between atoms: C_4  and  C_5
REMARK    5  A    between atoms: C_5  and  O_7
REMARK    6  A    between atoms: O_7  and  C_8
REMARK    7  A    between atoms: C_22  and  C_24
REMARK    8  A    between atoms: C_24  and  C_25
REMARK    9  A    between atoms: C_24  and  C_26
REMARK   10  A    between atoms: C_24  and  O_27
REMARK   11  A    between atoms: O_27  and  C_28
REMARK   12  A    between atoms: C_28  and  C_30
REMARK                            x       y       z     vdW  Elec       q    Type
REMARK                         _______ _______ _______ _____ _____    ______ ____
ROOT
ATOM      1  C   UNL     1      -2.635   1.254   0.003  0.00  0.00    +0.254 C 
ATOM      2  C   UNL     1      -1.199   1.743   0.017  0.00  0.00    +0.039 A 
ATOM      3  C   UNL     1      -0.013   1.076   0.008  0.00  0.00    +0.022 A 
ATOM      4  C   UNL     1       1.188   1.795   0.000  0.00  0.00    +0.018 A 
ATOM      5  C   UNL     1       2.481   1.108  -0.015  0.00  0.00    +0.018 A 
ATOM      6  C   UNL     1       3.609   1.865  -0.026  0.00  0.00    +0.092 A 
ATOM      7  C   UNL     1       3.509   3.271  -0.022  0.00  0.00    +0.337 A 
ATOM      8  O   UNL     1       4.528   3.938  -0.033  0.00  0.00    -0.245 OA
ATOM      9  O   UNL     1       2.321   3.894  -0.005  0.00  0.00    -0.422 OA
ATOM     10  C   UNL     1       1.161   3.202   0.007  0.00  0.00    +0.143 A 
ATOM     11  C   UNL     1      -0.056   3.862   0.027  0.00  0.00    +0.093 A 
ATOM     12  C   UNL     1      -1.245   3.138   0.038  0.00  0.00    +0.132 A 
ATOM     13  O   UNL     1      -2.530   3.585   0.074  0.00  0.00    -0.480 OA
ATOM     14  C   UNL     1      -3.407   2.537  -0.383  0.00  0.00    +0.261 C 
ENDROOT
BRANCH  14  15
ATOM     15  C   UNL     1      -4.750   2.602   0.347  0.00  0.00    +0.148 C 
ATOM     16  C   UNL     1      -5.488   3.881  -0.055  0.00  0.00    +0.059 C 
ATOM     17  C   UNL     1      -5.596   1.385  -0.033  0.00  0.00    +0.059 C 
BRANCH  15  18
ATOM     18  O   UNL     1      -4.522   2.605   1.781  0.00  0.00    -0.455 OA
BRANCH  18  19
ATOM     19  C   UNL     1      -5.607   2.659   2.570  0.00  0.00    +0.305 C 
ATOM     20  O   UNL     1      -6.710   2.702   2.079  0.00  0.00    -0.251 OA
ATOM     21  C   UNL     1      -5.448   2.666   4.069  0.00  0.00    +0.136 C 
ENDBRANCH  18  19
ENDBRANCH  15  18
ENDBRANCH  14  15
BRANCH   1  22
ATOM     22  O   UNL     1      -3.036   0.782   1.316  0.00  0.00    -0.453 OA
BRANCH  22  23
ATOM     23  C   UNL     1      -2.854  -0.522   1.578  0.00  0.00    +0.308 C 
ATOM     24  O   UNL     1      -2.376  -1.245   0.737  0.00  0.00    -0.251 OA
BRANCH  23  25
ATOM     25  C   UNL     1      -3.247  -1.083   2.920  0.00  0.00    +0.123 C 
BRANCH  25  27
ATOM     26  C   UNL     1      -1.425  -2.792   2.856  0.00  0.00    +0.008 C 
ATOM     27  C   UNL     1      -2.937  -2.581   2.957  0.00  0.00    -0.007 C 
ATOM     28  C   UNL     1      -3.448  -3.175   4.270  0.00  0.00    +0.008 C 
ENDBRANCH  25  27
ENDBRANCH  23  25
ENDBRANCH  22  23
ENDBRANCH   1  22
TORSDOF 7
