REMARK  Name = ZINC12291679
REMARK  9 active torsions:
REMARK  status: ('A' for Active; 'I' for Inactive)
REMARK    1  A    between atoms: C_1  and  C_2
REMARK    2  A    between atoms: C_5  and  C_8
REMARK    3  A    between atoms: C_8  and  C_10
REMARK    4  A    between atoms: C_12  and  C_24
REMARK    5  A    between atoms: C_18  and  C_19
REMARK    6  A    between atoms: C_18  and  O_23
REMARK    7  A    between atoms: C_27  and  O_30
REMARK    8  A    between atoms: O_30  and  C_31
REMARK    9  A    between atoms: C_31  and  C_32
REMARK                            x       y       z     vdW  Elec       q    Type
REMARK                         _______ _______ _______ _____ _____    ______ ____
ROOT
ATOM      1  C   UNL     1      -0.160   1.826  -0.139  0.00  0.00    +0.144 C 
ATOM      2  C   UNL     1       1.356   2.015  -0.259  0.00  0.00    +0.120 C 
ATOM      3  N   UNL     1       2.011   1.376   0.883  0.00  0.00    -0.292 N 
ATOM      4  C   UNL     1       1.394   1.264   2.069  0.00  0.00    +0.302 C 
ATOM      5  O   UNL     1       1.988   0.734   2.989  0.00  0.00    -0.253 OA
ATOM      6  N   UNL     1       0.148   1.714   2.281  0.00  0.00    -0.264 N 
ATOM      7  C   UNL     1      -0.614   2.373   1.219  0.00  0.00    +0.243 C 
ATOM      8  H   UNL     1       2.910   1.026   0.780  0.00  0.00    +0.151 HD
ATOM      9  H   UNL     1      -0.255   1.601   3.155  0.00  0.00    +0.153 HD
ENDROOT
BRANCH   2  10
ATOM     10  C   UNL     1       1.842   1.384  -1.538  0.00  0.00    -0.026 A 
ATOM     11  C   UNL     1       2.243   0.061  -1.546  0.00  0.00    +0.009 A 
ATOM     12  C   UNL     1       2.684  -0.521  -2.719  0.00  0.00    +0.046 A 
ATOM     13  C   UNL     1       2.735   0.226  -3.887  0.00  0.00    +0.121 A 
ATOM     14  C   UNL     1       2.337   1.555  -3.875  0.00  0.00    +0.046 A 
ATOM     15  C   UNL     1       1.892   2.131  -2.701  0.00  0.00    +0.009 A 
BRANCH  13  16
ATOM     16  O   UNL     1       3.174  -0.342  -5.040  0.00  0.00    -0.488 OA
BRANCH  16  17
ATOM     17  C   UNL     1       3.568  -1.715  -4.978  0.00  0.00    +0.256 C 
BRANCH  17  18
ATOM     18  C   UNL     1       4.022  -2.169  -6.341  0.00  0.00    +0.006 C 
ATOM     19  C   UNL     1       5.119  -2.875  -6.464  0.00  0.00    +0.007 C 
ENDBRANCH  17  18
ENDBRANCH  16  17
ENDBRANCH  13  16
ENDBRANCH   2  10
BRANCH   7  20
ATOM     20  C   UNL     1      -0.365   3.882   1.272  0.00  0.00    +0.436 C 
ATOM     21  F   UNL     1      -1.089   4.509   0.252  0.00  0.00    -0.166 F 
ATOM     22  F   UNL     1      -0.780   4.380   2.512  0.00  0.00    -0.166 F 
ATOM     23  F   UNL     1       1.000   4.136   1.100  0.00  0.00    -0.166 F 
ENDBRANCH   7  20
BRANCH   1  24
ATOM     24  C   UNL     1      -0.497   0.360  -0.232  0.00  0.00    +0.173 C 
ATOM     25  O   UNL     1       0.254  -0.465   0.242  0.00  0.00    -0.292 OA
BRANCH  24  30
ATOM     26  C   UNL     1      -5.339  -1.317  -2.837  0.00  0.00    +0.044 C 
ATOM     27  C   UNL     1      -4.069  -0.877  -2.155  0.00  0.00    -0.050 A 
ATOM     28  C   UNL     1      -3.215  -1.823  -1.615  0.00  0.00    +0.004 A 
ATOM     29  C   UNL     1      -2.052  -1.429  -0.988  0.00  0.00    +0.011 A 
ATOM     30  C   UNL     1      -1.736  -0.069  -0.899  0.00  0.00    +0.018 A 
ATOM     31  C   UNL     1      -2.607   0.881  -1.443  0.00  0.00    +0.011 A 
ATOM     32  C   UNL     1      -3.764   0.470  -2.071  0.00  0.00    +0.004 A 
ENDBRANCH  24  30
ENDBRANCH   1  24
BRANCH   7  33
ATOM     33  O   UNL     1      -2.007   2.111   1.398  0.00  0.00    -0.364 OA
ATOM     34  H   UNL     1      -2.363   2.430   2.239  0.00  0.00    +0.212 HD
ENDBRANCH   7  33
TORSDOF 8
