REMARK  Name = ZINC04876262
REMARK  10 active torsions:
REMARK  status: ('A' for Active; 'I' for Inactive)
REMARK    1  A    between atoms: C_1  and  C_2
REMARK    2  A    between atoms: C_2  and  C_3
REMARK    3  A    between atoms: C_3  and  C_4
REMARK    4  A    between atoms: C_4  and  N_5
REMARK    5  A    between atoms: N_5  and  C_6
REMARK    6  A    between atoms: C_6  and  C_7
REMARK    7  A    between atoms: C_17  and  C_19
REMARK    8  A    between atoms: C_26  and  C_28
REMARK    9  A    between atoms: C_28  and  C_29
REMARK   10  A    between atoms: C_29  and  C_30
REMARK                            x       y       z     vdW  Elec       q    Type
REMARK                         _______ _______ _______ _____ _____    ______ ____
ROOT
ATOM      1  C   UNL     1      -3.919   1.268  -1.961  0.00  0.00    +0.234 C 
ATOM      2  O   UNL     1      -3.429   0.260  -2.425  0.00  0.00    -0.274 OA
ATOM      3  N   UNL     1      -3.530   1.709  -0.749  0.00  0.00    -0.289 N 
ATOM      4  C   UNL     1      -4.118   2.929  -0.175  0.00  0.00    +0.114 C 
ATOM      5  C   UNL     1      -4.906   2.539   1.085  0.00  0.00    +0.062 C 
ATOM      6  C   UNL     1      -4.097   1.558   1.870  0.00  0.00    -0.003 A 
ATOM      7  C   UNL     1      -3.025   0.831   1.452  0.00  0.00    -0.012 A 
ATOM      8  C   UNL     1      -2.445  -0.026   2.385  0.00  0.00    +0.013 A 
ATOM      9  C   UNL     1      -2.948  -0.102   3.639  0.00  0.00    +0.046 A 
ATOM     10  S   UNL     1      -4.303   1.065   3.561  0.00  0.00    -0.101 S 
ATOM     11  C   UNL     1      -2.513   0.978   0.020  0.00  0.00    +0.137 C 
ENDROOT
BRANCH  11  12
ATOM     12  C   UNL     1      -1.219   1.750   0.017  0.00  0.00    -0.022 A 
ATOM     13  C   UNL     1      -0.096   1.213  -0.583  0.00  0.00    +0.008 A 
ATOM     14  C   UNL     1       1.090   1.923  -0.590  0.00  0.00    +0.038 A 
ATOM     15  C   UNL     1       1.154   3.170   0.008  0.00  0.00    +0.123 A 
ATOM     16  C   UNL     1       0.030   3.704   0.614  0.00  0.00    +0.038 A 
ATOM     17  C   UNL     1      -1.155   2.993   0.620  0.00  0.00    +0.008 A 
ATOM     18  F   UNL     1       2.313   3.864   0.002  0.00  0.00    -0.205 F 
ENDBRANCH  11  12
BRANCH   1  19
ATOM     19  C   UNL     1      -4.963   2.026  -2.740  0.00  0.00    +0.203 C 
BRANCH  19  20
ATOM     20  N   UNL     1      -5.209   1.348  -4.015  0.00  0.00    -0.293 N 
ATOM     21  C   UNL     1      -6.160   0.397  -4.101  0.00  0.00    +0.216 C 
ATOM     22  O   UNL     1      -6.812   0.102  -3.122  0.00  0.00    -0.276 OA
BRANCH  20  23
ATOM     23  C   UNL     1      -4.420   1.704  -5.198  0.00  0.00    +0.108 C 
BRANCH  23  24
ATOM     24  C   UNL     1      -3.172   0.822  -5.263  0.00  0.00    +0.019 C 
BRANCH  24  26
ATOM     25  C   UNL     1      -1.100   0.311  -6.562  0.00  0.00    +0.004 C 
ATOM     26  C   UNL     1      -2.349   1.193  -6.498  0.00  0.00    -0.002 C 
ENDBRANCH  24  26
ENDBRANCH  23  24
ENDBRANCH  20  23
BRANCH  21  27
ATOM     27  C   UNL     1      -6.413  -0.300  -5.412  0.00  0.00    +0.096 C 
BRANCH  27  28
ATOM     28  C   UNL     1      -7.534  -1.326  -5.237  0.00  0.00    +0.006 C 
ATOM     29  C   UNL     1      -7.791  -2.034  -6.568  0.00  0.00    +0.004 C 
ENDBRANCH  27  28
ENDBRANCH  21  27
ENDBRANCH  19  20
ENDBRANCH   1  19
TORSDOF 8
