REMARK  Name = ZINC03482088
REMARK  9 active torsions:
REMARK  status: ('A' for Active; 'I' for Inactive)
REMARK    1  A    between atoms: C_1  and  C_2
REMARK    2  A    between atoms: C_8  and  C_16
REMARK    3  A    between atoms: C_16  and  O_18
REMARK    4  A    between atoms: O_18  and  C_19
REMARK    5  A    between atoms: C_19  and  C_21
REMARK    6  A    between atoms: C_19  and  C_22
REMARK    7  A    between atoms: N_24  and  C_25
REMARK    8  A    between atoms: C_25  and  C_26
REMARK    9  A    between atoms: N_28  and  C_29
REMARK                            x       y       z     vdW  Elec       q    Type
REMARK                         _______ _______ _______ _____ _____    ______ ____
ROOT
ATOM      1  C   UNL     1       4.691  -1.107   3.178  0.00  0.00    +0.259 C 
ATOM      2  C   UNL     1       4.591   0.383   2.846  0.00  0.00    +0.062 C 
ENDROOT
BRANCH   1   3
ATOM      3  C   UNL     1       6.067  -1.609   2.824  0.00  0.00    +0.254 C 
ATOM      4  O   UNL     1       6.204  -2.433   1.945  0.00  0.00    -0.272 OA
ATOM      5  N   UNL     1       7.145  -1.143   3.485  0.00  0.00    -0.304 N 
ATOM      6  H   UNL     1       7.036  -0.484   4.188  0.00  0.00    +0.149 HD
BRANCH   5   7
ATOM      7  C   UNL     1       8.483  -1.631   3.140  0.00  0.00    +0.200 C 
BRANCH   7   8
ATOM      8  C   UNL     1       9.505  -0.957   4.019  0.00  0.00    +0.234 C 
ATOM      9  O   UNL     1       9.151  -0.149   4.851  0.00  0.00    -0.274 OA
ATOM     10  N   UNL     1      10.813  -1.253   3.881  0.00  0.00    -0.282 N 
ATOM     11  H   UNL     1      11.090  -1.946   3.261  0.00  0.00    +0.155 HD
BRANCH  10  12
ATOM     12  C   UNL     1      11.771  -0.559   4.632  0.00  0.00    +0.072 A 
ATOM     13  C   UNL     1      11.477  -0.148   5.925  0.00  0.00    +0.029 A 
ATOM     14  C   UNL     1      12.422   0.536   6.665  0.00  0.00    +0.043 A 
ATOM     15  C   UNL     1      13.664   0.812   6.119  0.00  0.00    +0.161 A 
ATOM     16  C   UNL     1      13.963   0.403   4.828  0.00  0.00    +0.195 A 
ATOM     17  C   UNL     1      13.020  -0.287   4.085  0.00  0.00    +0.182 A 
ATOM     18  F   UNL     1      13.312  -0.692   2.830  0.00  0.00    -0.200 F 
ATOM     19  F   UNL     1      15.175   0.675   4.297  0.00  0.00    -0.199 F 
ATOM     20  F   UNL     1      14.586   1.481   6.845  0.00  0.00    -0.202 F 
ENDBRANCH  10  12
ENDBRANCH   7   8
ENDBRANCH   5   7
ENDBRANCH   1   3
BRANCH   1  21
ATOM     21  O   UNL     1       3.713  -1.829   2.428  0.00  0.00    -0.449 OA
BRANCH  21  22
ATOM     22  C   UNL     1       2.503  -1.993   2.997  0.00  0.00    +0.341 C 
ATOM     23  O   UNL     1       2.285  -1.536   4.101  0.00  0.00    -0.245 OA
BRANCH  22  30
ATOM     24  C   UNL     1      -0.051   1.460   0.053  0.00  0.00    +0.008 C 
ATOM     25  C   UNL     1      -0.023  -0.070   0.052  0.00  0.00    -0.009 C 
ATOM     26  C   UNL     1      -1.457  -0.612   0.087  0.00  0.00    +0.010 C 
ATOM     27  C   UNL     1      -1.411  -2.117  -0.166  0.00  0.00    +0.056 C 
ATOM     28  C   UNL     1      -0.429  -2.781   0.768  0.00  0.00    +0.046 A 
ATOM     29  C   UNL     1       0.555  -2.063   1.434  0.00  0.00    -0.011 A 
ATOM     30  C   UNL     1       1.442  -2.729   2.279  0.00  0.00    +0.073 A 
ATOM     31  C   UNL     1       1.299  -4.130   2.432  0.00  0.00    +0.015 A 
ATOM     32  C   UNL     1       2.150  -4.870   3.263  0.00  0.00    +0.011 A 
ATOM     33  C   UNL     1       1.974  -6.216   3.380  0.00  0.00    +0.001 A 
ATOM     34  C   UNL     1       0.958  -6.867   2.683  0.00  0.00    +0.002 A 
ATOM     35  C   UNL     1       0.115  -6.179   1.867  0.00  0.00    +0.028 A 
ATOM     36  C   UNL     1       0.266  -4.787   1.720  0.00  0.00    +0.072 A 
ATOM     37  N   UNL     1      -0.542  -4.086   0.927  0.00  0.00    -0.251 NA
ATOM     38  C   UNL     1       0.712  -0.572   1.294  0.00  0.00    +0.041 C 
ENDBRANCH  22  30
ENDBRANCH  21  22
ENDBRANCH   1  21
TORSDOF 7
