REMARK  Name = ZINC01288104
REMARK  7 active torsions:
REMARK  status: ('A' for Active; 'I' for Inactive)
REMARK    1  A    between atoms: C_1  and  C_2
REMARK    2  A    between atoms: C_2  and  C_4
REMARK    3  A    between atoms: C_2  and  O_18
REMARK    4  A    between atoms: N_6  and  C_7
REMARK    5  A    between atoms: C_9  and  C_14
REMARK    6  A    between atoms: O_18  and  C_19
REMARK    7  A    between atoms: C_19  and  C_21
REMARK                            x       y       z     vdW  Elec       q    Type
REMARK                         _______ _______ _______ _____ _____    ______ ____
ROOT
ATOM      1  C   UNL     1       7.392  -3.257   3.219  0.00  0.00    +0.258 C 
ATOM      2  O   UNL     1       6.732  -4.131   2.699  0.00  0.00    -0.271 OA
ATOM      3  N   UNL     1       8.635  -3.526   3.665  0.00  0.00    -0.281 N 
ATOM      4  H   UNL     1       9.193  -2.811   4.007  0.00  0.00    +0.155 HD
ENDROOT
BRANCH   3   5
ATOM      5  C   UNL     1       9.120  -4.839   3.635  0.00  0.00    +0.052 A 
ATOM      6  C   UNL     1       8.235  -5.909   3.652  0.00  0.00    +0.037 A 
ATOM      7  C   UNL     1       8.717  -7.203   3.622  0.00  0.00    +0.057 A 
ATOM      8  C   UNL     1      10.080  -7.434   3.575  0.00  0.00    +0.014 A 
ATOM      9  C   UNL     1      10.964  -6.372   3.557  0.00  0.00    +0.022 A 
ATOM     10  C   UNL     1      10.489  -5.074   3.581  0.00  0.00    +0.062 A 
ATOM     11 CL   UNL     1      11.600  -3.741   3.552  0.00  0.00    -0.082 Cl
BRANCH   7  12
ATOM     12  C   UNL     1       7.757  -8.364   3.641  0.00  0.00    +0.417 C 
ATOM     13  F   UNL     1       7.416  -8.709   2.328  0.00  0.00    -0.166 F 
ATOM     14  F   UNL     1       8.360  -9.458   4.269  0.00  0.00    -0.166 F 
ATOM     15  F   UNL     1       6.601  -8.002   4.342  0.00  0.00    -0.166 F 
ENDBRANCH   7  12
ENDBRANCH   3   5
BRANCH   1  17
ATOM     16  C   UNL     1       6.774  -1.492   4.847  0.00  0.00    +0.062 C 
ATOM     17  C   UNL     1       6.823  -1.869   3.365  0.00  0.00    +0.259 C 
BRANCH  17  18
ATOM     18  O   UNL     1       5.481  -1.835   2.812  0.00  0.00    -0.449 OA
BRANCH  18  19
ATOM     19  C   UNL     1       5.064  -0.665   2.290  0.00  0.00    +0.340 C 
ATOM     20  O   UNL     1       5.802   0.301   2.297  0.00  0.00    -0.245 OA
BRANCH  19  21
ATOM     21  C   UNL     1       3.713  -0.556   1.710  0.00  0.00    +0.063 A 
ATOM     22  C   UNL     1       2.863  -1.665   1.702  0.00  0.00    +0.019 A 
ATOM     23  C   UNL     1       1.600  -1.562   1.160  0.00  0.00    +0.050 A 
ATOM     24  C   UNL     1       1.168  -0.357   0.621  0.00  0.00    +0.166 A 
ATOM     25  C   UNL     1       2.011   0.754   0.627  0.00  0.00    +0.167 A 
ATOM     26  C   UNL     1       3.278   0.657   1.168  0.00  0.00    +0.064 A 
ATOM     27  O   UNL     1       1.356   1.802   0.046  0.00  0.00    -0.453 OA
ATOM     28  C   UNL     1      -0.037   1.435   0.056  0.00  0.00    +0.466 C 
ATOM     29  O   UNL     1      -0.013  -0.004   0.037  0.00  0.00    -0.453 OA
ENDBRANCH  19  21
ENDBRANCH  18  19
ENDBRANCH  17  18
ENDBRANCH   1  17
TORSDOF 6
