REMARK  Name = ZINC22419243
REMARK  12 active torsions:
REMARK  status: ('A' for Active; 'I' for Inactive)
REMARK    1  A    between atoms: C_1  and  N_2
REMARK    2  A    between atoms: N_2  and  C_3
REMARK    3  A    between atoms: N_2  and  C_4
REMARK    4  A    between atoms: C_7  and  C_10
REMARK    5  A    between atoms: C_10  and  C_12
REMARK    6  A    between atoms: C_10  and  N_27
REMARK    7  A    between atoms: C_12  and  N_13
REMARK    8  A    between atoms: N_16  and  C_17
REMARK    9  A    between atoms: C_20  and  O_25
REMARK   10  A    between atoms: C_21  and  O_23
REMARK   11  A    between atoms: O_23  and  C_24
REMARK   12  A    between atoms: O_25  and  C_26
REMARK                            x       y       z     vdW  Elec       q    Type
REMARK                         _______ _______ _______ _____ _____    ______ ____
ROOT
ATOM      1  C   UNL     1       0.373   1.217   0.422  0.00  0.00    -0.020 C 
ENDROOT
BRANCH   1   2
ATOM      2  N   UNL     1      -0.177   1.671   1.707  0.00  0.00    +0.388 N 
ATOM      3  C   UNL     1       0.582   1.106   2.834  0.00  0.00    -0.073 C 
ATOM      4  C   UNL     1       0.218   1.881   4.101  0.00  0.00    +0.017 C 
ATOM      5  C   UNL     1      -1.281   1.958   4.244  0.00  0.00    -0.048 A 
ATOM      6  C   UNL     1      -1.811   2.297   5.479  0.00  0.00    +0.004 A 
ATOM      7  C   UNL     1      -3.178   2.382   5.652  0.00  0.00    +0.000 A 
ATOM      8  C   UNL     1      -4.023   2.128   4.587  0.00  0.00    +0.000 A 
ATOM      9  C   UNL     1      -3.496   1.790   3.357  0.00  0.00    +0.002 A 
ATOM     10  C   UNL     1      -2.123   1.701   3.183  0.00  0.00    -0.061 A 
ATOM     11  C   UNL     1      -1.595   1.320   1.824  0.00  0.00    -0.042 C 
ATOM     12  H   UNL     1      -0.088   2.767   1.739  0.00  0.00    -0.080 HD
ENDBRANCH   1   2
BRANCH   1  16
ATOM     13  C   UNL     1      -2.038   2.720  -2.770  0.00  0.00    +0.029 A 
ATOM     14  C   UNL     1      -1.537   1.426  -2.826  0.00  0.00    +0.023 A 
ATOM     15  C   UNL     1      -0.758   0.944  -1.793  0.00  0.00    +0.004 A 
ATOM     16  C   UNL     1      -0.477   1.747  -0.703  0.00  0.00    -0.059 A 
ATOM     17  C   UNL     1      -0.979   3.034  -0.642  0.00  0.00    +0.004 A 
ATOM     18  C   UNL     1      -1.754   3.525  -1.674  0.00  0.00    +0.023 A 
BRANCH  13  20
ATOM     19  C   UNL     1      -3.234   2.323  -4.905  0.00  0.00    +0.129 C 
ATOM     20  N   UNL     1      -2.827   3.212  -3.813  0.00  0.00    -0.336 N 
ATOM     21  C   UNL     1      -3.247   4.615  -3.816  0.00  0.00    +0.129 C 
ENDBRANCH  13  20
ENDBRANCH   1  16
BRANCH   1  22
ATOM     22  C   UNL     1       1.804   1.736   0.268  0.00  0.00    +0.095 C 
BRANCH  22  23
ATOM     23  N   UNL     1       2.396   1.182  -0.952  0.00  0.00    -0.300 N 
ATOM     24  C   UNL     1       3.688   1.429  -1.247  0.00  0.00    +0.304 C 
ATOM     25  O   UNL     1       4.362   2.112  -0.500  0.00  0.00    -0.253 OA
ATOM     26  N   UNL     1       4.232   0.920  -2.369  0.00  0.00    -0.269 N 
ATOM     27  H   UNL     1       1.786   0.564  -1.627  0.00  0.00    +0.150 HD
ATOM     28  H   UNL     1       3.648   0.236  -3.002  0.00  0.00    +0.156 HD
BRANCH  26  29
ATOM     29  C   UNL     1       5.543   1.261  -2.730  0.00  0.00    +0.038 A 
ATOM     30  C   UNL     1       6.033   2.529  -2.446  0.00  0.00    +0.027 A 
ATOM     31  C   UNL     1       7.327   2.865  -2.796  0.00  0.00    +0.051 A 
ATOM     32  C   UNL     1       8.134   1.942  -3.442  0.00  0.00    +0.162 A 
ATOM     33  C   UNL     1       7.644   0.673  -3.732  0.00  0.00    +0.163 A 
ATOM     34  C   UNL     1       6.349   0.334  -3.376  0.00  0.00    +0.072 A 
BRANCH  33  35
ATOM     35  O   UNL     1       8.435  -0.234  -4.366  0.00  0.00    -0.491 OA
ATOM     36  C   UNL     1       7.866  -1.517  -4.632  0.00  0.00    +0.277 C 
ENDBRANCH  33  35
BRANCH  32  37
ATOM     37  O   UNL     1       9.406   2.277  -3.790  0.00  0.00    -0.491 OA
ATOM     38  C   UNL     1       9.843   3.597  -3.461  0.00  0.00    +0.277 C 
ENDBRANCH  32  37
ENDBRANCH  26  29
ENDBRANCH  22  23
ENDBRANCH   1  22
TORSDOF 8
