REMARK  Name = ZINC15949687
REMARK  4 active torsions:
REMARK  status: ('A' for Active; 'I' for Inactive)
REMARK    1  A    between atoms: C_1  and  C_2
REMARK    2  A    between atoms: C_4  and  C_11
REMARK    3  A    between atoms: C_7  and  N_8
REMARK    4  A    between atoms: C_16  and  C_19
REMARK                            x       y       z     vdW  Elec       q    Type
REMARK                         _______ _______ _______ _____ _____    ______ ____
ROOT
ATOM      1  C   UNL     1       2.290   4.086   0.097  0.00  0.00    +0.247 C 
ATOM      2  O   UNL     1       2.168   5.284   0.264  0.00  0.00    -0.270 OA
ATOM      3  N   UNL     1       3.517   3.549  -0.053  0.00  0.00    -0.293 N 
ATOM      4  C   UNL     1       4.734   4.368   0.080  0.00  0.00    +0.113 C 
ATOM      5  C   UNL     1       5.541   3.815   1.264  0.00  0.00    +0.054 C 
ATOM      6  C   UNL     1       5.619   2.319   1.190  0.00  0.00    -0.041 C 
ATOM      7  C   UNL     1       4.808   1.569   0.484  0.00  0.00    -0.004 C 
ATOM      8  C   UNL     1       3.694   2.123  -0.361  0.00  0.00    +0.135 C 
ENDROOT
BRANCH   1  12
ATOM      9  C   UNL     1      -2.143   2.759   1.964  0.00  0.00    +0.046 C 
ATOM     10  C   UNL     1      -1.041   2.577   0.953  0.00  0.00    -0.020 A 
ATOM     11  C   UNL     1       0.074   3.389   0.995  0.00  0.00    +0.018 A 
ATOM     12  C   UNL     1       1.093   3.219   0.058  0.00  0.00    +0.037 A 
ATOM     13  C   UNL     1       0.978   2.227  -0.917  0.00  0.00    +0.015 A 
ATOM     14  C   UNL     1      -0.141   1.421  -0.949  0.00  0.00    +0.034 A 
ATOM     15  C   UNL     1      -1.151   1.599  -0.019  0.00  0.00    +0.129 A 
BRANCH  15  16
ATOM     16  N   UNL     1      -2.352   0.735  -0.062  0.00  0.00    +0.057 N 
ATOM     17  O   UNL     1      -2.244  -0.445  -0.344  0.00  0.00    -0.126 OA
ATOM     18  O   UNL     1      -3.449   1.204   0.184  0.00  0.00    -0.126 OA
ENDBRANCH  15  16
ENDBRANCH   1  12
BRANCH   6  19
ATOM     19  C   UNL     1       6.683   1.645   1.964  0.00  0.00    -0.022 A 
ATOM     20  C   UNL     1       6.681   1.704   3.358  0.00  0.00    +0.008 A 
ATOM     21  C   UNL     1       7.673   1.067   4.074  0.00  0.00    +0.001 A 
ATOM     22  C   UNL     1       8.676   0.381   3.413  0.00  0.00    +0.000 A 
ATOM     23  C   UNL     1       8.688   0.324   2.031  0.00  0.00    +0.001 A 
ATOM     24  C   UNL     1       7.697   0.951   1.303  0.00  0.00    +0.008 A 
ENDBRANCH   6  19
TORSDOF 3
