REMARK  Name = ZINC36642268
REMARK  12 active torsions:
REMARK  status: ('A' for Active; 'I' for Inactive)
REMARK    1  A    between atoms: C_1  and  C_2
REMARK    2  A    between atoms: C_2  and  O_3
REMARK    3  A    between atoms: O_3  and  C_4
REMARK    4  A    between atoms: N_13  and  C_14
REMARK    5  A    between atoms: C_14  and  C_15
REMARK    6  A    between atoms: C_15  and  N_16
REMARK    7  A    between atoms: N_16  and  C_17
REMARK    8  A    between atoms: N_16  and  C_18
REMARK    9  A    between atoms: C_19  and  C_21
REMARK   10  A    between atoms: C_21  and  N_22
REMARK   11  A    between atoms: N_29  and  C_34
REMARK   12  A    between atoms: N_32  and  C_33
REMARK                            x       y       z     vdW  Elec       q    Type
REMARK                         _______ _______ _______ _____ _____    ______ ____
ROOT
ATOM      1  C   UNL     1      -1.498  -1.849   0.006  0.00  0.00    +0.122 A 
ATOM      2  C   UNL     1      -0.389  -2.689  -0.003  0.00  0.00    +0.048 A 
ATOM      3  C   UNL     1      -0.525  -4.053  -0.009  0.00  0.00    +0.032 A 
ATOM      4  C   UNL     1      -1.806  -4.653  -0.006  0.00  0.00    +0.081 A 
ATOM      5  C   UNL     1      -2.910  -3.771   0.003  0.00  0.00    +0.044 A 
ATOM      6  C   UNL     1      -2.769  -2.405   0.016  0.00  0.00    +0.063 A 
ATOM      7  S   UNL     1      -4.289  -4.891   0.004  0.00  0.00    -0.052 S 
ATOM      8  C   UNL     1      -3.345  -6.409  -0.007  0.00  0.00    +0.168 A 
ATOM      9  N   UNL     1      -2.109  -5.970  -0.011  0.00  0.00    -0.224 NA
ATOM     10  N   UNL     1      -3.803  -7.717  -0.012  0.00  0.00    -0.251 N 
ATOM     11  C   UNL     1      -5.127  -7.968  -0.006  0.00  0.00    +0.241 C 
ATOM     12  O   UNL     1      -5.918  -7.048   0.002  0.00  0.00    -0.273 OA
ENDROOT
BRANCH   1  13
ATOM     13  O   UNL     1      -1.339  -0.499   0.012  0.00  0.00    -0.492 OA
BRANCH  13  15
ATOM     14  C   UNL     1      -0.019   1.526   0.010  0.00  0.00    +0.048 C 
ATOM     15  C   UNL     1       0.002  -0.004   0.002  0.00  0.00    +0.225 C 
ENDBRANCH  13  15
ENDBRANCH   1  13
BRANCH  10  16
ATOM     16  C   UNL     1      -2.848  -8.828  -0.021  0.00  0.00    +0.097 C 
BRANCH  16  17
ATOM     17  C   UNL     1      -2.508  -9.221   1.417  0.00  0.00    -0.060 C 
BRANCH  17  18
ATOM     18  N   UNL     1      -1.550 -10.335   1.407  0.00  0.00    +0.377 N 
ATOM     19  C   UNL     1      -1.133 -10.634   2.784  0.00  0.00    -0.097 C 
ATOM     20  C   UNL     1      -2.185 -11.522   0.819  0.00  0.00    -0.097 C 
ATOM     21  H   UNL     1      -0.743 -10.079   0.859  0.00  0.00    -0.083 HD
ENDBRANCH  17  18
ENDBRANCH  16  17
ENDBRANCH  10  16
BRANCH  11  22
ATOM     22  C   UNL     1      -5.625  -9.390  -0.011  0.00  0.00    +0.219 C 
BRANCH  22  23
ATOM     23  N   UNL     1      -7.090  -9.395  -0.004  0.00  0.00    -0.316 N 
ATOM     24  C   UNL     1      -7.886  -9.491   1.079  0.00  0.00    +0.202 A 
ATOM     25  N   UNL     1      -9.141  -9.461   0.708  0.00  0.00    -0.218 NA
ATOM     26  C   UNL     1      -9.218  -9.346  -0.620  0.00  0.00    +0.168 A 
ATOM     27  C   UNL     1      -7.917  -9.295  -1.105  0.00  0.00    +0.152 A 
ATOM     28  C   UNL     1      -7.706  -9.166  -2.495  0.00  0.00    +0.282 A 
ATOM     29  O   UNL     1      -6.574  -9.123  -2.944  0.00  0.00    -0.265 OA
ATOM     30  N   UNL     1      -8.771  -9.093  -3.319  0.00  0.00    -0.262 N 
ATOM     31  C   UNL     1     -10.025  -9.140  -2.836  0.00  0.00    +0.333 A 
ATOM     32  O   UNL     1     -10.961  -9.072  -3.610  0.00  0.00    -0.246 OA
ATOM     33  N   UNL     1     -10.270  -9.270  -1.519  0.00  0.00    -0.280 N 
ATOM     34  C   UNL     1     -11.651  -9.316  -1.033  0.00  0.00    +0.155 C 
ATOM     35  C   UNL     1      -8.559  -8.959  -4.763  0.00  0.00    +0.157 C 
ENDBRANCH  22  23
ENDBRANCH  11  22
TORSDOF 7
