REMARK  Name = ZINC01425673
REMARK  10 active torsions:
REMARK  status: ('A' for Active; 'I' for Inactive)
REMARK    1  A    between atoms: C_1  and  C_2
REMARK    2  A    between atoms: C_2  and  C_41
REMARK    3  A    between atoms: C_7  and  C_18
REMARK    4  A    between atoms: N_10  and  C_11
REMARK    5  A    between atoms: N_20  and  C_21
REMARK    6  A    between atoms: C_21  and  C_23
REMARK    7  A    between atoms: C_21  and  C_34
REMARK    8  A    between atoms: C_23  and  C_24
REMARK    9  A    between atoms: C_34  and  O_36
REMARK   10  A    between atoms: O_36  and  C_37
REMARK                            x       y       z     vdW  Elec       q    Type
REMARK                         _______ _______ _______ _____ _____    ______ ____
ROOT
ATOM      1  C   UNL     1      -0.165   1.811  -0.202  0.00  0.00    +0.011 C 
ATOM      2  C   UNL     1      -0.015   0.290  -0.268  0.00  0.00    -0.023 C 
ATOM      3  C   UNL     1      -1.392  -0.361  -0.178  0.00  0.00    +0.061 C 
ATOM      4  C   UNL     1      -2.033  -0.107   1.162  0.00  0.00    +0.038 A 
ATOM      5  C   UNL     1      -1.274   0.198   2.279  0.00  0.00    +0.038 A 
ATOM      6  C   UNL     1      -1.890   0.422   3.529  0.00  0.00    +0.031 A 
ATOM      7  C   UNL     1      -3.273   0.339   3.620  0.00  0.00    +0.102 A 
ATOM      8  C   UNL     1      -4.029   0.021   2.406  0.00  0.00    +0.268 A 
ATOM      9  O   UNL     1      -5.243  -0.057   2.446  0.00  0.00    -0.266 OA
ATOM     10  N   UNL     1      -3.378  -0.183   1.248  0.00  0.00    -0.280 N 
ATOM     11  C   UNL     1       0.192   0.300   2.178  0.00  0.00    +0.165 C 
ATOM     12  O   UNL     1       0.852   0.762   3.085  0.00  0.00    -0.292 OA
ATOM     13  C   UNL     1       0.849  -0.191   0.906  0.00  0.00    +0.086 C 
ATOM     14  C   UNL     1       0.651  -0.102  -1.588  0.00  0.00    +0.011 C 
ENDROOT
BRANCH  10  15
ATOM     15  C   UNL     1      -4.117  -0.485   0.098  0.00  0.00    +0.050 A 
ATOM     16  C   UNL     1      -4.902   0.492  -0.501  0.00  0.00    +0.028 A 
ATOM     17  C   UNL     1      -5.630   0.193  -1.635  0.00  0.00    +0.022 A 
ATOM     18  C   UNL     1      -5.578  -1.080  -2.176  0.00  0.00    +0.041 A 
ATOM     19  C   UNL     1      -4.797  -2.056  -1.581  0.00  0.00    +0.022 A 
ATOM     20  C   UNL     1      -4.063  -1.760  -0.450  0.00  0.00    +0.028 A 
ATOM     21 CL   UNL     1      -6.495  -1.454  -3.602  0.00  0.00    -0.084 Cl
ENDBRANCH  10  15
BRANCH   7  22
ATOM     22  C   UNL     1      -3.961   0.563   4.902  0.00  0.00    +0.250 C 
ATOM     23  O   UNL     1      -5.176   0.596   4.942  0.00  0.00    -0.270 OA
ATOM     24  N   UNL     1      -3.245   0.732   6.030  0.00  0.00    -0.298 N 
ATOM     25  H   UNL     1      -2.277   0.778   5.988  0.00  0.00    +0.150 HD
BRANCH  24  26
ATOM     26  C   UNL     1      -3.928   0.846   7.321  0.00  0.00    +0.186 C 
BRANCH  26  27
ATOM     27  C   UNL     1      -4.346   2.277   7.544  0.00  0.00    +0.328 C 
ATOM     28  O   UNL     1      -4.098   3.115   6.710  0.00  0.00    -0.249 OA
BRANCH  27  29
ATOM     29  O   UNL     1      -4.993   2.620   8.669  0.00  0.00    -0.467 OA
ATOM     30  C   UNL     1      -5.359   3.993   8.814  0.00  0.00    +0.280 C 
ENDBRANCH  27  29
ENDBRANCH  26  27
BRANCH  26  31
ATOM     31  C   UNL     1      -2.979   0.412   8.441  0.00  0.00    +0.071 C 
BRANCH  31  32
ATOM     32  C   UNL     1      -2.659  -1.053   8.287  0.00  0.00    -0.020 A 
ATOM     33  C   UNL     1      -3.281  -2.075   8.896  0.00  0.00    +0.087 A 
ATOM     34  N   UNL     1      -2.716  -3.260   8.513  0.00  0.00    -0.360 N 
ATOM     35  H   UNL     1      -2.996  -4.136   8.820  0.00  0.00    +0.165 HD
ATOM     36  C   UNL     1      -1.689  -3.025   7.626  0.00  0.00    +0.047 A 
ATOM     37  C   UNL     1      -1.613  -1.632   7.441  0.00  0.00    +0.003 A 
ATOM     38  C   UNL     1      -0.655  -1.095   6.578  0.00  0.00    +0.010 A 
ATOM     39  C   UNL     1       0.202  -1.927   5.915  0.00  0.00    +0.001 A 
ATOM     40  C   UNL     1       0.128  -3.302   6.090  0.00  0.00    +0.002 A 
ATOM     41  C   UNL     1      -0.804  -3.852   6.944  0.00  0.00    +0.026 A 
ENDBRANCH  31  32
ENDBRANCH  26  31
ENDBRANCH  24  26
ENDBRANCH   7  22
TORSDOF 7
