REMARK  Name = ZINC24966596
REMARK  10 active torsions:
REMARK  status: ('A' for Active; 'I' for Inactive)
REMARK    1  A    between atoms: C_1  and  N_2
REMARK    2  A    between atoms: C_11  and  S_12
REMARK    3  A    between atoms: S_12  and  C_13
REMARK    4  A    between atoms: C_13  and  C_14
REMARK    5  A    between atoms: N_16  and  C_17
REMARK    6  A    between atoms: C_17  and  C_18
REMARK    7  A    between atoms: C_18  and  C_20
REMARK    8  A    between atoms: C_18  and  N_28
REMARK    9  A    between atoms: C_23  and  O_26
REMARK   10  A    between atoms: O_26  and  C_27
REMARK                            x       y       z     vdW  Elec       q    Type
REMARK                         _______ _______ _______ _____ _____    ______ ____
ROOT
ATOM      1  C   UNL     1       3.447  -5.677   1.255  0.00  0.00    +0.223 C 
ATOM      2  O   UNL     1       2.725  -6.522   1.740  0.00  0.00    -0.275 OA
ATOM      3  N   UNL     1       4.605  -6.038   0.667  0.00  0.00    -0.316 N 
ATOM      4  H   UNL     1       5.261  -5.272   0.227  0.00  0.00    +0.149 HD
ENDROOT
BRANCH   1   5
ATOM      5  C   UNL     1       3.051  -4.224   1.310  0.00  0.00    +0.173 C 
BRANCH   5   6
ATOM      6  S   UNL     1       1.459  -4.065   2.157  0.00  0.00    -0.078 S 
BRANCH   6  17
ATOM      7  C   UNL     1      -0.874  -2.608   3.261  0.00  0.00    +0.154 C 
ATOM      8  N   UNL     1       0.129  -1.752   2.623  0.00  0.00    -0.290 N 
ATOM      9  C   UNL     1      -0.069  -0.421   2.584  0.00  0.00    +0.263 A 
ATOM     10  O   UNL     1      -1.072   0.069   3.074  0.00  0.00    -0.267 OA
ATOM     11  C   UNL     1       0.912   0.411   1.959  0.00  0.00    +0.072 A 
ATOM     12  C   UNL     1       0.924   1.854   1.794  0.00  0.00    +0.023 A 
ATOM     13  C   UNL     1       1.959   2.434   1.169  0.00  0.00    +0.048 A 
ATOM     14  S   UNL     1       3.013   1.058   0.749  0.00  0.00    -0.077 S 
ATOM     15  C   UNL     1       2.031  -0.256   1.426  0.00  0.00    +0.116 A 
ATOM     16  N   UNL     1       2.166  -1.575   1.499  0.00  0.00    -0.216 NA
ATOM     17  C   UNL     1       1.245  -2.318   2.080  0.00  0.00    +0.173 A 
ENDBRANCH   6  17
ENDBRANCH   5   6
ENDBRANCH   1   5
BRANCH   3  18
ATOM     18  C   UNL     1       4.991  -7.450   0.613  0.00  0.00    +0.093 C 
BRANCH  18  19
ATOM     19  C   UNL     1       6.336  -7.585  -0.102  0.00  0.00    -0.020 C 
BRANCH  19  20
ATOM     20  N   UNL     1       6.254  -6.949  -1.424  0.00  0.00    +0.385 N 
ATOM     21  C   UNL     1       5.248  -7.612  -2.264  0.00  0.00    -0.078 C 
ATOM     22  C   UNL     1       5.086  -6.837  -3.574  0.00  0.00    -0.019 C 
ATOM     23  C   UNL     1       6.433  -6.787  -4.302  0.00  0.00    -0.004 C 
ATOM     24  C   UNL     1       7.474  -6.137  -3.387  0.00  0.00    -0.019 C 
ATOM     25  C   UNL     1       7.567  -6.931  -2.082  0.00  0.00    -0.078 C 
ATOM     26  H   UNL     1       5.936  -5.906  -1.280  0.00  0.00    -0.081 HD
ENDBRANCH  19  20
BRANCH  19  27
ATOM     27  C   UNL     1       6.674  -9.044  -0.266  0.00  0.00    -0.059 A 
ATOM     28  C   UNL     1       5.741  -9.913  -0.802  0.00  0.00    +0.005 A 
ATOM     29  C   UNL     1       6.050 -11.250  -0.959  0.00  0.00    +0.046 A 
ATOM     30  C   UNL     1       7.294 -11.723  -0.567  0.00  0.00    +0.120 A 
ATOM     31  C   UNL     1       8.227 -10.851  -0.025  0.00  0.00    +0.046 A 
ATOM     32  C   UNL     1       7.915  -9.514   0.124  0.00  0.00    +0.005 A 
BRANCH  30  33
ATOM     33  O   UNL     1       7.599 -13.040  -0.714  0.00  0.00    -0.495 OA
ATOM     34  C   UNL     1       6.590 -13.879  -1.280  0.00  0.00    +0.277 C 
ENDBRANCH  30  33
ENDBRANCH  19  27
ENDBRANCH  18  19
ENDBRANCH   3  18
TORSDOF 8
