REMARK  Name = ZINC14517886
REMARK  8 active torsions:
REMARK  status: ('A' for Active; 'I' for Inactive)
REMARK    1  A    between atoms: C_1  and  C_2
REMARK    2  A    between atoms: C_2  and  C_3
REMARK    3  A    between atoms: C_2  and  C_4
REMARK    4  A    between atoms: C_4  and  C_6
REMARK    5  A    between atoms: C_4  and  N_22
REMARK    6  A    between atoms: N_8  and  N_9
REMARK    7  A    between atoms: C_10  and  C_12
REMARK    8  A    between atoms: C_23  and  C_25
REMARK                            x       y       z     vdW  Elec       q    Type
REMARK                         _______ _______ _______ _____ _____    ______ ____
ROOT
ATOM      1  C   UNL     1      -1.919  -4.425  -0.002  0.00  0.00    +0.250 C 
ATOM      2  O   UNL     1      -0.799  -4.888  -0.016  0.00  0.00    -0.272 OA
ATOM      3  N   UNL     1      -2.096  -3.089   0.007  0.00  0.00    -0.233 N 
ATOM      4  H   UNL     1      -2.993  -2.719   0.018  0.00  0.00    +0.173 HD
ENDROOT
BRANCH   3   5
ATOM      5  N   UNL     1      -0.986  -2.235   0.000  0.00  0.00    -0.230 N 
ATOM      6  C   UNL     1      -1.163  -0.899   0.009  0.00  0.00    +0.262 C 
ATOM      7  O   UNL     1      -2.287  -0.435   0.023  0.00  0.00    -0.269 OA
ATOM      8  H   UNL     1      -0.089  -2.606  -0.011  0.00  0.00    +0.173 HD
BRANCH   6   9
ATOM      9  C   UNL     1       0.002  -0.004   0.002  0.00  0.00    +0.063 A 
ATOM     10  C   UNL     1       1.315  -0.373  -0.013  0.00  0.00    +0.096 A 
ATOM     11  N   UNL     1       2.101   0.731  -0.014  0.00  0.00    -0.360 N 
ATOM     12  H   UNL     1       3.071   0.719  -0.023  0.00  0.00    +0.165 HD
ATOM     13  C   UNL     1       1.327   1.873  -0.001  0.00  0.00    +0.047 A 
ATOM     14  C   UNL     1      -0.018   1.470   0.010  0.00  0.00    +0.012 A 
ATOM     15  C   UNL     1      -1.032   2.424   0.030  0.00  0.00    +0.011 A 
ATOM     16  C   UNL     1      -0.709   3.763   0.029  0.00  0.00    +0.001 A 
ATOM     17  C   UNL     1       0.619   4.163   0.019  0.00  0.00    +0.002 A 
ATOM     18  C   UNL     1       1.633   3.230   0.004  0.00  0.00    +0.026 A 
ENDBRANCH   6   9
ENDBRANCH   3   5
BRANCH   1  19
ATOM     19  C   UNL     1      -3.114  -5.344   0.005  0.00  0.00    +0.163 C 
BRANCH  19  20
ATOM     20  N   UNL     1      -2.660  -6.736  -0.007  0.00  0.00    -0.303 N 
ATOM     21  C   UNL     1      -3.461  -7.703  -0.497  0.00  0.00    +0.217 C 
ATOM     22  O   UNL     1      -4.559  -7.419  -0.929  0.00  0.00    -0.275 OA
ATOM     23  H   UNL     1      -1.782  -6.963   0.338  0.00  0.00    +0.149 HD
BRANCH  21  24
ATOM     24  C   UNL     1      -2.994  -9.135  -0.510  0.00  0.00    +0.075 C 
ATOM     25  C   UNL     1      -1.721  -9.249  -1.351  0.00  0.00    +0.013 C 
ATOM     26  C   UNL     1      -1.246 -10.703  -1.363  0.00  0.00    +0.001 C 
ATOM     27  C   UNL     1      -2.337 -11.591  -1.967  0.00  0.00    +0.000 C 
ATOM     28  C   UNL     1      -3.610 -11.477  -1.126  0.00  0.00    +0.001 C 
ATOM     29  C   UNL     1      -4.085 -10.022  -1.113  0.00  0.00    +0.013 C 
ENDBRANCH  21  24
ENDBRANCH  19  20
BRANCH  19  31
ATOM     30  C   UNL     1      -5.159  -6.022   1.272  0.00  0.00    +0.009 C 
ATOM     31  C   UNL     1      -3.946  -5.089   1.264  0.00  0.00    +0.012 C 
ATOM     32  C   UNL     1      -3.089  -5.357   2.503  0.00  0.00    +0.009 C 
ENDBRANCH  19  31
ENDBRANCH   1  19
TORSDOF 6
