REMARK  Name = ZINC01207791
REMARK  6 active torsions:
REMARK  status: ('A' for Active; 'I' for Inactive)
REMARK    1  A    between atoms: C_4  and  C_7
REMARK    2  A    between atoms: C_10  and  S_18
REMARK    3  A    between atoms: N_11  and  C_12
REMARK    4  A    between atoms: S_18  and  C_19
REMARK    5  A    between atoms: C_19  and  C_20
REMARK    6  A    between atoms: N_22  and  N_23
REMARK                            x       y       z     vdW  Elec       q    Type
REMARK                         _______ _______ _______ _____ _____    ______ ____
ROOT
ATOM      1  S   UNL     1       6.168  -3.640   0.679  0.00  0.00    -0.076 S 
ENDROOT
BRANCH   1   5
ATOM      2  C   UNL     1       3.741  -0.619   0.164  0.00  0.00    +0.169 A 
ATOM      3  N   UNL     1       4.862  -0.183  -0.362  0.00  0.00    -0.128 NA
ATOM      4  N   UNL     1       5.773  -1.084  -0.265  0.00  0.00    -0.122 NA
ATOM      5  C   UNL     1       5.290  -2.153   0.329  0.00  0.00    +0.197 A 
ATOM      6  N   UNL     1       3.981  -1.893   0.628  0.00  0.00    -0.270 N 
BRANCH   2  10
ATOM      7  C   UNL     1       0.071   1.507   0.405  0.00  0.00    +0.000 A 
ATOM      8  C   UNL     1       1.241   2.183   0.107  0.00  0.00    +0.001 A 
ATOM      9  C   UNL     1       2.436   1.499   0.027  0.00  0.00    +0.011 A 
ATOM     10  C   UNL     1       2.464   0.121   0.248  0.00  0.00    +0.020 A 
ATOM     11  C   UNL     1       1.280  -0.555   0.549  0.00  0.00    +0.011 A 
ATOM     12  C   UNL     1       0.092   0.141   0.625  0.00  0.00    +0.001 A 
ENDBRANCH   2  10
BRANCH   6  13
ATOM     13  C   UNL     1       3.073  -2.747   1.271  0.00  0.00    +0.051 A 
ATOM     14  C   UNL     1       2.557  -2.405   2.513  0.00  0.00    +0.026 A 
ATOM     15  C   UNL     1       1.662  -3.248   3.144  0.00  0.00    +0.002 A 
ATOM     16  C   UNL     1       1.281  -4.431   2.539  0.00  0.00    +0.000 A 
ATOM     17  C   UNL     1       1.794  -4.775   1.301  0.00  0.00    +0.002 A 
ATOM     18  C   UNL     1       2.684  -3.933   0.663  0.00  0.00    +0.026 A 
ENDBRANCH   6  13
ENDBRANCH   1   5
BRANCH   1  19
ATOM     19  C   UNL     1       7.835  -3.328   0.036  0.00  0.00    +0.174 C 
BRANCH  19  20
ATOM     20  C   UNL     1       8.701  -4.538   0.275  0.00  0.00    +0.242 C 
ATOM     21  O   UNL     1       8.239  -5.515   0.825  0.00  0.00    -0.273 OA
ATOM     22  N   UNL     1       9.989  -4.535  -0.122  0.00  0.00    -0.206 N 
ATOM     23  H   UNL     1      10.358  -3.753  -0.562  0.00  0.00    +0.177 HD
BRANCH  22  24
ATOM     24  N   UNL     1      10.793  -5.660   0.100  0.00  0.00    -0.175 NA
ATOM     25  C   UNL     1      12.071  -5.619  -0.188  0.00  0.00    +0.152 C 
ATOM     26  C   UNL     1      12.871  -4.433  -0.575  0.00  0.00    +0.028 A 
ATOM     27  C   UNL     1      12.560  -3.089  -0.746  0.00  0.00    +0.012 A 
ATOM     28  C   UNL     1      13.547  -2.200  -1.121  0.00  0.00    +0.001 A 
ATOM     29  C   UNL     1      14.842  -2.646  -1.325  0.00  0.00    +0.002 A 
ATOM     30  C   UNL     1      15.161  -3.978  -1.157  0.00  0.00    +0.024 A 
ATOM     31  C   UNL     1      14.180  -4.889  -0.780  0.00  0.00    +0.043 A 
ATOM     32  N   UNL     1      14.232  -6.259  -0.546  0.00  0.00    -0.280 N 
ATOM     33  C   UNL     1      13.030  -6.743  -0.190  0.00  0.00    +0.269 C 
ATOM     34  O   UNL     1      12.775  -7.902   0.079  0.00  0.00    -0.268 OA
ATOM     35  H   UNL     1      15.035  -6.796  -0.626  0.00  0.00    +0.155 HD
ENDBRANCH  22  24
ENDBRANCH  19  20
ENDBRANCH   1  19
TORSDOF 6
