REMARK  Name = ZINC39674557
REMARK  9 active torsions:
REMARK  status: ('A' for Active; 'I' for Inactive)
REMARK    1  A    between atoms: C_1  and  C_2
REMARK    2  A    between atoms: C_5  and  C_8
REMARK    3  A    between atoms: C_8  and  C_9
REMARK    4  A    between atoms: C_13  and  C_22
REMARK    5  A    between atoms: N_24  and  C_25
REMARK    6  A    between atoms: C_25  and  C_27
REMARK    7  A    between atoms: C_25  and  C_28
REMARK    8  A    between atoms: C_29  and  C_35
REMARK    9  A    between atoms: C_32  and  C_34
REMARK                            x       y       z     vdW  Elec       q    Type
REMARK                         _______ _______ _______ _____ _____    ______ ____
ROOT
ATOM      1  C   UNL     1       0.767  -4.539  -0.097  0.00  0.00    +0.220 C 
ATOM      2  O   UNL     1       1.677  -3.744   0.006  0.00  0.00    -0.275 OA
ATOM      3  N   UNL     1       1.014  -5.861  -0.001  0.00  0.00    -0.300 N 
ATOM      4  C   UNL     1       0.043  -6.976  -0.105  0.00  0.00    +0.121 C 
ATOM      5  C   UNL     1       0.789  -8.070  -0.901  0.00  0.00    +0.100 C 
ATOM      6  C   UNL     1       2.280  -7.772  -0.675  0.00  0.00    -0.004 C 
ATOM      7  C   UNL     1       2.318  -6.528   0.225  0.00  0.00    +0.115 C 
ATOM      8  C   UNL     1       2.967  -7.475  -2.005  0.00  0.00    -0.010 C 
ATOM      9  C   UNL     1       4.460  -7.238  -1.760  0.00  0.00    -0.082 C 
ATOM     10  N   UNL     1       5.051  -8.428  -1.137  0.00  0.00    +0.379 N 
ATOM     11  C   UNL     1       4.449  -8.653   0.183  0.00  0.00    -0.082 C 
ATOM     12  C   UNL     1       2.955  -8.950   0.021  0.00  0.00    -0.010 C 
ATOM     13  H   UNL     1       4.883  -9.232  -1.723  0.00  0.00    -0.086 HD
ATOM     14  H   UNL     1       6.045  -8.293  -1.033  0.00  0.00    -0.086 HD
ENDROOT
BRANCH   5  15
ATOM     15  C   UNL     1       0.449  -7.977  -2.366  0.00  0.00    +0.219 C 
ATOM     16  O   UNL     1       0.185  -6.901  -2.861  0.00  0.00    -0.275 OA
ATOM     17  N   UNL     1       0.437  -9.089  -3.128  0.00  0.00    -0.309 N 
ATOM     18  H   UNL     1       0.648  -9.950  -2.732  0.00  0.00    +0.149 HD
BRANCH  17  19
ATOM     19  C   UNL     1       0.107  -8.999  -4.552  0.00  0.00    +0.100 C 
ATOM     20  C   UNL     1       1.356  -8.601  -5.341  0.00  0.00    +0.033 C 
BRANCH  19  21
ATOM     21  C   UNL     1      -0.390 -10.335  -5.038  0.00  0.00    -0.001 C 
ATOM     22  C   UNL     1      -1.572 -10.623  -5.588  0.00  0.00    +0.063 C 
ATOM     23  N   UNL     1      -1.652 -11.936  -5.896  0.00  0.00    -0.159 NA
ATOM     24  N   UNL     1      -0.644 -12.590  -5.616  0.00  0.00    -0.180 NA
ATOM     25  C   UNL     1       0.339 -11.667  -5.023  0.00  0.00    +0.154 C 
ATOM     26  C   UNL     1       0.673 -12.085  -3.589  0.00  0.00    +0.039 C 
ATOM     27  C   UNL     1      -2.669  -9.619  -5.832  0.00  0.00    +0.067 C 
ENDBRANCH  19  21
ENDBRANCH  17  19
ENDBRANCH   5  15
BRANCH   1  28
ATOM     28  C   UNL     1      -0.639  -4.050  -0.330  0.00  0.00    +0.131 C 
BRANCH  28  33
ATOM     29  C   UNL     1      -0.654   1.723  -0.586  0.00  0.00    +0.044 C 
ATOM     30  C   UNL     1      -0.650   0.218  -0.519  0.00  0.00    -0.050 A 
ATOM     31  C   UNL     1      -0.469  -0.525  -1.671  0.00  0.00    +0.003 A 
ATOM     32  C   UNL     1      -0.465  -1.906  -1.610  0.00  0.00    +0.004 A 
ATOM     33  C   UNL     1      -0.642  -2.544  -0.397  0.00  0.00    -0.039 A 
ATOM     34  C   UNL     1      -0.822  -1.802   0.755  0.00  0.00    +0.004 A 
ATOM     35  C   UNL     1      -0.822  -0.421   0.695  0.00  0.00    +0.003 A 
ENDBRANCH  28  33
ENDBRANCH   1  28
TORSDOF 5
