REMARK  Name = ZINC20557192
REMARK  5 active torsions:
REMARK  status: ('A' for Active; 'I' for Inactive)
REMARK    1  A    between atoms: C_3  and  S_9
REMARK    2  A    between atoms: C_6  and  C_7
REMARK    3  A    between atoms: S_9  and  N_12
REMARK    4  A    between atoms: N_12  and  C_13
REMARK    5  A    between atoms: C_18  and  N_19
REMARK                            x       y       z     vdW  Elec       q    Type
REMARK                         _______ _______ _______ _____ _____    ______ ____
ROOT
ATOM      1  N   UNL     1      -0.011   0.966   0.007  0.00  0.00    -0.214 N 
ATOM      2  H   UNL     1       0.005  -0.131   0.084  0.00  0.00    +0.174 HD
ENDROOT
BRANCH   1   3
ATOM      3  C   UNL     1      -1.233   1.650   0.011  0.00  0.00    +0.069 A 
ATOM      4  C   UNL     1      -1.394   2.790  -0.763  0.00  0.00    +0.028 A 
ATOM      5  C   UNL     1      -2.601   3.464  -0.758  0.00  0.00    +0.022 A 
ATOM      6  C   UNL     1      -3.651   3.005   0.017  0.00  0.00    +0.043 A 
ATOM      7  C   UNL     1      -3.499   1.869   0.792  0.00  0.00    +0.044 A 
ATOM      8  C   UNL     1      -2.293   1.184   0.788  0.00  0.00    +0.049 A 
ATOM      9 CL   UNL     1      -5.164   3.857   0.018  0.00  0.00    -0.083 Cl
BRANCH   8  10
ATOM     10  N   UNL     1      -2.139   0.031   1.567  0.00  0.00    -0.356 N 
ATOM     11  H   UNL     1      -2.976  -0.336   2.179  0.00  0.00    +0.142 HD
ATOM     12  H   UNL     1      -1.180  -0.509   1.566  0.00  0.00    +0.142 HD
ENDBRANCH   8  10
ENDBRANCH   1   3
BRANCH   1  13
ATOM     13  S   UNL     1       1.409   1.808  -0.112  0.00  0.00    +0.072 S 
ATOM     14  O   UNL     1       2.458   0.862   0.044  0.00  0.00    -0.150 OA
ATOM     15  O   UNL     1       1.295   2.636  -1.262  0.00  0.00    -0.150 OA
BRANCH  13  18
ATOM     16  C   UNL     1       2.157   3.293   3.543  0.00  0.00    +0.021 A 
ATOM     17  C   UNL     1       2.087   2.454   2.451  0.00  0.00    +0.030 A 
ATOM     18  C   UNL     1       1.494   2.887   1.278  0.00  0.00    +0.109 A 
ATOM     19  C   UNL     1       0.972   4.166   1.191  0.00  0.00    +0.030 A 
ATOM     20  C   UNL     1       1.031   5.014   2.277  0.00  0.00    +0.021 A 
ATOM     21  C   UNL     1       1.628   4.583   3.464  0.00  0.00    +0.052 A 
BRANCH  21  22
ATOM     22  C   UNL     1       1.697   5.460   4.594  0.00  0.00    +0.099 C 
ATOM     23  N   UNL     1       1.751   6.155   5.490  0.00  0.00    -0.191 NA
ENDBRANCH  21  22
ENDBRANCH  13  18
ENDBRANCH   1  13
TORSDOF 5
