REMARK  Name = ZINC26441474
REMARK  8 active torsions:
REMARK  status: ('A' for Active; 'I' for Inactive)
REMARK    1  A    between atoms: C_1  and  C_2
REMARK    2  A    between atoms: C_2  and  C_14
REMARK    3  A    between atoms: C_5  and  C_10
REMARK    4  A    between atoms: C_7  and  C_8
REMARK    5  A    between atoms: C_7  and  C_9
REMARK    6  A    between atoms: C_10  and  O_12
REMARK    7  A    between atoms: O_12  and  C_13
REMARK    8  A    between atoms: N_16  and  C_17
REMARK                            x       y       z     vdW  Elec       q    Type
REMARK                         _______ _______ _______ _____ _____    ______ ____
ROOT
ATOM      1  C   UNL     1       0.444   1.199   0.137  0.00  0.00    +0.021 C 
ATOM      2  C   UNL     1       0.164  -0.301   0.246  0.00  0.00    +0.050 C 
ATOM      3  C   UNL     1      -1.348  -0.569   0.095  0.00  0.00    +0.017 C 
ATOM      4  C   UNL     1      -1.631  -1.724   1.088  0.00  0.00    +0.016 C 
ATOM      5  C   UNL     1      -0.720  -1.372   2.290  0.00  0.00    +0.104 C 
ATOM      6  C   UNL     1       0.563  -0.812   1.642  0.00  0.00    -0.008 C 
ATOM      7  C   UNL     1       1.612  -1.918   1.515  0.00  0.00    +0.013 C 
ATOM      8  C   UNL     1       1.115   0.341   2.483  0.00  0.00    +0.013 C 
ENDROOT
BRANCH   2   9
ATOM      9  C   UNL     1       0.930  -1.048  -0.815  0.00  0.00    +0.219 C 
ATOM     10  O   UNL     1       0.352  -1.821  -1.549  0.00  0.00    -0.275 OA
ATOM     11  N   UNL     1       2.257  -0.856  -0.948  0.00  0.00    -0.318 N 
ATOM     12  C   UNL     1       3.020  -1.658  -1.907  0.00  0.00    +0.128 C 
ATOM     13  H   UNL     1       2.707  -0.187  -0.409  0.00  0.00    +0.148 HD
ENDBRANCH   2   9
BRANCH   5  14
ATOM     14  C   UNL     1      -0.411  -2.606   3.097  0.00  0.00    +0.310 C 
ATOM     15  O   UNL     1      -0.298  -3.676   2.546  0.00  0.00    -0.251 OA
BRANCH  14  16
ATOM     16  O   UNL     1      -0.262  -2.518   4.428  0.00  0.00    -0.468 OA
ATOM     17  C   UNL     1       0.031  -3.728   5.130  0.00  0.00    +0.280 C 
ENDBRANCH  14  16
ENDBRANCH   5  14
TORSDOF 3
