REMARK  Name = ZINC39522132
REMARK  5 active torsions:
REMARK  status: ('A' for Active; 'I' for Inactive)
REMARK    1  A    between atoms: C_1  and  S_2
REMARK    2  A    between atoms: S_2  and  N_3
REMARK    3  A    between atoms: C_4  and  C_17
REMARK    4  A    between atoms: C_13  and  O_16
REMARK    5  A    between atoms: C_22  and  O_23
REMARK                            x       y       z     vdW  Elec       q    Type
REMARK                         _______ _______ _______ _____ _____    ______ ____
ROOT
ATOM      1  N   UNL     1      -1.120  -0.400   1.381  0.00  0.00    -0.236 NA
ATOM      2  C   UNL     1      -2.361   0.354   1.185  0.00  0.00    +0.102 C 
ATOM      3  C   UNL     1      -3.107  -0.178  -0.040  0.00  0.00    +0.025 C 
ATOM      4  C   UNL     1      -3.356  -1.678   0.138  0.00  0.00    +0.004 C 
ATOM      5  C   UNL     1      -2.018  -2.386   0.346  0.00  0.00    +0.023 C 
ATOM      6  C   UNL     1      -1.334  -1.821   1.618  0.00  0.00    +0.035 C 
ATOM      7  C   UNL     1      -0.023  -2.586   1.765  0.00  0.00    +0.023 C 
ATOM      8  C   UNL     1       0.627  -2.441   3.131  0.00  0.00    +0.004 C 
ATOM      9  C   UNL     1      -0.370  -2.806   4.233  0.00  0.00    +0.031 C 
ATOM     10  C   UNL     1      -1.582  -1.878   4.136  0.00  0.00    +0.116 C 
ATOM     11  C   UNL     1      -2.271  -2.076   2.790  0.00  0.00    +0.054 C 
ENDROOT
BRANCH   2  12
ATOM     12  C   UNL     1      -2.029   1.808   0.968  0.00  0.00    +0.012 A 
ATOM     13  C   UNL     1      -1.775   2.276  -0.307  0.00  0.00    +0.009 A 
ATOM     14  C   UNL     1      -1.470   3.609  -0.508  0.00  0.00    +0.001 A 
ATOM     15  C   UNL     1      -1.418   4.478   0.567  0.00  0.00    +0.004 A 
ATOM     16  C   UNL     1      -1.672   4.016   1.843  0.00  0.00    +0.046 A 
ATOM     17  C   UNL     1      -1.984   2.679   2.046  0.00  0.00    +0.122 A 
BRANCH  17  18
ATOM     18  O   UNL     1      -2.239   2.223   3.301  0.00  0.00    -0.506 OA
ATOM     19  H   UNL     1      -1.455   1.911   3.773  0.00  0.00    +0.292 HD
ENDBRANCH  17  18
ENDBRANCH   2  12
BRANCH   1  21
ATOM     20  C   UNL     1       0.804   1.645   1.556  0.00  0.00    +0.103 C 
ATOM     21  S   UNL     1      -0.063   0.391   2.539  0.00  0.00    -0.080 S 
ENDBRANCH   1  21
BRANCH  10  22
ATOM     22  O   UNL     1      -2.501  -2.199   5.188  0.00  0.00    -0.392 OA
ATOM     23  H   UNL     1      -2.131  -2.100   6.076  0.00  0.00    +0.210 HD
ENDBRANCH  10  22
TORSDOF 4
