REMARK  Name = ZINC38604404
REMARK  12 active torsions:
REMARK  status: ('A' for Active; 'I' for Inactive)
REMARK    1  A    between atoms: C_1  and  C_2
REMARK    2  A    between atoms: C_2  and  N_3
REMARK    3  A    between atoms: N_3  and  C_4
REMARK    4  A    between atoms: N_3  and  S_6
REMARK    5  A    between atoms: C_4  and  C_5
REMARK    6  A    between atoms: S_6  and  C_9
REMARK    7  A    between atoms: C_12  and  C_15
REMARK    8  A    between atoms: N_17  and  C_18
REMARK    9  A    between atoms: C_18  and  C_19
REMARK   10  A    between atoms: C_19  and  C_21
REMARK   11  A    between atoms: C_19  and  N_26
REMARK   12  A    between atoms: N_29  and  C_32
REMARK                            x       y       z     vdW  Elec       q    Type
REMARK                         _______ _______ _______ _____ _____    ______ ____
ROOT
ATOM      1  C   UNL     1      -8.188   5.356   3.159  0.00  0.00    +0.017 C 
ENDROOT
BRANCH   1   2
ATOM      2  N   UNL     1      -8.829   4.110   3.600  0.00  0.00    +0.389 N 
ATOM      3  C   UNL     1     -10.149   3.990   2.966  0.00  0.00    -0.059 C 
ATOM      4  C   UNL     1     -10.866   2.752   3.513  0.00  0.00    +0.086 C 
ATOM      5  N   UNL     1      -9.992   1.584   3.321  0.00  0.00    -0.333 N 
ATOM      6  C   UNL     1      -8.598   1.678   3.781  0.00  0.00    +0.086 C 
ATOM      7  C   UNL     1      -7.988   2.968   3.222  0.00  0.00    -0.059 C 
ATOM      8  H   UNL     1      -8.941   4.128   4.603  0.00  0.00    -0.081 HD
BRANCH   5   9
ATOM      9  C   UNL     1     -10.472   0.418   2.717  0.00  0.00    +0.030 A 
ATOM     10  C   UNL     1      -9.604  -0.629   2.438  0.00  0.00    +0.026 A 
ATOM     11  C   UNL     1     -10.080  -1.780   1.842  0.00  0.00    +0.040 A 
ATOM     12  C   UNL     1     -11.423  -1.891   1.522  0.00  0.00    +0.124 A 
ATOM     13  C   UNL     1     -12.291  -0.848   1.799  0.00  0.00    +0.040 A 
ATOM     14  C   UNL     1     -11.819   0.303   2.400  0.00  0.00    +0.026 A 
ATOM     15  F   UNL     1     -11.887  -3.017   0.939  0.00  0.00    -0.205 F 
ENDBRANCH   5   9
ENDBRANCH   1   2
BRANCH   1  16
ATOM     16  C   UNL     1      -8.998   6.534   3.634  0.00  0.00    +0.093 A 
ATOM     17  C   UNL     1      -9.253   7.650   2.928  0.00  0.00    +0.043 A 
ATOM     18  C   UNL     1     -10.043   8.485   3.751  0.00  0.00    +0.041 A 
ATOM     19  C   UNL     1     -10.223   7.829   4.912  0.00  0.00    +0.195 A 
ATOM     20  O   UNL     1      -9.593   6.646   4.833  0.00  0.00    -0.469 OA
ENDBRANCH   1  16
BRANCH   1  21
ATOM     21  C   UNL     1      -6.777   5.438   3.745  0.00  0.00    +0.097 C 
BRANCH  21  24
ATOM     22  C   UNL     1      -5.707   5.218   5.923  0.00  0.00    +0.244 C 
ATOM     23  O   UNL     1      -4.628   5.289   5.367  0.00  0.00    -0.270 OA
ATOM     24  N   UNL     1      -6.842   5.282   5.200  0.00  0.00    -0.312 N 
ATOM     25  H   UNL     1      -7.703   5.226   5.643  0.00  0.00    +0.149 HD
BRANCH  22  29
ATOM     26  C   UNL     1      -5.897   4.768  10.142  0.00  0.00    +0.106 A 
ATOM     27  C   UNL     1      -4.667   4.848   9.513  0.00  0.00    +0.029 A 
ATOM     28  C   UNL     1      -4.598   4.994   8.143  0.00  0.00    +0.015 A 
ATOM     29  C   UNL     1      -5.773   5.061   7.391  0.00  0.00    +0.037 A 
ATOM     30  C   UNL     1      -7.010   4.980   8.033  0.00  0.00    +0.015 A 
ATOM     31  C   UNL     1      -7.064   4.828   9.403  0.00  0.00    +0.029 A 
BRANCH  26  32
ATOM     32  S   UNL     1      -5.976   4.582  11.893  0.00  0.00    +0.061 S 
ATOM     33  O   UNL     1      -7.246   5.073  12.296  0.00  0.00    -0.153 OA
ATOM     34  O   UNL     1      -4.759   5.100  12.412  0.00  0.00    -0.153 OA
BRANCH  32  35
ATOM     35  N   UNL     1      -5.973   2.957  12.213  0.00  0.00    -0.177 NA
BRANCH  35  37
ATOM     36  C   UNL     1      -4.257   1.622  11.092  0.00  0.00    +0.022 C 
ATOM     37  C   UNL     1      -4.704   2.252  12.413  0.00  0.00    +0.106 C 
ENDBRANCH  35  37
BRANCH  35  38
ATOM     38  C   UNL     1      -7.239   2.224  12.295  0.00  0.00    +0.106 C 
ATOM     39  C   UNL     1      -7.685   2.140  13.757  0.00  0.00    +0.022 C 
ENDBRANCH  35  38
ENDBRANCH  32  35
ENDBRANCH  26  32
ENDBRANCH  22  29
ENDBRANCH  21  24
ENDBRANCH   1  21
TORSDOF 10
