REMARK  Name = ZINC05451828
REMARK  6 active torsions:
REMARK  status: ('A' for Active; 'I' for Inactive)
REMARK    1  A    between atoms: C_1  and  C_2
REMARK    2  A    between atoms: C_5  and  N_8
REMARK    3  A    between atoms: C_9  and  C_25
REMARK    4  A    between atoms: N_13  and  C_17
REMARK    5  A    between atoms: C_18  and  C_24
REMARK    6  A    between atoms: C_22  and  C_23
REMARK                            x       y       z     vdW  Elec       q    Type
REMARK                         _______ _______ _______ _____ _____    ______ ____
ROOT
ATOM      1  N   UNL     1      -2.668   2.915   4.676  0.00  0.00    -0.251 N 
ATOM      2  C   UNL     1      -4.085   3.240   4.589  0.00  0.00    +0.233 C 
ATOM      3  C   UNL     1      -4.514   4.120   5.722  0.00  0.00    +0.249 C 
ATOM      4  O   UNL     1      -5.539   4.758   5.606  0.00  0.00    -0.273 OA
ATOM      5  N   UNL     1      -3.813   4.235   6.854  0.00  0.00    -0.260 N 
ATOM      6  C   UNL     1      -2.572   3.510   7.091  0.00  0.00    +0.210 C 
ATOM      7  C   UNL     1      -1.965   3.034   5.806  0.00  0.00    +0.239 C 
ATOM      8  O   UNL     1      -0.787   2.746   5.791  0.00  0.00    -0.273 OA
ENDROOT
BRANCH   5   9
ATOM      9  C   UNL     1      -4.292   5.088   7.854  0.00  0.00    +0.043 A 
ATOM     10  C   UNL     1      -5.157   4.604   8.827  0.00  0.00    -0.029 A 
ATOM     11  C   UNL     1      -5.622   5.448   9.816  0.00  0.00    +0.005 A 
ATOM     12  C   UNL     1      -5.238   6.776   9.832  0.00  0.00    +0.001 A 
ATOM     13  C   UNL     1      -4.381   7.262   8.862  0.00  0.00    +0.005 A 
ATOM     14  C   UNL     1      -3.907   6.423   7.873  0.00  0.00    -0.029 A 
ATOM     15  C   UNL     1      -2.974   6.954   6.816  0.00  0.00    +0.045 C 
ATOM     16  C   UNL     1      -5.582   3.159   8.806  0.00  0.00    +0.045 C 
ENDBRANCH   5   9
BRANCH   1  21
ATOM     17  C   UNL     1      -0.014   1.088   0.007  0.00  0.00    +0.044 C 
ATOM     18  C   UNL     1      -0.719   1.573   1.247  0.00  0.00    -0.050 A 
ATOM     19  C   UNL     1      -0.857   2.930   1.476  0.00  0.00    +0.005 A 
ATOM     20  C   UNL     1      -1.507   3.378   2.609  0.00  0.00    +0.024 A 
ATOM     21  C   UNL     1      -2.013   2.465   3.524  0.00  0.00    +0.038 A 
ATOM     22  C   UNL     1      -1.868   1.103   3.294  0.00  0.00    +0.024 A 
ATOM     23  C   UNL     1      -1.222   0.661   2.157  0.00  0.00    +0.005 A 
ENDBRANCH   1  21
BRANCH   2  24
ATOM     24  C   UNL     1      -4.887   1.965   4.629  0.00  0.00    +0.135 A 
ATOM     25  C   UNL     1      -5.983   1.701   3.895  0.00  0.00    +0.047 A 
ATOM     26  C   UNL     1      -6.408   0.399   4.247  0.00  0.00    +0.041 A 
ATOM     27  C   UNL     1      -5.552  -0.051   5.182  0.00  0.00    +0.195 A 
ATOM     28  O   UNL     1      -4.633   0.902   5.410  0.00  0.00    -0.465 OA
ENDBRANCH   2  24
TORSDOF 3
