REMARK  Name = ZINC03198298
REMARK  8 active torsions:
REMARK  status: ('A' for Active; 'I' for Inactive)
REMARK    1  A    between atoms: C_1  and  C_2
REMARK    2  A    between atoms: C_2  and  N_3
REMARK    3  A    between atoms: N_3  and  C_4
REMARK    4  A    between atoms: N_3  and  C_6
REMARK    5  A    between atoms: C_4  and  C_5
REMARK    6  A    between atoms: C_11  and  C_25
REMARK    7  A    between atoms: N_13  and  N_14
REMARK    8  A    between atoms: C_15  and  C_17
REMARK                            x       y       z     vdW  Elec       q    Type
REMARK                         _______ _______ _______ _____ _____    ______ ____
ROOT
ATOM      1  C   UNL     1      -1.232   1.752   0.017  0.00  0.00    +0.033 A 
ATOM      2  C   UNL     1      -0.013   1.076   0.008  0.00  0.00    +0.024 A 
ATOM      3  C   UNL     1       1.163   1.770   0.001  0.00  0.00    +0.013 A 
ATOM      4  C   UNL     1       1.145   3.171   0.010  0.00  0.00    +0.018 A 
ATOM      5  C   UNL     1       2.396   3.933   0.012  0.00  0.00    +0.030 A 
ATOM      6  C   UNL     1       2.319   5.288   0.296  0.00  0.00    +0.100 A 
ATOM      7  C   UNL     1       0.975   5.845   0.571  0.00  0.00    +0.248 A 
ATOM      8  N   UNL     1       0.824   6.905   1.318  0.00  0.00    -0.141 NA
ATOM      9  O   UNL     1      -0.101   5.215   0.019  0.00  0.00    -0.436 OA
ATOM     10  C   UNL     1      -0.085   3.858   0.021  0.00  0.00    +0.139 A 
ATOM     11  C   UNL     1      -1.267   3.142   0.029  0.00  0.00    +0.070 A 
ENDROOT
BRANCH   6  12
ATOM     12  C   UNL     1       3.520   6.136   0.323  0.00  0.00    +0.247 C 
ATOM     13  O   UNL     1       4.612   5.651   0.093  0.00  0.00    -0.270 OA
ATOM     14  N   UNL     1       3.412   7.450   0.602  0.00  0.00    -0.325 N 
ATOM     15  H   UNL     1       2.541   7.837   0.785  0.00  0.00    +0.145 HD
ATOM     16  H   UNL     1       4.204   8.009   0.619  0.00  0.00    +0.145 HD
ENDBRANCH   6  12
BRANCH   8  17
ATOM     17  N   UNL     1      -0.458   7.413   1.563  0.00  0.00    -0.199 N 
ATOM     18  C   UNL     1      -0.614   8.507   2.334  0.00  0.00    +0.270 C 
ATOM     19  O   UNL     1       0.361   9.055   2.817  0.00  0.00    -0.268 OA
ATOM     20  H   UNL     1      -1.234   6.976   1.179  0.00  0.00    +0.178 HD
BRANCH  18  21
ATOM     21  C   UNL     1      -1.956   9.038   2.591  0.00  0.00    +0.075 A 
ATOM     22  C   UNL     1      -2.330  10.139   3.346  0.00  0.00    +0.021 A 
ATOM     23  C   UNL     1      -3.672  10.418   3.422  0.00  0.00    +0.008 A 
ATOM     24  C   UNL     1      -4.554   9.618   2.767  0.00  0.00    +0.046 A 
ATOM     25  S   UNL     1      -3.532   8.441   2.008  0.00  0.00    -0.092 S 
ENDBRANCH  18  21
ENDBRANCH   8  17
BRANCH   1  26
ATOM     26  N   UNL     1      -2.422   1.032   0.021  0.00  0.00    -0.330 N 
BRANCH  26  28
ATOM     27  C   UNL     1      -2.373  -0.949   1.454  0.00  0.00    +0.024 C 
ATOM     28  C   UNL     1      -2.391  -0.433   0.014  0.00  0.00    +0.102 C 
ENDBRANCH  26  28
BRANCH  26  29
ATOM     29  C   UNL     1      -3.706   1.737   0.031  0.00  0.00    +0.102 C 
ATOM     30  C   UNL     1      -4.160   1.989  -1.408  0.00  0.00    +0.024 C 
ENDBRANCH  26  29
ENDBRANCH   1  26
TORSDOF 6
