REMARK  Name = ZINC14475525
REMARK  5 active torsions:
REMARK  status: ('A' for Active; 'I' for Inactive)
REMARK    1  A    between atoms: C_1  and  C_2
REMARK    2  A    between atoms: C_2  and  C_3
REMARK    3  A    between atoms: C_3  and  C_4
REMARK    4  A    between atoms: N_6  and  C_7
REMARK    5  A    between atoms: C_20  and  C_23
REMARK                            x       y       z     vdW  Elec       q    Type
REMARK                         _______ _______ _______ _____ _____    ______ ____
ROOT
ATOM      1  C   UNL     1       0.608   2.436  -0.274  0.00  0.00    +0.039 A 
ATOM      2  C   UNL     1      -0.166   1.288  -0.340  0.00  0.00    +0.025 A 
ATOM      3  C   UNL     1      -1.543   1.386  -0.410  0.00  0.00    +0.023 A 
ATOM      4  C   UNL     1      -2.142   2.629  -0.417  0.00  0.00    +0.062 A 
ATOM      5  C   UNL     1      -1.369   3.789  -0.351  0.00  0.00    +0.052 A 
ATOM      6  C   UNL     1       0.008   3.695  -0.272  0.00  0.00    +0.003 A 
ATOM      7  C   UNL     1       0.899   4.899  -0.186  0.00  0.00    +0.050 C 
ATOM      8  C   UNL     1       1.485   5.032   1.201  0.00  0.00    -0.023 C 
ATOM      9  C   UNL     1       1.521   6.289   1.564  0.00  0.00    -0.030 C 
ATOM     10  C   UNL     1       0.970   7.177   0.466  0.00  0.00    +0.033 C 
ATOM     11  C   UNL     1       0.107   6.206  -0.404  0.00  0.00    +0.029 C 
ATOM     12  C   UNL     1      -1.261   6.074   0.271  0.00  0.00    +0.105 C 
ATOM     13  N   UNL     1      -2.030   5.018  -0.368  0.00  0.00    -0.335 N 
ATOM     14 CL   UNL     1      -3.872   2.751  -0.506  0.00  0.00    -0.082 Cl
ATOM     15  H   UNL     1      -2.277   5.283  -1.310  0.00  0.00    +0.147 HD
ENDROOT
BRANCH  12  16
ATOM     16  C   UNL     1      -1.072   5.725   1.725  0.00  0.00    -0.026 A 
ATOM     17  C   UNL     1      -1.234   4.404   2.140  0.00  0.00    +0.006 A 
ATOM     18  C   UNL     1      -1.070   4.055   3.445  0.00  0.00    +0.009 A 
ATOM     19  C   UNL     1      -0.734   5.038   4.391  0.00  0.00    -0.018 A 
ATOM     20  C   UNL     1      -0.556   4.716   5.748  0.00  0.00    +0.008 A 
ATOM     21  C   UNL     1      -0.230   5.694   6.635  0.00  0.00    +0.001 A 
ATOM     22  C   UNL     1      -0.069   7.015   6.220  0.00  0.00    +0.001 A 
ATOM     23  C   UNL     1      -0.233   7.364   4.915  0.00  0.00    +0.008 A 
ATOM     24  C   UNL     1      -0.570   6.381   3.969  0.00  0.00    -0.018 A 
ATOM     25  C   UNL     1      -0.741   6.702   2.612  0.00  0.00    +0.014 A 
ENDBRANCH  12  16
BRANCH   1  28
ATOM     26  C   UNL     1       2.569   1.187   0.230  0.00  0.00    +0.217 C 
ATOM     27  O   UNL     1       1.875   0.287   0.653  0.00  0.00    -0.275 OA
ATOM     28  N   UNL     1       2.001   2.330  -0.202  0.00  0.00    -0.285 N 
ATOM     29  H   UNL     1       2.559   3.079  -0.466  0.00  0.00    +0.155 HD
BRANCH  26  30
ATOM     30  C   UNL     1       4.067   1.026   0.187  0.00  0.00    +0.096 C 
BRANCH  30  32
ATOM     31  C   UNL     1       5.968  -0.516   0.686  0.00  0.00    +0.004 C 
ATOM     32  C   UNL     1       4.448  -0.353   0.730  0.00  0.00    +0.006 C 
ENDBRANCH  30  32
ENDBRANCH  26  30
ENDBRANCH   1  28
TORSDOF 4
