REMARK  Name = ZINC20413822
REMARK  7 active torsions:
REMARK  status: ('A' for Active; 'I' for Inactive)
REMARK    1  A    between atoms: C_1  and  C_2
REMARK    2  A    between atoms: C_3  and  C_27
REMARK    3  A    between atoms: C_4  and  C_14
REMARK    4  A    between atoms: C_9  and  S_11
REMARK    5  A    between atoms: S_11  and  C_12
REMARK    6  A    between atoms: C_18  and  O_20
REMARK    7  A    between atoms: O_20  and  C_21
REMARK                            x       y       z     vdW  Elec       q    Type
REMARK                         _______ _______ _______ _____ _____    ______ ____
ROOT
ATOM      1  C   UNL     1       0.744   3.746   0.211  0.00  0.00    +0.061 C 
ATOM      2  C   UNL     1       0.842   2.243   0.173  0.00  0.00    +0.018 C 
ATOM      3  C   UNL     1      -0.287   1.520   0.142  0.00  0.00    +0.060 C 
ATOM      4  C   UNL     1      -0.299   0.015   0.115  0.00  0.00    +0.177 C 
ATOM      5  N   UNL     1       1.048  -0.477  -0.164  0.00  0.00    -0.220 N 
ATOM      6  C   UNL     1       2.155   0.305  -0.127  0.00  0.00    +0.219 A 
ATOM      7  N   UNL     1       3.188  -0.440  -0.415  0.00  0.00    -0.187 NA
ATOM      8  C   UNL     1       2.783  -1.698  -0.645  0.00  0.00    +0.210 A 
ATOM      9  N   UNL     1       1.476  -1.760  -0.502  0.00  0.00    -0.141 NA
ATOM     10  N   UNL     1       2.085   1.659   0.172  0.00  0.00    -0.287 N 
ATOM     11  H   UNL     1       2.976   2.261   0.401  0.00  0.00    +0.155 HD
ENDROOT
BRANCH   4  12
ATOM     12  C   UNL     1      -0.758  -0.508   1.451  0.00  0.00    -0.015 A 
ATOM     13  C   UNL     1      -0.046  -0.200   2.596  0.00  0.00    +0.006 A 
ATOM     14  C   UNL     1      -0.465  -0.678   3.823  0.00  0.00    +0.004 A 
ATOM     15  C   UNL     1      -1.597  -1.466   3.909  0.00  0.00    +0.046 A 
ATOM     16  C   UNL     1      -2.314  -1.776   2.762  0.00  0.00    +0.129 A 
ATOM     17  C   UNL     1      -1.894  -1.290   1.532  0.00  0.00    +0.052 A 
BRANCH  16  18
ATOM     18  O   UNL     1      -3.427  -2.550   2.844  0.00  0.00    -0.456 OA
BRANCH  18  19
ATOM     19  C   UNL     1      -3.334  -3.847   2.448  0.00  0.00    +0.128 A 
ATOM     20  C   UNL     1      -2.103  -4.376   2.087  0.00  0.00    +0.046 A 
ATOM     21  C   UNL     1      -2.010  -5.696   1.690  0.00  0.00    +0.004 A 
ATOM     22  C   UNL     1      -3.143  -6.486   1.640  0.00  0.00    +0.000 A 
ATOM     23  C   UNL     1      -4.372  -5.959   1.994  0.00  0.00    +0.004 A 
ATOM     24  C   UNL     1      -4.470  -4.642   2.397  0.00  0.00    +0.046 A 
ENDBRANCH  18  19
ENDBRANCH  16  18
ENDBRANCH   4  12
BRANCH   3  25
ATOM     25  C   UNL     1      -1.525   2.205   0.128  0.00  0.00    +0.241 C 
ATOM     26  O   UNL     1      -1.554   3.415   0.261  0.00  0.00    -0.271 OA
ATOM     27  N   UNL     1      -2.673   1.517  -0.032  0.00  0.00    -0.325 N 
ATOM     28  H   UNL     1      -3.636   2.049  -0.042  0.00  0.00    +0.145 HD
ATOM     29  H   UNL     1      -2.648   0.424  -0.151  0.00  0.00    +0.145 HD
ENDBRANCH   3  25
BRANCH   8  30
ATOM     30  S   UNL     1       3.831  -3.048  -1.070  0.00  0.00    -0.088 S 
ATOM     31  C   UNL     1       5.492  -2.320  -1.108  0.00  0.00    +0.093 C 
ENDBRANCH   8  30
TORSDOF 5
