REMARK  Name = ZINC32722780
REMARK  7 active torsions:
REMARK  status: ('A' for Active; 'I' for Inactive)
REMARK    1  A    between atoms: C_1  and  C_2
REMARK    2  A    between atoms: C_2  and  O_3
REMARK    3  A    between atoms: O_3  and  C_4
REMARK    4  A    between atoms: C_12  and  S_14
REMARK    5  A    between atoms: S_14  and  C_15
REMARK    6  A    between atoms: C_15  and  C_16
REMARK    7  A    between atoms: C_18  and  C_21
REMARK                            x       y       z     vdW  Elec       q    Type
REMARK                         _______ _______ _______ _____ _____    ______ ____
ROOT
ATOM      1  S   UNL     1       0.374   0.834   8.642  0.00  0.00    -0.078 S 
ENDROOT
BRANCH   1  10
ATOM      2  C   UNL     1      -0.148   1.182   2.380  0.00  0.00    +0.123 A 
ATOM      3  C   UNL     1       0.998   0.395   2.416  0.00  0.00    +0.048 A 
ATOM      4  C   UNL     1       1.548   0.018   3.621  0.00  0.00    +0.033 A 
ATOM      5  C   UNL     1       0.953   0.429   4.816  0.00  0.00    +0.090 A 
ATOM      6  C   UNL     1      -0.204   1.224   4.776  0.00  0.00    +0.070 A 
ATOM      7  C   UNL     1      -0.746   1.600   3.557  0.00  0.00    +0.073 A 
ATOM      8  N   UNL     1      -0.552   1.465   6.096  0.00  0.00    -0.333 N 
ATOM      9  H   UNL     1      -1.438   2.075   6.328  0.00  0.00    +0.168 HD
ATOM     10  C   UNL     1       0.371   0.832   6.880  0.00  0.00    +0.168 A 
ATOM     11  N   UNL     1       1.254   0.225   6.127  0.00  0.00    -0.222 NA
BRANCH   2  12
ATOM     12  O   UNL     1      -0.682   1.547   1.184  0.00  0.00    -0.492 OA
BRANCH  12  14
ATOM     13  C   UNL     1      -0.753   1.593  -1.232  0.00  0.00    +0.048 C 
ATOM     14  C   UNL     1      -0.013   1.086   0.008  0.00  0.00    +0.225 C 
ENDBRANCH  12  14
ENDBRANCH   2  12
ENDBRANCH   1  10
BRANCH   1  15
ATOM     15  C   UNL     1       1.843  -0.176   8.955  0.00  0.00    +0.176 C 
BRANCH  15  16
ATOM     16  C   UNL     1       2.050  -0.315  10.441  0.00  0.00    +0.238 A 
ATOM     17  N   UNL     1       1.555  -1.252  11.211  0.00  0.00    -0.191 NA
ATOM     18  C   UNL     1       2.005  -0.975  12.456  0.00  0.00    +0.202 A 
ATOM     19  N   UNL     1       2.733   0.108  12.371  0.00  0.00    -0.056 NA
ATOM     20  O   UNL     1       2.768   0.498  11.223  0.00  0.00    -0.337 OA
BRANCH  18  21
ATOM     21  C   UNL     1       1.720  -1.751  13.688  0.00  0.00    +0.023 A 
ATOM     22  C   UNL     1       0.918  -2.889  13.629  0.00  0.00    +0.013 A 
ATOM     23  C   UNL     1       0.661  -3.610  14.777  0.00  0.00    +0.021 A 
ATOM     24  C   UNL     1       1.190  -3.198  15.988  0.00  0.00    +0.041 A 
ATOM     25  C   UNL     1       1.983  -2.065  16.054  0.00  0.00    +0.021 A 
ATOM     26  C   UNL     1       2.250  -1.341  14.910  0.00  0.00    +0.013 A 
ATOM     27 CL   UNL     1       0.856  -4.105  17.430  0.00  0.00    -0.084 Cl
ENDBRANCH  18  21
ENDBRANCH  15  16
ENDBRANCH   1  15
TORSDOF 6
