REMARK  Name = ZINC66120578
REMARK  6 active torsions:
REMARK  status: ('A' for Active; 'I' for Inactive)
REMARK    1  A    between atoms: C_4  and  C_8
REMARK    2  A    between atoms: C_8  and  C_9
REMARK    3  A    between atoms: C_9  and  N_10
REMARK    4  A    between atoms: C_17  and  C_20
REMARK    5  A    between atoms: C_20  and  C_21
REMARK    6  A    between atoms: C_21  and  C_22
REMARK                            x       y       z     vdW  Elec       q    Type
REMARK                         _______ _______ _______ _____ _____    ______ ____
ROOT
ATOM      1  N   UNL     1       5.453  -1.679   1.381  0.00  0.00    -0.299 N 
ATOM      2  C   UNL     1       6.054  -2.013   2.540  0.00  0.00    +0.302 C 
ATOM      3  O   UNL     1       5.582  -1.643   3.598  0.00  0.00    -0.253 OA
ATOM      4  N   UNL     1       7.177  -2.758   2.527  0.00  0.00    -0.285 N 
ATOM      5  C   UNL     1       7.824  -3.114   1.257  0.00  0.00    +0.109 C 
ATOM      6  C   UNL     1       8.006  -4.634   1.206  0.00  0.00    +0.019 C 
ATOM      7  C   UNL     1       8.769  -5.094   2.451  0.00  0.00    +0.006 C 
ATOM      8  C   UNL     1       7.962  -4.746   3.704  0.00  0.00    +0.007 C 
ATOM      9  C   UNL     1       7.782  -3.223   3.783  0.00  0.00    +0.112 C 
ATOM     10  H   UNL     1       5.868  -1.911   0.535  0.00  0.00    +0.150 HD
ENDROOT
BRANCH   1  11
ATOM     11  C   UNL     1       4.174  -0.966   1.398  0.00  0.00    +0.110 C 
BRANCH  11  12
ATOM     12  C   UNL     1       3.713  -0.710  -0.038  0.00  0.00    +0.059 C 
BRANCH  12  16
ATOM     13  C   UNL     1      -0.021   1.371   0.010  0.00  0.00    +0.006 A 
ATOM     14  C   UNL     1       1.165   2.081   0.002  0.00  0.00    +0.039 A 
ATOM     15  C   UNL     1       2.375   1.408  -0.013  0.00  0.00    +0.129 A 
ATOM     16  C   UNL     1       2.397   0.024  -0.021  0.00  0.00    +0.024 A 
ATOM     17  C   UNL     1       1.208  -0.686  -0.013  0.00  0.00    +0.129 A 
ATOM     18  C   UNL     1      -0.000  -0.011   0.003  0.00  0.00    +0.039 A 
ATOM     19  F   UNL     1       1.228  -2.037  -0.020  0.00  0.00    -0.205 F 
ATOM     20  F   UNL     1       3.535   2.101  -0.022  0.00  0.00    -0.205 F 
ENDBRANCH  12  16
ENDBRANCH  11  12
ENDBRANCH   1  11
BRANCH   8  21
ATOM     21  C   UNL     1       8.709  -5.237   4.945  0.00  0.00    +0.014 C 
BRANCH  21  22
ATOM     22  C   UNL     1       7.846  -5.000   6.186  0.00  0.00    +0.096 C 
BRANCH  22  23
ATOM     23  C   UNL     1       8.583  -5.483   7.409  0.00  0.00    +0.210 C 
ATOM     24  O   UNL     1       9.689  -5.968   7.299  0.00  0.00    -0.276 OA
ATOM     25  N   UNL     1       8.012  -5.376   8.626  0.00  0.00    -0.329 N 
ATOM     26  H   UNL     1       7.127  -4.988   8.714  0.00  0.00    +0.145 HD
ATOM     27  H   UNL     1       8.486  -5.687   9.413  0.00  0.00    +0.145 HD
ENDBRANCH  22  23
ENDBRANCH  21  22
ENDBRANCH   8  21
TORSDOF 6
