REMARK  Name = ZINC63136797
REMARK  9 active torsions:
REMARK  status: ('A' for Active; 'I' for Inactive)
REMARK    1  A    between atoms: C_1  and  O_2
REMARK    2  A    between atoms: O_2  and  C_3
REMARK    3  A    between atoms: C_9  and  C_12
REMARK    4  A    between atoms: C_12  and  C_13
REMARK    5  A    between atoms: C_13  and  N_14
REMARK    6  A    between atoms: C_15  and  C_17
REMARK    7  A    between atoms: C_17  and  C_18
REMARK    8  A    between atoms: C_18  and  N_19
REMARK    9  A    between atoms: C_23  and  C_24
REMARK                            x       y       z     vdW  Elec       q    Type
REMARK                         _______ _______ _______ _____ _____    ______ ____
ROOT
ATOM      1  N   UNL     1      -0.944  -6.485   4.120  0.00  0.00    -0.315 N 
ATOM      2  C   UNL     1      -0.628  -7.466   4.988  0.00  0.00    +0.215 C 
ATOM      3  O   UNL     1      -1.142  -7.494   6.086  0.00  0.00    -0.276 OA
ATOM      4  H   UNL     1      -0.533  -6.463   3.242  0.00  0.00    +0.149 HD
ENDROOT
BRANCH   1   5
ATOM      5  C   UNL     1      -1.910  -5.452   4.502  0.00  0.00    +0.108 C 
BRANCH   5   6
ATOM      6  C   UNL     1      -2.089  -4.467   3.345  0.00  0.00    +0.052 C 
BRANCH   6  13
ATOM      7  C   UNL     1      -1.585  -0.259   5.115  0.00  0.00    +0.121 A 
ATOM      8  C   UNL     1      -2.792   0.427   5.341  0.00  0.00    +0.047 A 
ATOM      9  C   UNL     1      -3.998  -0.112   5.060  0.00  0.00    +0.029 A 
ATOM     10  C   UNL     1      -4.077  -1.463   4.496  0.00  0.00    +0.043 A 
ATOM     11  N   UNL     1      -5.096  -2.205   4.140  0.00  0.00    -0.380 N 
ATOM     12  C   UNL     1      -4.589  -3.485   3.634  0.00  0.00    +0.144 C 
ATOM     13  C   UNL     1      -3.082  -3.404   3.739  0.00  0.00    -0.040 C 
ATOM     14  C   UNL     1      -2.807  -2.186   4.256  0.00  0.00    +0.002 A 
ATOM     15  C   UNL     1      -1.550  -1.508   4.593  0.00  0.00    +0.055 A 
ATOM     16  H   UNL     1      -6.031  -1.950   4.201  0.00  0.00    +0.160 HD
BRANCH   7  18
ATOM     17  C   UNL     1      -0.497   1.673   5.974  0.00  0.00    +0.277 C 
ATOM     18  O   UNL     1      -0.413   0.356   5.426  0.00  0.00    -0.495 OA
ENDBRANCH   7  18
ENDBRANCH   6  13
ENDBRANCH   5   6
ENDBRANCH   1   5
BRANCH   2  19
ATOM     19  C   UNL     1       0.366  -8.528   4.594  0.00  0.00    +0.115 C 
BRANCH  19  20
ATOM     20  C   UNL     1       0.544  -9.514   5.752  0.00  0.00    +0.127 C 
BRANCH  20  21
ATOM     21  N   UNL     1       1.510 -10.546   5.369  0.00  0.00    -0.228 N 
ATOM     22  C   UNL     1       1.078 -11.647   4.777  0.00  0.00    +0.260 C 
ATOM     23  O   UNL     1      -0.102 -11.826   4.541  0.00  0.00    -0.269 OA
ATOM     24  C   UNL     1       2.103 -12.650   4.417  0.00  0.00    +0.080 C 
ATOM     25  C   UNL     1       1.959 -13.854   3.810  0.00  0.00    +0.028 C 
ATOM     26  S   UNL     1       3.585 -11.838   5.000  0.00  0.00    -0.026 S 
ATOM     27  C   UNL     1       2.820 -10.350   5.624  0.00  0.00    +0.286 C 
ATOM     28  O   UNL     1       3.351  -9.392   6.152  0.00  0.00    -0.262 OA
BRANCH  25  29
ATOM     29  C   UNL     1       3.103 -14.773   3.718  0.00  0.00    -0.024 A 
ATOM     30  C   UNL     1       4.285 -14.495   4.413  0.00  0.00    +0.008 A 
ATOM     31  C   UNL     1       5.354 -15.362   4.321  0.00  0.00    +0.001 A 
ATOM     32  C   UNL     1       5.259 -16.504   3.545  0.00  0.00    +0.000 A 
ATOM     33  C   UNL     1       4.093 -16.785   2.855  0.00  0.00    +0.001 A 
ATOM     34  C   UNL     1       3.013 -15.932   2.940  0.00  0.00    +0.008 A 
ENDBRANCH  25  29
ENDBRANCH  20  21
ENDBRANCH  19  20
ENDBRANCH   2  19
TORSDOF 8
