REMARK  Name = ZINC36205345
REMARK  11 active torsions:
REMARK  status: ('A' for Active; 'I' for Inactive)
REMARK    1  A    between atoms: C_1  and  C_2
REMARK    2  A    between atoms: C_5  and  C_9
REMARK    3  A    between atoms: C_7  and  C_8
REMARK    4  A    between atoms: C_18  and  C_20
REMARK    5  A    between atoms: C_20  and  N_21
REMARK    6  A    between atoms: N_21  and  C_22
REMARK    7  A    between atoms: N_21  and  C_33
REMARK    8  A    between atoms: C_22  and  C_23
REMARK    9  A    between atoms: C_23  and  C_25
REMARK   10  A    between atoms: C_23  and  O_32
REMARK   11  A    between atoms: C_25  and  C_26
REMARK                            x       y       z     vdW  Elec       q    Type
REMARK                         _______ _______ _______ _____ _____    ______ ____
ROOT
ATOM      1  C   UNL     1      -0.216  -4.707   0.665  0.00  0.00    +0.004 A 
ATOM      2  C   UNL     1       0.715  -5.426   1.337  0.00  0.00    +0.056 A 
ATOM      3  S   UNL     1       0.458  -7.088   0.747  0.00  0.00    -0.076 S 
ATOM      4  C   UNL     1      -0.881  -6.783  -0.377  0.00  0.00    +0.116 A 
ATOM      5  C   UNL     1      -1.101  -5.400  -0.264  0.00  0.00    +0.080 A 
ATOM      6  C   UNL     1      -2.154  -4.872  -1.077  0.00  0.00    +0.260 A 
ATOM      7  O   UNL     1      -2.418  -3.682  -1.052  0.00  0.00    -0.267 OA
ATOM      8  N   UNL     1      -2.849  -5.709  -1.870  0.00  0.00    -0.312 N 
ATOM      9  H   UNL     1      -3.563  -5.356  -2.423  0.00  0.00    +0.170 HD
ATOM     10  C   UNL     1      -2.568  -7.037  -1.911  0.00  0.00    +0.094 A 
ATOM     11  N   UNL     1      -1.607  -7.546  -1.189  0.00  0.00    -0.229 NA
ENDROOT
BRANCH   1  16
ATOM     12  C   UNL     1      -0.689   0.973   1.480  0.00  0.00    +0.044 C 
ATOM     13  C   UNL     1      -0.565  -0.513   1.266  0.00  0.00    -0.048 A 
ATOM     14  C   UNL     1      -0.490  -1.021  -0.018  0.00  0.00    +0.004 A 
ATOM     15  C   UNL     1      -0.377  -2.381  -0.220  0.00  0.00    +0.009 A 
ATOM     16  C   UNL     1      -0.338  -3.245   0.875  0.00  0.00    -0.016 A 
ATOM     17  C   UNL     1      -0.413  -2.727   2.167  0.00  0.00    +0.012 A 
ATOM     18  C   UNL     1      -0.521  -1.364   2.356  0.00  0.00    -0.047 A 
ATOM     19  C   UNL     1      -0.597  -0.803   3.752  0.00  0.00    +0.044 C 
ENDBRANCH   1  16
BRANCH  10  20
ATOM     20  C   UNL     1      -3.372  -7.936  -2.815  0.00  0.00    -0.003 C 
BRANCH  20  21
ATOM     21  N   UNL     1      -2.888  -9.317  -2.688  0.00  0.00    +0.388 N 
ATOM     22  H   UNL     1      -1.896  -9.344  -2.873  0.00  0.00    -0.081 HD
BRANCH  21  23
ATOM     23  C   UNL     1      -3.146  -9.803  -1.326  0.00  0.00    -0.068 C 
ATOM     24  C   UNL     1      -1.936 -10.173  -0.467  0.00  0.00    -0.017 C 
ATOM     25  C   UNL     1      -2.838 -11.273  -1.031  0.00  0.00    -0.017 C 
ENDBRANCH  21  23
BRANCH  21  26
ATOM     26  C   UNL     1      -3.589 -10.172  -3.655  0.00  0.00    -0.046 C 
BRANCH  26  27
ATOM     27  C   UNL     1      -3.225  -9.740  -5.077  0.00  0.00    +0.102 C 
BRANCH  27  28
ATOM     28  O   UNL     1      -1.814  -9.864  -5.265  0.00  0.00    -0.393 OA
ATOM     29  H   UNL     1      -1.478 -10.763  -5.145  0.00  0.00    +0.210 HD
ENDBRANCH  27  28
BRANCH  27  30
ATOM     30  C   UNL     1      -3.954 -10.632  -6.083  0.00  0.00    +0.064 C 
BRANCH  30  31
ATOM     31  C   UNL     1      -3.692 -10.131  -7.480  0.00  0.00    -0.045 A 
ATOM     32  C   UNL     1      -4.534  -9.191  -8.046  0.00  0.00    +0.004 A 
ATOM     33  C   UNL     1      -4.294  -8.731  -9.327  0.00  0.00    +0.000 A 
ATOM     34  C   UNL     1      -3.213  -9.211 -10.043  0.00  0.00    +0.000 A 
ATOM     35  C   UNL     1      -2.371 -10.150  -9.477  0.00  0.00    +0.000 A 
ATOM     36  C   UNL     1      -2.608 -10.607  -8.194  0.00  0.00    +0.004 A 
ENDBRANCH  30  31
ENDBRANCH  27  30
ENDBRANCH  26  27
ENDBRANCH  21  26
ENDBRANCH  20  21
ENDBRANCH  10  20
TORSDOF 9
