REMARK  Name = ZINC51928549
REMARK  5 active torsions:
REMARK  status: ('A' for Active; 'I' for Inactive)
REMARK    1  A    between atoms: C_1  and  N_2
REMARK    2  A    between atoms: C_5  and  C_14
REMARK    3  A    between atoms: N_9  and  C_12
REMARK    4  A    between atoms: C_14  and  C_16
REMARK    5  A    between atoms: C_14  and  N_22
REMARK                            x       y       z     vdW  Elec       q    Type
REMARK                         _______ _______ _______ _____ _____    ______ ____
ROOT
ATOM      1  C   UNL     1      -0.115   1.603  -0.302  0.00  0.00    +0.154 C 
ATOM      2  N   UNL     1      -0.055   0.140  -0.350  0.00  0.00    -0.295 N 
ATOM      3  C   UNL     1      -1.147  -0.724  -0.282  0.00  0.00    +0.070 A 
ATOM      4  C   UNL     1      -2.513  -0.522  -0.158  0.00  0.00    +0.031 A 
ATOM      5  C   UNL     1      -3.367  -1.606  -0.116  0.00  0.00    -0.045 A 
ATOM      6  C   UNL     1      -2.864  -2.894  -0.196  0.00  0.00    +0.022 A 
ATOM      7  C   UNL     1      -1.504  -3.105  -0.320  0.00  0.00    +0.043 A 
ATOM      8  C   UNL     1      -0.640  -2.022  -0.363  0.00  0.00    +0.071 A 
ATOM      9  N   UNL     1       0.744  -1.907  -0.479  0.00  0.00    -0.295 N 
ATOM     10  C   UNL     1       1.063  -0.599  -0.473  0.00  0.00    +0.330 A 
ATOM     11  O   UNL     1       2.192  -0.153  -0.564  0.00  0.00    -0.246 OA
ATOM     12  C   UNL     1       1.690  -3.020  -0.593  0.00  0.00    +0.154 C 
ATOM     13 BR   UNL     1      -4.044  -4.371  -0.137  0.00  0.00    -0.050 Br
ENDROOT
BRANCH   5  14
ATOM     14  C   UNL     1      -4.852  -1.387   0.019  0.00  0.00    -0.038 C 
BRANCH  14  15
ATOM     15  C   UNL     1      -5.114   0.034   0.521  0.00  0.00    +0.007 C 
ATOM     16  C   UNL     1      -6.634   0.275   0.729  0.00  0.00    +0.032 C 
ATOM     17  C   UNL     1      -6.612   1.355   1.840  0.00  0.00    +0.160 C 
ATOM     18  O   UNL     1      -5.506   0.999   2.686  0.00  0.00    -0.380 OA
ATOM     19  C   UNL     1      -4.550   0.227   1.945  0.00  0.00    +0.162 C 
ENDBRANCH  14  15
BRANCH  14  20
ATOM     20  N   UNL     1      -5.495  -1.571  -1.289  0.00  0.00    +0.383 N 
ATOM     21  H   UNL     1      -5.115  -0.906  -1.947  0.00  0.00    -0.089 HD
ATOM     22  H   UNL     1      -5.322  -2.508  -1.620  0.00  0.00    -0.089 HD
ATOM     23  H   UNL     1      -6.489  -1.424  -1.199  0.00  0.00    -0.089 HD
ENDBRANCH  14  20
ENDBRANCH   5  14
TORSDOF 3
