REMARK  Name = ZINC64888407
REMARK  9 active torsions:
REMARK  status: ('A' for Active; 'I' for Inactive)
REMARK    1  A    between atoms: C_1  and  C_2
REMARK    2  A    between atoms: C_2  and  N_3
REMARK    3  A    between atoms: C_6  and  C_18
REMARK    4  A    between atoms: N_8  and  C_11
REMARK    5  A    between atoms: C_20  and  C_23
REMARK    6  A    between atoms: C_23  and  C_24
REMARK    7  A    between atoms: C_24  and  C_25
REMARK    8  A    between atoms: N_27  and  C_28
REMARK    9  A    between atoms: C_28  and  C_29
REMARK                            x       y       z     vdW  Elec       q    Type
REMARK                         _______ _______ _______ _____ _____    ______ ____
ROOT
ATOM      1  C   UNL     1      -0.202  -2.322  -4.305  0.00  0.00    +0.228 A 
ATOM      2  N   UNL     1       0.261  -3.198  -5.215  0.00  0.00    -0.190 NA
ATOM      3  C   UNL     1      -0.721  -3.639  -5.949  0.00  0.00    +0.228 A 
ATOM      4  O   UNL     1      -1.855  -3.060  -5.534  0.00  0.00    -0.338 OA
ATOM      5  N   UNL     1      -1.499  -2.207  -4.456  0.00  0.00    -0.054 NA
ENDROOT
BRANCH   1   9
ATOM      6  N   UNL     1       0.764  -0.045  -1.439  0.00  0.00    -0.258 N 
ATOM      7  C   UNL     1      -0.010  -0.676  -2.346  0.00  0.00    +0.286 A 
ATOM      8  O   UNL     1      -1.210  -0.476  -2.378  0.00  0.00    -0.265 OA
ATOM      9  C   UNL     1       0.617  -1.610  -3.296  0.00  0.00    +0.196 A 
ATOM     10  N   UNL     1       1.915  -1.802  -3.232  0.00  0.00    -0.153 NA
ATOM     11  N   UNL     1       2.672  -1.121  -2.272  0.00  0.00    -0.181 N 
ATOM     12  C   UNL     1       2.091  -0.266  -1.412  0.00  0.00    +0.353 A 
ATOM     13  O   UNL     1       2.776   0.314  -0.593  0.00  0.00    -0.244 OA
BRANCH  11  14
ATOM     14  C   UNL     1       4.054  -1.329  -2.208  0.00  0.00    +0.071 A 
ATOM     15  C   UNL     1       4.822  -1.258  -3.364  0.00  0.00    +0.029 A 
ATOM     16  C   UNL     1       6.186  -1.464  -3.298  0.00  0.00    +0.022 A 
ATOM     17  C   UNL     1       6.788  -1.741  -2.083  0.00  0.00    +0.041 A 
ATOM     18  C   UNL     1       6.025  -1.813  -0.930  0.00  0.00    +0.022 A 
ATOM     19  C   UNL     1       4.662  -1.602  -0.989  0.00  0.00    +0.029 A 
ATOM     20 CL   UNL     1       8.503  -2.000  -2.004  0.00  0.00    -0.084 Cl
ENDBRANCH  11  14
BRANCH   6  22
ATOM     21  C   UNL     1       0.148   2.296  -1.086  0.00  0.00    +0.027 C 
ATOM     22  C   UNL     1       0.159   0.888  -0.485  0.00  0.00    +0.127 C 
ENDBRANCH   6  22
ENDBRANCH   1   9
BRANCH   3  23
ATOM     23  C   UNL     1      -0.600  -4.634  -7.074  0.00  0.00    +0.108 C 
BRANCH  23  24
ATOM     24  C   UNL     1      -0.770  -6.051  -6.523  0.00  0.00    +0.105 C 
BRANCH  24  25
ATOM     25  C   UNL     1      -0.650  -7.046  -7.649  0.00  0.00    +0.214 C 
ATOM     26  O   UNL     1      -0.448  -6.659  -8.781  0.00  0.00    -0.276 OA
ATOM     27  N   UNL     1      -0.766  -8.365  -7.398  0.00  0.00    -0.311 N 
ATOM     28  H   UNL     1      -0.928  -8.674  -6.493  0.00  0.00    +0.149 HD
BRANCH  27  29
ATOM     29  C   UNL     1      -0.649  -9.332  -8.492  0.00  0.00    +0.139 C 
BRANCH  29  30
ATOM     30  C   UNL     1      -0.817 -10.728  -7.949  0.00  0.00    -0.030 A 
ATOM     31  C   UNL     1       0.287 -11.434  -7.508  0.00  0.00    +0.008 A 
ATOM     32  C   UNL     1       0.135 -12.714  -7.010  0.00  0.00    +0.038 A 
ATOM     33  C   UNL     1      -1.124 -13.289  -6.952  0.00  0.00    +0.123 A 
ATOM     34  C   UNL     1      -2.228 -12.580  -7.394  0.00  0.00    +0.038 A 
ATOM     35  C   UNL     1      -2.074 -11.299  -7.887  0.00  0.00    +0.008 A 
ATOM     36  F   UNL     1      -1.273 -14.540  -6.465  0.00  0.00    -0.205 F 
ENDBRANCH  29  30
ENDBRANCH  27  29
ENDBRANCH  24  25
ENDBRANCH  23  24
ENDBRANCH   3  23
TORSDOF 8
