REMARK  Name = ZINC20928823
REMARK  8 active torsions:
REMARK  status: ('A' for Active; 'I' for Inactive)
REMARK    1  A    between atoms: C_1  and  C_2
REMARK    2  A    between atoms: C_5  and  N_9
REMARK    3  A    between atoms: C_6  and  C_8
REMARK    4  A    between atoms: N_13  and  S_26
REMARK    5  A    between atoms: C_15  and  C_16
REMARK    6  A    between atoms: C_15  and  C_17
REMARK    7  A    between atoms: N_19  and  C_20
REMARK    8  A    between atoms: S_26  and  C_29
REMARK                            x       y       z     vdW  Elec       q    Type
REMARK                         _______ _______ _______ _____ _____    ______ ____
ROOT
ATOM      1  N   UNL     1      -3.217   3.675  -1.920  0.00  0.00    -0.254 N 
ATOM      2  C   UNL     1      -1.994   4.204  -1.963  0.00  0.00    +0.236 C 
ATOM      3  O   UNL     1      -1.886   5.411  -2.014  0.00  0.00    -0.274 OA
ATOM      4  C   UNL     1      -0.740   3.372  -1.949  0.00  0.00    +0.205 C 
ATOM      5  N   UNL     1      -1.089   1.992  -1.579  0.00  0.00    -0.165 NA
ATOM      6  C   UNL     1      -2.293   1.411  -2.197  0.00  0.00    +0.145 C 
ATOM      7  C   UNL     1      -3.500   2.254  -1.765  0.00  0.00    +0.129 C 
ATOM      8  C   UNL     1      -3.822   1.962  -0.298  0.00  0.00    +0.043 C 
ENDROOT
BRANCH   1  13
ATOM      9  C   UNL     1      -7.634   7.207  -2.369  0.00  0.00    +0.044 C 
ATOM     10  C   UNL     1      -6.461   6.269  -2.250  0.00  0.00    -0.050 A 
ATOM     11  C   UNL     1      -6.048   5.835  -1.003  0.00  0.00    +0.005 A 
ATOM     12  C   UNL     1      -4.974   4.975  -0.890  0.00  0.00    +0.024 A 
ATOM     13  C   UNL     1      -4.307   4.546  -2.031  0.00  0.00    +0.040 A 
ATOM     14  C   UNL     1      -4.720   4.988  -3.280  0.00  0.00    -0.029 A 
ATOM     15  C   UNL     1      -5.799   5.844  -3.387  0.00  0.00    +0.008 A 
ATOM     16  C   UNL     1      -3.995   4.530  -4.520  0.00  0.00    +0.045 C 
ENDBRANCH   1  13
BRANCH   7  17
ATOM     17  C   UNL     1      -4.688   1.889  -2.617  0.00  0.00    +0.238 C 
ATOM     18  O   UNL     1      -4.530   1.254  -3.638  0.00  0.00    -0.273 OA
ATOM     19  N   UNL     1      -5.926   2.268  -2.244  0.00  0.00    -0.311 N 
ATOM     20  H   UNL     1      -6.078   2.786  -1.285  0.00  0.00    +0.149 HD
BRANCH  19  21
ATOM     21  C   UNL     1      -7.071   1.989  -3.115  0.00  0.00    +0.073 C 
ATOM     22  C   UNL     1      -7.203   3.103  -4.155  0.00  0.00    +0.022 C 
ATOM     23  C   UNL     1      -8.399   2.812  -5.065  0.00  0.00    +0.002 C 
ATOM     24  C   UNL     1      -9.675   2.745  -4.224  0.00  0.00    +0.000 C 
ATOM     25  C   UNL     1      -9.543   1.632  -3.183  0.00  0.00    +0.002 C 
ATOM     26  C   UNL     1      -8.347   1.923  -2.274  0.00  0.00    +0.022 C 
ENDBRANCH  19  21
ENDBRANCH   7  17
BRANCH   5  27
ATOM     27  S   UNL     1      -0.161   1.124  -0.516  0.00  0.00    +0.061 S 
ATOM     28  O   UNL     1      -0.401  -0.248  -0.795  0.00  0.00    -0.153 OA
ATOM     29  O   UNL     1       1.140   1.694  -0.555  0.00  0.00    -0.153 OA
BRANCH  27  30
ATOM     30  C   UNL     1      -0.797   1.429   1.099  0.00  0.00    +0.105 A 
ATOM     31  C   UNL     1      -0.301   2.478   1.850  0.00  0.00    +0.028 A 
ATOM     32  C   UNL     1      -0.803   2.720   3.115  0.00  0.00    +0.002 A 
ATOM     33  C   UNL     1      -1.793   1.907   3.633  0.00  0.00    +0.000 A 
ATOM     34  C   UNL     1      -2.285   0.854   2.884  0.00  0.00    +0.002 A 
ATOM     35  C   UNL     1      -1.787   0.615   1.617  0.00  0.00    +0.028 A 
ENDBRANCH  27  30
ENDBRANCH   5  27
TORSDOF 5
