REMARK  Name = ZINC39676765
REMARK  10 active torsions:
REMARK  status: ('A' for Active; 'I' for Inactive)
REMARK    1  A    between atoms: C_1  and  C_2
REMARK    2  A    between atoms: C_2  and  C_4
REMARK    3  A    between atoms: C_2  and  N_12
REMARK    4  A    between atoms: C_8  and  O_10
REMARK    5  A    between atoms: O_10  and  C_11
REMARK    6  A    between atoms: C_13  and  C_15
REMARK    7  A    between atoms: C_26  and  C_28
REMARK    8  A    between atoms: C_31  and  O_38
REMARK    9  A    between atoms: C_32  and  C_34
REMARK   10  A    between atoms: O_38  and  C_39
REMARK                            x       y       z     vdW  Elec       q    Type
REMARK                         _______ _______ _______ _____ _____    ______ ____
ROOT
ATOM      1  C   UNL     1       2.867  -1.317   3.038  0.00  0.00    +0.100 C 
ATOM      2  C   UNL     1       2.241  -2.729   3.093  0.00  0.00    +0.121 C 
ATOM      3  N   UNL     1       3.212  -3.597   2.387  0.00  0.00    -0.296 N 
ATOM      4  C   UNL     1       4.538  -3.093   2.818  0.00  0.00    +0.115 C 
ATOM      5  C   UNL     1       4.375  -1.561   2.860  0.00  0.00    -0.004 C 
ATOM      6  C   UNL     1       4.859  -0.943   1.552  0.00  0.00    -0.010 C 
ATOM      7  C   UNL     1       6.371  -1.149   1.425  0.00  0.00    -0.082 C 
ATOM      8  N   UNL     1       7.050  -0.522   2.567  0.00  0.00    +0.379 N 
ATOM      9  C   UNL     1       6.647  -1.184   3.813  0.00  0.00    -0.082 C 
ATOM     10  C   UNL     1       5.147  -0.980   4.041  0.00  0.00    -0.010 C 
ATOM     11  C   UNL     1       2.949  -4.615   1.544  0.00  0.00    +0.247 C 
ATOM     12  O   UNL     1       1.806  -4.831   1.189  0.00  0.00    -0.270 OA
ATOM     13  H   UNL     1       8.048  -0.606   2.450  0.00  0.00    -0.086 HD
ATOM     14  H   UNL     1       6.800   0.454   2.610  0.00  0.00    -0.086 HD
ENDROOT
BRANCH  11  15
ATOM     15  C   UNL     1       4.048  -5.469   1.052  0.00  0.00    +0.038 A 
ATOM     16  C   UNL     1       5.254  -5.532   1.756  0.00  0.00    +0.016 A 
ATOM     17  C   UNL     1       6.277  -6.330   1.294  0.00  0.00    +0.047 A 
ATOM     18  C   UNL     1       6.111  -7.072   0.130  0.00  0.00    +0.132 A 
ATOM     19  C   UNL     1       4.913  -7.012  -0.572  0.00  0.00    +0.097 A 
ATOM     20  C   UNL     1       3.884  -6.220  -0.114  0.00  0.00    +0.029 A 
BRANCH  19  21
ATOM     21  C   UNL     1       4.739  -7.817  -1.834  0.00  0.00    +0.421 C 
ATOM     22  F   UNL     1       3.461  -7.594  -2.357  0.00  0.00    -0.166 F 
ATOM     23  F   UNL     1       5.701  -7.429  -2.772  0.00  0.00    -0.166 F 
ATOM     24  F   UNL     1       4.893  -9.177  -1.543  0.00  0.00    -0.166 F 
ENDBRANCH  19  21
BRANCH  18  25
ATOM     25  O   UNL     1       7.122  -7.857  -0.322  0.00  0.00    -0.495 OA
ATOM     26  C   UNL     1       8.325  -7.872   0.448  0.00  0.00    +0.277 C 
ENDBRANCH  18  25
ENDBRANCH  11  15
BRANCH   1  28
ATOM     27  N   UNL     1       2.331   0.802   1.880  0.00  0.00    -0.308 N 
ATOM     28  C   UNL     1       2.318  -0.546   1.865  0.00  0.00    +0.219 C 
ATOM     29  O   UNL     1       1.865  -1.137   0.908  0.00  0.00    -0.275 OA
ATOM     30  H   UNL     1       2.693   1.275   2.646  0.00  0.00    +0.149 HD
BRANCH  27  32
ATOM     31  C   UNL     1       2.884   1.700  -0.326  0.00  0.00    +0.033 C 
ATOM     32  C   UNL     1       1.798   1.552   0.740  0.00  0.00    +0.100 C 
BRANCH  32  33
ATOM     33  C   UNL     1       1.356   2.918   1.200  0.00  0.00    -0.024 A 
ATOM     34  C   UNL     1       2.119   3.619   2.116  0.00  0.00    +0.005 A 
ATOM     35  C   UNL     1       1.716   4.871   2.539  0.00  0.00    +0.004 A 
ATOM     36  C   UNL     1       0.550   5.426   2.049  0.00  0.00    +0.045 A 
ATOM     37  C   UNL     1      -0.217   4.725   1.130  0.00  0.00    +0.120 A 
ATOM     38  C   UNL     1       0.192   3.470   0.702  0.00  0.00    +0.051 A 
BRANCH  37  39
ATOM     39  O   UNL     1      -1.365   5.269   0.646  0.00  0.00    -0.495 OA
ATOM     40  C   UNL     1      -1.721   6.566   1.127  0.00  0.00    +0.277 C 
ENDBRANCH  37  39
ENDBRANCH  32  33
ENDBRANCH  27  32
ENDBRANCH   1  28
TORSDOF 7
