REMARK  Name = ZINC19805162
REMARK  5 active torsions:
REMARK  status: ('A' for Active; 'I' for Inactive)
REMARK    1  A    between atoms: C_1  and  O_2
REMARK    2  A    between atoms: O_2  and  C_3
REMARK    3  A    between atoms: C_6  and  C_9
REMARK    4  A    between atoms: N_15  and  N_16
REMARK    5  A    between atoms: C_17  and  C_18
REMARK                            x       y       z     vdW  Elec       q    Type
REMARK                         _______ _______ _______ _____ _____    ______ ____
ROOT
ATOM      1  C   UNL     1      -0.074   5.593   0.030  0.00  0.00    +0.028 C 
ATOM      2  C   UNL     1      -1.256   6.257  -0.058  0.00  0.00    +0.078 C 
ATOM      3  C   UNL     1      -1.510   7.706  -0.164  0.00  0.00    +0.256 C 
ATOM      4  O   UNL     1      -0.598   8.512  -0.183  0.00  0.00    -0.269 OA
ATOM      5  N   UNL     1      -2.773   8.089  -0.240  0.00  0.00    -0.259 N 
ATOM      6  C   UNL     1      -3.791   7.162  -0.209  0.00  0.00    +0.187 C 
ATOM      7  N   UNL     1      -5.092   7.371  -0.269  0.00  0.00    -0.126 NA
ATOM      8  S   UNL     1      -2.921   5.610  -0.070  0.00  0.00    -0.047 S 
ATOM      9  H   UNL     1      -3.019   9.158  -0.328  0.00  0.00    +0.157 HD
ENDROOT
BRANCH   1  13
ATOM     10  C   UNL     1      -0.002   1.358  -0.152  0.00  0.00    +0.120 A 
ATOM     11  C   UNL     1       1.095   2.048   0.351  0.00  0.00    +0.046 A 
ATOM     12  C   UNL     1       1.079   3.423   0.407  0.00  0.00    +0.011 A 
ATOM     13  C   UNL     1      -0.049   4.127  -0.034  0.00  0.00    -0.024 A 
ATOM     14  C   UNL     1      -1.153   3.426  -0.535  0.00  0.00    +0.011 A 
ATOM     15  C   UNL     1      -1.124   2.051  -0.592  0.00  0.00    +0.046 A 
BRANCH  10  17
ATOM     16  C   UNL     1       1.204  -0.648   0.257  0.00  0.00    +0.277 C 
ATOM     17  O   UNL     1       0.020   0.001  -0.210  0.00  0.00    -0.495 OA
ENDBRANCH  10  17
ENDBRANCH   1  13
BRANCH   7  18
ATOM     18  N   UNL     1      -5.549   8.574  -0.369  0.00  0.00    -0.155 NA
ATOM     19  C   UNL     1      -6.837   8.780  -0.428  0.00  0.00    +0.143 C 
BRANCH  19  20
ATOM     20  C   UNL     1      -7.358  10.151  -0.542  0.00  0.00    -0.005 A 
ATOM     21  C   UNL     1      -6.476  11.237  -0.582  0.00  0.00    +0.011 A 
ATOM     22  C   UNL     1      -6.971  12.518  -0.694  0.00  0.00    +0.020 A 
ATOM     23  C   UNL     1      -8.338  12.734  -0.756  0.00  0.00    +0.041 A 
ATOM     24  C   UNL     1      -9.217  11.664  -0.712  0.00  0.00    +0.020 A 
ATOM     25  C   UNL     1      -8.737  10.377  -0.605  0.00  0.00    +0.011 A 
ATOM     26 CL   UNL     1      -8.952  14.352  -0.891  0.00  0.00    -0.084 Cl
ENDBRANCH  19  20
ENDBRANCH   7  18
TORSDOF 4
