REMARK  Name = ZINC39498378
REMARK  11 active torsions:
REMARK  status: ('A' for Active; 'I' for Inactive)
REMARK    1  A    between atoms: C_4  and  C_7
REMARK    2  A    between atoms: C_7  and  C_8
REMARK    3  A    between atoms: C_11  and  C_31
REMARK    4  A    between atoms: C_12  and  S_21
REMARK    5  A    between atoms: C_13  and  C_14
REMARK    6  A    between atoms: C_14  and  C_15
REMARK    7  A    between atoms: S_21  and  O_24
REMARK    8  A    between atoms: O_24  and  C_25
REMARK    9  A    between atoms: C_31  and  C_33
REMARK   10  A    between atoms: C_31  and  N_36
REMARK   11  A    between atoms: C_33  and  C_34
REMARK                            x       y       z     vdW  Elec       q    Type
REMARK                         _______ _______ _______ _____ _____    ______ ____
ROOT
ATOM      1  C   UNL     1       4.438  -0.995   1.527  0.00  0.00    -0.038 A 
ATOM      2  C   UNL     1       5.508  -0.196   1.887  0.00  0.00    +0.004 A 
ATOM      3  C   UNL     1       6.324  -0.566   2.939  0.00  0.00    +0.008 A 
ATOM      4  C   UNL     1       6.071  -1.735   3.632  0.00  0.00    +0.002 A 
ATOM      5  C   UNL     1       5.002  -2.534   3.273  0.00  0.00    +0.137 A 
ATOM      6  C   UNL     1       4.182  -2.161   2.224  0.00  0.00    -0.011 A 
ENDROOT
BRANCH   5   7
ATOM      7  S   UNL     1       4.680  -4.024   4.156  0.00  0.00    +0.152 S 
ATOM      8  O   UNL     1       3.273  -4.090   4.343  0.00  0.00    -0.131 OA
ATOM      9  O   UNL     1       5.410  -5.051   3.498  0.00  0.00    -0.131 OA
BRANCH   7  10
ATOM     10  O   UNL     1       5.296  -3.870   5.539  0.00  0.00    -0.342 OA
BRANCH  10  11
ATOM     11  C   UNL     1       4.443  -3.371   6.472  0.00  0.00    +0.157 A 
ATOM     12  C   UNL     1       4.250  -2.001   6.574  0.00  0.00    +0.048 A 
ATOM     13  C   UNL     1       3.382  -1.497   7.523  0.00  0.00    +0.004 A 
ATOM     14  C   UNL     1       2.707  -2.356   8.370  0.00  0.00    +0.000 A 
ATOM     15  C   UNL     1       2.898  -3.721   8.270  0.00  0.00    +0.004 A 
ATOM     16  C   UNL     1       3.760  -4.231   7.319  0.00  0.00    +0.048 A 
ENDBRANCH  10  11
ENDBRANCH   7  10
ENDBRANCH   5   7
BRANCH   1  17
ATOM     17  C   UNL     1       3.548  -0.591   0.381  0.00  0.00    +0.070 C 
BRANCH  17  21
ATOM     18  C   UNL     1       0.415   1.927   1.826  0.00  0.00    +0.000 A 
ATOM     19  C   UNL     1       1.653   2.466   1.529  0.00  0.00    +0.000 A 
ATOM     20  C   UNL     1       2.667   1.651   1.061  0.00  0.00    +0.004 A 
ATOM     21  C   UNL     1       2.443   0.297   0.891  0.00  0.00    -0.043 A 
ATOM     22  C   UNL     1       1.205  -0.241   1.189  0.00  0.00    +0.004 A 
ATOM     23  C   UNL     1       0.191   0.574   1.655  0.00  0.00    +0.000 A 
ENDBRANCH  17  21
ENDBRANCH   1  17
BRANCH   6  24
ATOM     24  C   UNL     1       3.013  -3.029   1.836  0.00  0.00    +0.072 C 
BRANCH  24  25
ATOM     25  C   UNL     1       3.488  -4.138   0.933  0.00  0.00    -0.043 A 
ATOM     26  C   UNL     1       3.682  -3.898  -0.414  0.00  0.00    +0.004 A 
ATOM     27  C   UNL     1       4.118  -4.915  -1.242  0.00  0.00    +0.000 A 
ATOM     28  C   UNL     1       4.361  -6.173  -0.723  0.00  0.00    +0.000 A 
ATOM     29  C   UNL     1       4.168  -6.413   0.625  0.00  0.00    +0.000 A 
ATOM     30  C   UNL     1       3.736  -5.395   1.454  0.00  0.00    +0.004 A 
ENDBRANCH  24  25
ENDBRANCH   6  24
BRANCH   4  31
ATOM     31  C   UNL     1       6.962  -2.139   4.778  0.00  0.00    +0.112 C 
BRANCH  31  32
ATOM     32  N   UNL     1       7.801  -3.269   4.370  0.00  0.00    -0.311 N 
ATOM     33  C   UNL     1       8.198  -4.178   5.282  0.00  0.00    +0.326 C 
ATOM     34  O   UNL     1       7.935  -4.015   6.455  0.00  0.00    -0.280 OA
ATOM     35  H   UNL     1       8.071  -3.363   3.443  0.00  0.00    +0.149 HD
ENDBRANCH  31  32
BRANCH  31  36
ATOM     36  C   UNL     1       7.853  -0.960   5.172  0.00  0.00    +0.097 C 
BRANCH  36  37
ATOM     37  C   UNL     1       8.701  -1.344   6.357  0.00  0.00    +0.225 C 
ATOM     38  O   UNL     1       9.901  -1.218   6.307  0.00  0.00    -0.301 OA
ENDBRANCH  36  37
ENDBRANCH  31  36
ENDBRANCH   4  31
TORSDOF 11
