REMARK  Name = ZINC27236418
REMARK  12 active torsions:
REMARK  status: ('A' for Active; 'I' for Inactive)
REMARK    1  A    between atoms: C_1  and  C_2
REMARK    2  A    between atoms: C_2  and  C_3
REMARK    3  A    between atoms: C_2  and  N_4
REMARK    4  A    between atoms: C_5  and  C_7
REMARK    5  A    between atoms: C_12  and  N_13
REMARK    6  A    between atoms: C_14  and  C_16
REMARK    7  A    between atoms: C_16  and  C_17
REMARK    8  A    between atoms: C_17  and  N_18
REMARK    9  A    between atoms: N_18  and  C_19
REMARK   10  A    between atoms: C_22  and  S_28
REMARK   11  A    between atoms: C_24  and  N_25
REMARK   12  A    between atoms: S_28  and  N_31
REMARK                            x       y       z     vdW  Elec       q    Type
REMARK                         _______ _______ _______ _____ _____    ______ ____
ROOT
ATOM      1  C   UNL     1      -3.747  -1.403   5.951  0.00  0.00    +0.114 C 
ENDROOT
BRANCH   1   3
ATOM      2  N   UNL     1      -1.828  -2.299   4.672  0.00  0.00    -0.285 N 
ATOM      3  C   UNL     1      -2.363  -1.994   5.871  0.00  0.00    +0.219 C 
ATOM      4  O   UNL     1      -1.730  -2.195   6.886  0.00  0.00    -0.275 OA
ATOM      5  H   UNL     1      -2.300  -2.066   3.857  0.00  0.00    +0.155 HD
BRANCH   2  11
ATOM      6  C   UNL     1      -0.377  -3.938   3.633  0.00  0.00    +0.058 A 
ATOM      7  C   UNL     1       0.863  -4.578   3.571  0.00  0.00    +0.015 A 
ATOM      8  C   UNL     1       1.857  -4.240   4.463  0.00  0.00    +0.001 A 
ATOM      9  C   UNL     1       1.633  -3.266   5.424  0.00  0.00    +0.002 A 
ATOM     10  C   UNL     1       0.413  -2.625   5.498  0.00  0.00    +0.024 A 
ATOM     11  C   UNL     1      -0.598  -2.949   4.603  0.00  0.00    +0.046 A 
BRANCH   6  13
ATOM     12  N   UNL     1      -1.192  -5.158   1.677  0.00  0.00    -0.309 N 
ATOM     13  C   UNL     1      -1.445  -4.295   2.680  0.00  0.00    +0.246 C 
ATOM     14  O   UNL     1      -2.554  -3.811   2.801  0.00  0.00    -0.270 OA
ATOM     15  H   UNL     1      -0.307  -5.544   1.580  0.00  0.00    +0.149 HD
BRANCH  12  17
ATOM     16  C   UNL     1      -2.315  -4.464  -0.382  0.00  0.00    +0.027 C 
ATOM     17  C   UNL     1      -2.253  -5.512   0.731  0.00  0.00    +0.067 C 
ATOM     18  C   UNL     1      -1.956  -6.884   0.122  0.00  0.00    +0.027 C 
ENDBRANCH  12  17
ENDBRANCH   6  13
ENDBRANCH   2  11
ENDBRANCH   1   3
BRANCH   1  19
ATOM     19  C   UNL     1      -4.111  -1.152   7.416  0.00  0.00    +0.111 C 
BRANCH  19  20
ATOM     20  N   UNL     1      -5.456  -0.578   7.493  0.00  0.00    -0.342 N 
ATOM     21  H   UNL     1      -5.962  -0.417   6.681  0.00  0.00    +0.146 HD
BRANCH  20  22
ATOM     22  C   UNL     1      -6.010  -0.262   8.736  0.00  0.00    +0.058 A 
ATOM     23  C   UNL     1      -5.341  -0.605   9.904  0.00  0.00    +0.027 A 
ATOM     24  C   UNL     1      -5.891  -0.290  11.131  0.00  0.00    +0.030 A 
ATOM     25  C   UNL     1      -7.107   0.366  11.197  0.00  0.00    +0.107 A 
ATOM     26  C   UNL     1      -7.776   0.708  10.037  0.00  0.00    +0.063 A 
ATOM     27  C   UNL     1      -7.228   0.402   8.806  0.00  0.00    +0.149 A 
BRANCH  27  28
ATOM     28  N   UNL     1      -7.942   0.774   7.564  0.00  0.00    +0.058 N 
ATOM     29  O   UNL     1      -7.320   1.169   6.605  0.00  0.00    -0.126 OA
ATOM     30  O   UNL     1      -9.146   0.685   7.509  0.00  0.00    -0.126 OA
ENDBRANCH  27  28
BRANCH  25  31
ATOM     31  S   UNL     1      -7.805   0.765  12.765  0.00  0.00    +0.056 S 
ATOM     32  O   UNL     1      -9.207   0.891  12.565  0.00  0.00    -0.153 OA
ATOM     33  O   UNL     1      -7.249  -0.147  13.702  0.00  0.00    -0.153 OA
BRANCH  31  34
ATOM     34  N   UNL     1      -7.249   2.269  13.180  0.00  0.00    -0.204 NA
ATOM     35  H   UNL     1      -6.650   2.746  12.585  0.00  0.00    +0.144 HD
ATOM     36  H   UNL     1      -7.522   2.672  14.019  0.00  0.00    +0.144 HD
ENDBRANCH  31  34
ENDBRANCH  25  31
ENDBRANCH  20  22
ENDBRANCH  19  20
ENDBRANCH   1  19
TORSDOF 10
