REMARK  Name = ZINC09227973
REMARK  10 active torsions:
REMARK  status: ('A' for Active; 'I' for Inactive)
REMARK    1  A    between atoms: C_1  and  C_2
REMARK    2  A    between atoms: C_6  and  N_8
REMARK    3  A    between atoms: C_9  and  C_26
REMARK    4  A    between atoms: C_10  and  C_13
REMARK    5  A    between atoms: N_18  and  C_21
REMARK    6  A    between atoms: C_32  and  O_34
REMARK    7  A    between atoms: O_34  and  C_35
REMARK    8  A    between atoms: C_35  and  C_36
REMARK    9  A    between atoms: C_35  and  C_37
REMARK   10  A    between atoms: C_35  and  C_38
REMARK                            x       y       z     vdW  Elec       q    Type
REMARK                         _______ _______ _______ _____ _____    ______ ____
ROOT
ATOM      1  N   UNL     1       2.367   3.944   0.057  0.00  0.00    -0.236 N 
ATOM      2  C   UNL     1       3.477   3.603   0.737  0.00  0.00    +0.060 A 
ATOM      3  C   UNL     1       4.469   4.494   0.378  0.00  0.00    +0.078 A 
ATOM      4  C   UNL     1       3.906   5.393  -0.555  0.00  0.00    +0.148 A 
ATOM      5  N   UNL     1       2.660   5.054  -0.743  0.00  0.00    -0.174 NA
ENDROOT
BRANCH   3   6
ATOM      6  C   UNL     1       5.857   4.504   0.875  0.00  0.00    +0.250 C 
ATOM      7  O   UNL     1       6.074   4.509   2.072  0.00  0.00    -0.270 OA
ATOM      8  N   UNL     1       6.885   4.509   0.004  0.00  0.00    -0.294 N 
ATOM      9  C   UNL     1       6.649   4.392  -1.443  0.00  0.00    +0.127 C 
ATOM     10  C   UNL     1       7.398   5.534  -2.148  0.00  0.00    +0.125 C 
ATOM     11  N   UNL     1       8.811   5.507  -1.746  0.00  0.00    -0.314 N 
ATOM     12  C   UNL     1       8.959   5.753  -0.305  0.00  0.00    +0.125 C 
ATOM     13  C   UNL     1       8.274   4.626   0.475  0.00  0.00    +0.127 C 
BRANCH  11  14
ATOM     14  C   UNL     1       9.557   6.418  -2.485  0.00  0.00    +0.099 A 
ATOM     15  C   UNL     1       9.547   6.349  -3.875  0.00  0.00    +0.042 A 
ATOM     16  C   UNL     1      10.293   7.261  -4.599  0.00  0.00    +0.005 A 
ATOM     17  C   UNL     1      11.028   8.215  -3.906  0.00  0.00    +0.018 A 
ATOM     18  C   UNL     1      10.992   8.225  -2.526  0.00  0.00    +0.084 A 
ATOM     19  N   UNL     1      10.265   7.348  -1.783  0.00  0.00    -0.350 N 
ATOM     20  H   UNL     1      10.249   7.385  -0.757  0.00  0.00    +0.166 HD
ENDBRANCH  11  14
ENDBRANCH   3   6
BRANCH   2  21
ATOM     21  C   UNL     1       3.612   2.461   1.711  0.00  0.00    +0.042 C 
ATOM     22  C   UNL     1       3.815   3.016   3.123  0.00  0.00    +0.029 C 
ATOM     23  C   UNL     1       3.918   1.853   4.114  0.00  0.00    +0.112 C 
ATOM     24  N   UNL     1       4.979   0.942   3.666  0.00  0.00    -0.267 N 
ATOM     25  C   UNL     1       4.929   0.420   2.293  0.00  0.00    +0.112 C 
ATOM     26  C   UNL     1       4.816   1.600   1.322  0.00  0.00    +0.029 C 
ATOM     27  C   UNL     1       5.979   0.591   4.498  0.00  0.00    +0.403 C 
ATOM     28  O   UNL     1       6.852  -0.164   4.115  0.00  0.00    -0.226 OA
BRANCH  27  29
ATOM     29  O   UNL     1       6.012   1.076   5.753  0.00  0.00    -0.445 OA
BRANCH  29  30
ATOM     30  C   UNL     1       7.119   0.655   6.594  0.00  0.00    +0.107 C 
ATOM     31  C   UNL     1       8.440   1.086   5.952  0.00  0.00    +0.055 C 
ATOM     32  C   UNL     1       6.987   1.304   7.973  0.00  0.00    +0.055 C 
ATOM     33  C   UNL     1       7.097  -0.868   6.742  0.00  0.00    +0.055 C 
ENDBRANCH  29  30
ENDBRANCH  27  29
ENDBRANCH   2  21
BRANCH   1  39
ATOM     34  C   UNL     1      -1.601   2.115  -2.202  0.00  0.00    +0.044 C 
ATOM     35  C   UNL     1      -0.815   2.394  -0.947  0.00  0.00    -0.048 A 
ATOM     36  C   UNL     1      -1.315   2.003   0.282  0.00  0.00    +0.003 A 
ATOM     37  C   UNL     1      -0.601   2.263   1.437  0.00  0.00    +0.002 A 
ATOM     38  C   UNL     1       0.621   2.904   1.365  0.00  0.00    +0.028 A 
ATOM     39  C   UNL     1       1.128   3.293   0.133  0.00  0.00    +0.066 A 
ATOM     40  C   UNL     1       0.405   3.036  -1.024  0.00  0.00    +0.031 A 
ENDBRANCH   1  39
TORSDOF 6
