REMARK  Name = ZINC00128048
REMARK  8 active torsions:
REMARK  status: ('A' for Active; 'I' for Inactive)
REMARK    1  A    between atoms: C_1  and  C_2
REMARK    2  A    between atoms: C_2  and  C_20
REMARK    3  A    between atoms: C_6  and  C_18
REMARK    4  A    between atoms: C_6  and  C_19
REMARK    5  A    between atoms: N_7  and  O_8
REMARK    6  A    between atoms: O_8  and  C_9
REMARK    7  A    between atoms: C_9  and  C_11
REMARK    8  A    between atoms: C_14  and  N_17
REMARK                            x       y       z     vdW  Elec       q    Type
REMARK                         _______ _______ _______ _____ _____    ______ ____
ROOT
ATOM      1  O   UNL     1       2.023   0.069   1.324  0.00  0.00    -0.362 OA
ENDROOT
BRANCH   1   8
ATOM      2  C   UNL     1      -0.019   1.529   0.010  0.00  0.00    +0.031 C 
ATOM      3  C   UNL     1       0.002  -0.004   0.002  0.00  0.00    +0.053 C 
ATOM      4  C   UNL     1      -1.425  -0.533  -0.127  0.00  0.00    +0.025 C 
ATOM      5  C   UNL     1      -2.168  -0.386   1.200  0.00  0.00    +0.004 C 
ATOM      6  C   UNL     1      -1.423  -1.188   2.266  0.00  0.00    +0.025 C 
ATOM      7  C   UNL     1       0.002  -0.664   2.425  0.00  0.00    +0.053 C 
ATOM      8  N   UNL     1       0.695  -0.524   1.162  0.00  0.00    -0.127 NA
ATOM      9  C   UNL     1       0.778  -1.681   3.292  0.00  0.00    +0.031 C 
ATOM     10  C   UNL     1      -0.023   0.662   3.194  0.00  0.00    +0.031 C 
ATOM     11  C   UNL     1       0.777  -0.444  -1.260  0.00  0.00    +0.031 C 
ENDBRANCH   1   8
BRANCH   1  12
ATOM     12  C   UNL     1       3.030  -0.826   1.290  0.00  0.00    +0.358 C 
ATOM     13  O   UNL     1       2.789  -2.007   1.137  0.00  0.00    -0.243 OA
BRANCH  12  14
ATOM     14  C   UNL     1       4.425  -0.372   1.441  0.00  0.00    +0.061 A 
ATOM     15  C   UNL     1       4.703   0.986   1.623  0.00  0.00    +0.017 A 
ATOM     16  C   UNL     1       6.001   1.405   1.763  0.00  0.00    +0.023 A 
ATOM     17  C   UNL     1       7.041   0.480   1.723  0.00  0.00    +0.025 A 
ATOM     18  C   UNL     1       6.767  -0.873   1.541  0.00  0.00    +0.023 A 
ATOM     19  C   UNL     1       5.471  -1.299   1.406  0.00  0.00    +0.017 A 
BRANCH  17  20
ATOM     20  N   UNL     1       8.356   0.908   1.864  0.00  0.00    -0.358 N 
ATOM     21  H   UNL     1       8.549   1.850   1.991  0.00  0.00    +0.142 HD
ATOM     22  H   UNL     1       9.082   0.265   1.836  0.00  0.00    +0.142 HD
ENDBRANCH  17  20
ENDBRANCH  12  14
ENDBRANCH   1  12
TORSDOF 4
