REMARK  Name = ZINC14478335
REMARK  7 active torsions:
REMARK  status: ('A' for Active; 'I' for Inactive)
REMARK    1  A    between atoms: C_1  and  C_2
REMARK    2  A    between atoms: C_2  and  C_3
REMARK    3  A    between atoms: C_3  and  C_5
REMARK    4  A    between atoms: C_3  and  O_6
REMARK    5  A    between atoms: O_6  and  C_7
REMARK    6  A    between atoms: C_20  and  C_23
REMARK    7  A    between atoms: C_28  and  N_29
REMARK                            x       y       z     vdW  Elec       q    Type
REMARK                         _______ _______ _______ _____ _____    ______ ____
ROOT
ATOM      1  C   UNL     1      -3.202   1.665   0.952  0.00  0.00    +0.121 A 
ATOM      2  C   UNL     1      -2.780   2.863   0.394  0.00  0.00    +0.047 A 
ATOM      3  C   UNL     1      -3.702   3.740  -0.141  0.00  0.00    +0.027 A 
ATOM      4  C   UNL     1      -5.058   3.438  -0.113  0.00  0.00    +0.032 A 
ATOM      5  C   UNL     1      -5.477   2.226   0.447  0.00  0.00    -0.016 A 
ATOM      6  C   UNL     1      -4.552   1.353   0.977  0.00  0.00    +0.051 A 
ATOM      7  C   UNL     1      -6.927   1.932   0.431  0.00  0.00    +0.049 C 
ATOM      8  C   UNL     1      -7.561   1.056   1.449  0.00  0.00    -0.023 C 
ATOM      9  C   UNL     1      -8.808   1.466   1.645  0.00  0.00    -0.030 C 
ATOM     10  C   UNL     1      -9.096   2.694   0.779  0.00  0.00    +0.033 C 
ATOM     11  C   UNL     1      -7.690   3.277   0.623  0.00  0.00    +0.029 C 
ATOM     12  C   UNL     1      -7.428   4.076  -0.640  0.00  0.00    +0.107 C 
ATOM     13  N   UNL     1      -5.976   4.360  -0.638  0.00  0.00    -0.336 N 
ATOM     14  H   UNL     1      -5.653   5.197  -1.006  0.00  0.00    +0.147 HD
ENDROOT
BRANCH  12  15
ATOM     15  C   UNL     1      -7.798   3.265  -1.855  0.00  0.00    +0.003 A 
ATOM     16  C   UNL     1      -6.841   2.494  -2.489  0.00  0.00    +0.008 A 
ATOM     17  C   UNL     1      -7.181   1.750  -3.603  0.00  0.00    +0.000 A 
ATOM     18  C   UNL     1      -8.477   1.777  -4.084  0.00  0.00    +0.002 A 
ATOM     19  C   UNL     1      -9.433   2.548  -3.451  0.00  0.00    +0.033 A 
ATOM     20  C   UNL     1      -9.095   3.288  -2.333  0.00  0.00    +0.131 A 
BRANCH  20  21
ATOM     21  N   UNL     1     -10.120   4.109  -1.651  0.00  0.00    +0.057 N 
ATOM     22  O   UNL     1     -11.244   4.188  -2.113  0.00  0.00    -0.126 OA
ATOM     23  O   UNL     1      -9.839   4.707  -0.627  0.00  0.00    -0.126 OA
ENDBRANCH  20  21
ENDBRANCH  12  15
BRANCH   1  24
ATOM     24  O   UNL     1      -2.293   0.802   1.480  0.00  0.00    -0.489 OA
BRANCH  24  25
ATOM     25  C   UNL     1      -0.933   1.240   1.527  0.00  0.00    +0.170 C 
ATOM     26  C   UNL     1      -0.258   0.950   0.185  0.00  0.00    +0.052 C 
BRANCH  25  28
ATOM     27  C   UNL     1      -0.792   0.883   3.996  0.00  0.00    +0.007 C 
ATOM     28  C   UNL     1      -0.196   0.495   2.641  0.00  0.00    +0.041 C 
ENDBRANCH  25  28
ENDBRANCH  24  25
ENDBRANCH   1  24
TORSDOF 5
