REMARK  Name = ZINC42955675
REMARK  8 active torsions:
REMARK  status: ('A' for Active; 'I' for Inactive)
REMARK    1  A    between atoms: C_1  and  C_2
REMARK    2  A    between atoms: C_2  and  C_4
REMARK    3  A    between atoms: C_2  and  N_22
REMARK    4  A    between atoms: C_4  and  C_6
REMARK    5  A    between atoms: C_4  and  N_13
REMARK    6  A    between atoms: N_13  and  C_14
REMARK    7  A    between atoms: N_13  and  C_19
REMARK    8  A    between atoms: C_14  and  C_15
REMARK                            x       y       z     vdW  Elec       q    Type
REMARK                         _______ _______ _______ _____ _____    ______ ____
ROOT
ATOM      1  C   UNL     1       0.631  -0.726   1.488  0.00  0.00    +0.073 C 
ENDROOT
BRANCH   1   2
ATOM      2  C   UNL     1       0.870  -0.030   2.803  0.00  0.00    -0.032 A 
ATOM      3  C   UNL     1       0.487  -0.637   3.985  0.00  0.00    +0.006 A 
ATOM      4  C   UNL     1       0.706   0.000   5.192  0.00  0.00    +0.015 A 
ATOM      5  C   UNL     1       1.309   1.245   5.217  0.00  0.00    +0.018 A 
ATOM      6  C   UNL     1       1.692   1.852   4.034  0.00  0.00    +0.015 A 
ATOM      7  C   UNL     1       1.477   1.211   2.828  0.00  0.00    +0.006 A 
ATOM      8 BR   UNL     1       1.608   2.118   6.868  0.00  0.00    -0.050 Br
ENDBRANCH   1   2
BRANCH   1  10
ATOM      9  C   UNL     1      -1.645   0.264   1.202  0.00  0.00    -0.012 C 
ATOM     10  C   UNL     1      -0.859  -1.041   1.341  0.00  0.00    -0.056 C 
BRANCH  10  11
ATOM     11  N   UNL     1      -1.068  -1.868   0.145  0.00  0.00    +0.381 N 
ATOM     12  H   UNL     1      -0.672  -1.405  -0.659  0.00  0.00    -0.090 HD
ATOM     13  H   UNL     1      -0.619  -2.763   0.272  0.00  0.00    -0.090 HD
ATOM     14  H   UNL     1      -2.057  -2.006   0.001  0.00  0.00    -0.090 HD
ENDBRANCH  10  11
ENDBRANCH   1  10
BRANCH   1  15
ATOM     15  N   UNL     1       1.403  -1.975   1.448  0.00  0.00    -0.286 NA
BRANCH  15  16
ATOM     16  C   UNL     1       0.910  -2.931   2.449  0.00  0.00    +0.058 C 
ATOM     17  C   UNL     1       1.863  -3.323   3.580  0.00  0.00    +0.020 C 
ATOM     18  C   UNL     1       1.542  -4.324   2.467  0.00  0.00    +0.020 C 
ENDBRANCH  15  16
BRANCH  15  19
ATOM     19  C   UNL     1       2.837  -1.715   1.629  0.00  0.00    +0.199 C 
BRANCH  19  20
ATOM     20  C   UNL     1       3.424  -1.165   0.328  0.00  0.00    +0.402 C 
ATOM     21  F   UNL     1       2.869   0.090   0.060  0.00  0.00    -0.169 F 
ATOM     22  F   UNL     1       4.812  -1.043   0.458  0.00  0.00    -0.169 F 
ATOM     23  F   UNL     1       3.130  -2.040  -0.723  0.00  0.00    -0.169 F 
ENDBRANCH  19  20
ENDBRANCH  15  19
ENDBRANCH   1  15
TORSDOF 7
