REMARK  Name = ZINC04177826
REMARK  10 active torsions:
REMARK  status: ('A' for Active; 'I' for Inactive)
REMARK    1  A    between atoms: C_1  and  C_2
REMARK    2  A    between atoms: N_8  and  S_9
REMARK    3  A    between atoms: S_9  and  C_12
REMARK    4  A    between atoms: C_15  and  C_18
REMARK    5  A    between atoms: N_20  and  C_21
REMARK    6  A    between atoms: C_22  and  C_34
REMARK    7  A    between atoms: C_26  and  C_32
REMARK    8  A    between atoms: C_26  and  C_33
REMARK    9  A    between atoms: C_28  and  C_30
REMARK   10  A    between atoms: C_28  and  C_31
REMARK                            x       y       z     vdW  Elec       q    Type
REMARK                         _______ _______ _______ _____ _____    ______ ____
ROOT
ATOM      1  C   UNL     1      -2.692   1.355   6.787  0.00  0.00    +0.249 C 
ATOM      2  O   UNL     1      -3.574   2.184   6.671  0.00  0.00    -0.270 OA
ATOM      3  N   UNL     1      -2.608   0.614   7.909  0.00  0.00    -0.275 N 
ATOM      4  H   UNL     1      -1.904  -0.048   8.002  0.00  0.00    +0.156 HD
ENDROOT
BRANCH   3   5
ATOM      5  C   UNL     1      -3.526   0.796   8.931  0.00  0.00    +0.085 A 
ATOM      6  C   UNL     1      -3.591   0.128  10.147  0.00  0.00    +0.068 A 
ATOM      7  C   UNL     1      -4.655   0.510  11.048  0.00  0.00    -0.026 A 
ATOM      8  C   UNL     1      -5.470   1.484  10.578  0.00  0.00    -0.016 A 
ATOM      9  S   UNL     1      -4.812   1.874   8.984  0.00  0.00    -0.079 S 
ATOM     10  C   UNL     1      -6.654   2.061  11.278  0.00  0.00    -0.041 C 
ATOM     11  N   UNL     1      -6.758   1.603  12.662  0.00  0.00    +0.389 N 
ATOM     12  C   UNL     1      -5.542   1.076  13.267  0.00  0.00    -0.069 C 
ATOM     13  C   UNL     1      -4.929  -0.056  12.433  0.00  0.00    +0.024 C 
ATOM     14  C   UNL     1      -4.502   2.179  13.470  0.00  0.00    -0.010 C 
ATOM     15  C   UNL     1      -5.898   0.501  14.651  0.00  0.00    -0.010 C 
ATOM     16  C   UNL     1      -7.923   1.627  10.518  0.00  0.00    -0.005 C 
ATOM     17  C   UNL     1      -6.580   3.594  11.230  0.00  0.00    -0.005 C 
ATOM     18  H   UNL     1      -7.098   2.375  13.237  0.00  0.00    -0.084 HD
ATOM     19  H   UNL     1      -7.482   0.882  12.712  0.00  0.00    -0.084 HD
BRANCH   6  20
ATOM     20  C   UNL     1      -2.623  -0.919  10.488  0.00  0.00    +0.244 C 
ATOM     21  O   UNL     1      -1.590  -0.628  11.063  0.00  0.00    -0.270 OA
ATOM     22  N   UNL     1      -2.876  -2.203  10.165  0.00  0.00    -0.325 N 
ATOM     23  H   UNL     1      -3.699  -2.434   9.707  0.00  0.00    +0.145 HD
ATOM     24  H   UNL     1      -2.235  -2.895  10.390  0.00  0.00    +0.145 HD
ENDBRANCH   6  20
ENDBRANCH   3   5
BRANCH   1  28
ATOM     25  C   UNL     1       0.122   0.795   3.656  0.00  0.00    +0.106 A 
ATOM     26  C   UNL     1      -0.880   1.739   3.520  0.00  0.00    +0.029 A 
ATOM     27  C   UNL     1      -1.798   1.926   4.533  0.00  0.00    +0.015 A 
ATOM     28  C   UNL     1      -1.713   1.160   5.697  0.00  0.00    +0.037 A 
ATOM     29  C   UNL     1      -0.699   0.209   5.827  0.00  0.00    +0.015 A 
ATOM     30  C   UNL     1       0.208   0.029   4.804  0.00  0.00    +0.029 A 
BRANCH  25  31
ATOM     31  S   UNL     1       1.290   0.564   2.357  0.00  0.00    +0.061 S 
ATOM     32  O   UNL     1       2.381  -0.156   2.915  0.00  0.00    -0.153 OA
ATOM     33  O   UNL     1       1.454   1.827   1.728  0.00  0.00    -0.153 OA
BRANCH  31  40
ATOM     34  C   UNL     1       1.418  -2.247   2.663  0.00  0.00    +0.026 C 
ATOM     35  C   UNL     1       0.577  -1.890   1.436  0.00  0.00    +0.077 C 
ATOM     36  C   UNL     1       1.168  -2.564   0.194  0.00  0.00    +0.020 C 
ATOM     37  C   UNL     1       0.408  -2.093  -1.048  0.00  0.00    +0.003 C 
ATOM     38  C   UNL     1       0.564  -0.578  -1.199  0.00  0.00    +0.017 C 
ATOM     39  C   UNL     1      -0.035   0.118   0.027  0.00  0.00    +0.110 C 
ATOM     40  N   UNL     1       0.587  -0.434   1.238  0.00  0.00    -0.174 NA
ENDBRANCH  31  40
ENDBRANCH  25  31
ENDBRANCH   1  28
TORSDOF 5
