REMARK  Name = ZINC01432437
REMARK  3 active torsions:
REMARK  status: ('A' for Active; 'I' for Inactive)
REMARK    1  A    between atoms: C_6  and  N_7
REMARK    2  A    between atoms: C_16  and  C_20
REMARK    3  A    between atoms: C_17  and  N_19
REMARK                            x       y       z     vdW  Elec       q    Type
REMARK                         _______ _______ _______ _____ _____    ______ ____
ROOT
ATOM      1  C   UNL     1       2.471   0.060  -0.055  0.00  0.00    +0.056 A 
ATOM      2  C   UNL     1       1.292  -0.698  -0.048  0.00  0.00    +0.093 A 
ATOM      3  C   UNL     1       0.002  -0.004   0.004  0.00  0.00    +0.094 A 
ATOM      4  C   UNL     1      -0.016   1.403   0.046  0.00  0.00    +0.070 A 
ATOM      5  C   UNL     1       1.155   2.093   0.037  0.00  0.00    +0.146 A 
ATOM      6  C   UNL     1       2.393   1.435  -0.013  0.00  0.00    +0.068 A 
ATOM      7  F   UNL     1       1.126   3.443   0.077  0.00  0.00    -0.203 F 
ATOM      8  N   UNL     1      -1.124  -0.717   0.011  0.00  0.00    -0.231 NA
ATOM      9  C   UNL     1      -1.062  -2.038  -0.030  0.00  0.00    +0.180 A 
ATOM     10  C   UNL     1       0.182  -2.708  -0.080  0.00  0.00    +0.153 A 
ATOM     11  N   UNL     1       1.317  -2.035  -0.088  0.00  0.00    -0.228 NA
ENDROOT
BRANCH   6  12
ATOM     12  N   UNL     1       3.566   2.187  -0.020  0.00  0.00    -0.328 N 
ATOM     13  C   UNL     1       4.331   1.965  -1.268  0.00  0.00    +0.105 C 
ATOM     14  C   UNL     1       5.722   2.534  -1.209  0.00  0.00    +0.019 C 
ATOM     15  C   UNL     1       6.687   1.422  -0.748  0.00  0.00    +0.002 C 
ATOM     16  C   UNL     1       6.629   1.204   0.693  0.00  0.00    +0.002 C 
ATOM     17  C   UNL     1       5.227   0.761   1.159  0.00  0.00    +0.019 C 
ATOM     18  C   UNL     1       4.340   1.975   1.224  0.00  0.00    +0.105 C 
ENDBRANCH   6  12
BRANCH  10  19
ATOM     19  N   UNL     1       0.209  -4.091  -0.122  0.00  0.00    -0.341 N 
ATOM     20  H   UNL     1      -0.621  -4.593  -0.116  0.00  0.00    +0.144 HD
ATOM     21  H   UNL     1       1.059  -4.558  -0.156  0.00  0.00    +0.144 HD
ENDBRANCH  10  19
BRANCH   9  22
ATOM     22  C   UNL     1      -2.273  -2.801  -0.023  0.00  0.00    +0.123 C 
ATOM     23  N   UNL     1      -3.235  -3.406  -0.018  0.00  0.00    -0.189 NA
ENDBRANCH   9  22
TORSDOF 3
