REMARK  Name = ZINC23372368
REMARK  10 active torsions:
REMARK  status: ('A' for Active; 'I' for Inactive)
REMARK    1  A    between atoms: C_1  and  C_2
REMARK    2  A    between atoms: C_5  and  C_38
REMARK    3  A    between atoms: C_10  and  C_12
REMARK    4  A    between atoms: C_12  and  N_13
REMARK    5  A    between atoms: N_16  and  C_19
REMARK    6  A    between atoms: C_19  and  C_20
REMARK    7  A    between atoms: N_22  and  C_23
REMARK    8  A    between atoms: C_28  and  C_29
REMARK    9  A    between atoms: N_31  and  C_32
REMARK   10  A    between atoms: C_32  and  C_33
REMARK                            x       y       z     vdW  Elec       q    Type
REMARK                         _______ _______ _______ _____ _____    ______ ____
ROOT
ATOM      1  C   UNL     1      -0.273   3.686  -0.671  0.00  0.00    +0.201 C 
ATOM      2  O   UNL     1       0.418   4.193   0.187  0.00  0.00    -0.278 OA
ATOM      3  N   UNL     1      -0.943   4.465  -1.544  0.00  0.00    -0.286 N 
ATOM      4  H   UNL     1      -1.625   4.009  -2.277  0.00  0.00    +0.155 HD
ENDROOT
BRANCH   3   5
ATOM      5  C   UNL     1      -0.772   5.847  -1.517  0.00  0.00    +0.045 A 
ATOM      6  C   UNL     1      -0.610   6.507  -0.306  0.00  0.00    +0.024 A 
ATOM      7  C   UNL     1      -0.435   7.875  -0.282  0.00  0.00    +0.002 A 
ATOM      8  C   UNL     1      -0.432   8.603  -1.462  0.00  0.00    +0.001 A 
ATOM      9  C   UNL     1      -0.597   7.965  -2.673  0.00  0.00    +0.015 A 
ATOM     10  C   UNL     1      -0.769   6.580  -2.713  0.00  0.00    +0.058 A 
BRANCH  10  11
ATOM     11  C   UNL     1      -0.948   5.891  -4.005  0.00  0.00    +0.246 C 
ATOM     12  O   UNL     1      -1.185   4.699  -4.032  0.00  0.00    -0.270 OA
ATOM     13  N   UNL     1      -0.847   6.584  -5.157  0.00  0.00    -0.304 N 
ATOM     14  H   UNL     1      -0.632   7.663  -5.133  0.00  0.00    +0.149 HD
BRANCH  13  15
ATOM     15  C   UNL     1      -1.024   5.901  -6.441  0.00  0.00    +0.179 C 
BRANCH  15  16
ATOM     16  C   UNL     1      -0.863   6.892  -7.564  0.00  0.00    +0.122 A 
ATOM     17  C   UNL     1       0.290   7.197  -8.185  0.00  0.00    +0.046 A 
ATOM     18  C   UNL     1      -0.017   8.166  -9.168  0.00  0.00    +0.041 A 
ATOM     19  C   UNL     1      -1.341   8.396  -9.088  0.00  0.00    +0.195 A 
ATOM     20  O   UNL     1      -1.849   7.617  -8.120  0.00  0.00    -0.466 OA
ENDBRANCH  15  16
ENDBRANCH  13  15
ENDBRANCH  10  11
ENDBRANCH   3   5
BRANCH   1  21
ATOM     21  C   UNL     1      -0.383   2.186  -0.762  0.00  0.00    +0.019 C 
BRANCH  21  25
ATOM     22  N   UNL     1       2.410  -0.203   1.322  0.00  0.00    -0.298 NA
ATOM     23  C   UNL     1       0.981  -0.460   1.547  0.00  0.00    +0.066 C 
ATOM     24  C   UNL     1       0.171   0.128   0.389  0.00  0.00    -0.063 C 
ATOM     25  N   UNL     1       0.435   1.571   0.292  0.00  0.00    +0.387 N 
ATOM     26  C   UNL     1       1.864   1.827   0.067  0.00  0.00    -0.063 C 
ATOM     27  C   UNL     1       2.674   1.240   1.226  0.00  0.00    +0.066 C 
ATOM     28  H   UNL     1       0.153   2.033   1.250  0.00  0.00    -0.081 HD
BRANCH  22  29
ATOM     29  C   UNL     1       3.228  -0.818   2.376  0.00  0.00    +0.180 C 
BRANCH  29  37
ATOM     30  C   UNL     1       3.070  -6.626   4.435  0.00  0.00    +0.009 C 
ATOM     31  C   UNL     1       3.042  -5.096   4.452  0.00  0.00    +0.004 C 
ATOM     32  C   UNL     1       3.891  -4.583   5.618  0.00  0.00    +0.009 C 
ATOM     33  C   UNL     1       3.837  -3.054   5.656  0.00  0.00    +0.004 C 
ATOM     34  C   UNL     1       4.420  -2.494   4.349  0.00  0.00    +0.111 C 
ATOM     35  N   UNL     1       3.698  -3.095   3.220  0.00  0.00    -0.300 N 
ATOM     36  C   UNL     1       3.612  -4.559   3.135  0.00  0.00    +0.111 C 
ATOM     37  C   UNL     1       3.130  -2.318   2.276  0.00  0.00    +0.230 C 
ATOM     38  O   UNL     1       2.542  -2.827   1.345  0.00  0.00    -0.274 OA
ATOM     39  C   UNL     1       4.659  -2.543   6.840  0.00  0.00    +0.009 C 
ENDBRANCH  29  37
ENDBRANCH  22  29
ENDBRANCH  21  25
ENDBRANCH   1  21
TORSDOF 8
