REMARK  Name = ZINC13120920
REMARK  10 active torsions:
REMARK  status: ('A' for Active; 'I' for Inactive)
REMARK    1  A    between atoms: C_1  and  C_2
REMARK    2  A    between atoms: C_2  and  C_3
REMARK    3  A    between atoms: C_3  and  C_4
REMARK    4  A    between atoms: C_4  and  N_5
REMARK    5  A    between atoms: C_6  and  N_33
REMARK    6  A    between atoms: C_7  and  N_14
REMARK    7  A    between atoms: N_14  and  C_15
REMARK    8  A    between atoms: C_20  and  C_22
REMARK    9  A    between atoms: C_22  and  N_65
REMARK   10  A    between atoms: C_30  and  C_32
REMARK                            x       y       z     vdW  Elec       q    Type
REMARK                         _______ _______ _______ _____ _____    ______ ____
ROOT
ATOM      1  N   UNL     1      -0.146  -0.389   4.484  0.00  0.00    -0.263 N 
ATOM      2  C   UNL     1       0.606  -0.447   3.365  0.00  0.00    +0.204 C 
ATOM      3  O   UNL     1       0.153  -0.058   2.309  0.00  0.00    -0.277 OA
ENDROOT
BRANCH   1   6
ATOM      4  N   UNL     1       1.250  -0.611   7.875  0.00  0.00    -0.280 N 
ATOM      5  C   UNL     1       0.770  -0.070   6.705  0.00  0.00    +0.127 A 
ATOM      6  C   UNL     1       0.351  -0.913   5.696  0.00  0.00    +0.140 A 
ATOM      7  C   UNL     1       0.422  -2.304   5.899  0.00  0.00    +0.277 A 
ATOM      8  O   UNL     1       0.054  -3.071   5.025  0.00  0.00    -0.266 OA
ATOM      9  N   UNL     1       0.905  -2.782   7.062  0.00  0.00    -0.273 N 
ATOM     10  H   UNL     1       0.964  -3.770   7.204  0.00  0.00    +0.173 HD
ATOM     11  C   UNL     1       1.309  -1.946   8.035  0.00  0.00    +0.331 A 
ATOM     12  O   UNL     1       1.737  -2.404   9.077  0.00  0.00    -0.246 OA
BRANCH   5  13
ATOM     13  N   UNL     1       0.709   1.293   6.543  0.00  0.00    -0.343 N 
ATOM     14  H   UNL     1       0.332   1.669   5.732  0.00  0.00    +0.144 HD
ATOM     15  H   UNL     1       1.043   1.880   7.239  0.00  0.00    +0.144 HD
ENDBRANCH   5  13
BRANCH   4  16
ATOM     16  C   UNL     1       1.699   0.272   8.955  0.00  0.00    +0.128 C 
BRANCH  16  17
ATOM     17  C   UNL     1       0.521   0.586   9.880  0.00  0.00    +0.021 C 
BRANCH  17  19
ATOM     18  C   UNL     1      -0.187   1.821  11.933  0.00  0.00    +0.004 C 
ATOM     19  C   UNL     1       0.990   1.508  11.008  0.00  0.00    -0.002 C 
ENDBRANCH  17  19
ENDBRANCH  16  17
ENDBRANCH   4  16
ENDBRANCH   1   6
BRANCH   1  20
ATOM     20  C   UNL     1      -1.478   0.219   4.440  0.00  0.00    +0.082 C 
ATOM     21  C   UNL     1      -2.372  -0.539   3.436  0.00  0.00    +0.023 C 
ATOM     22  C   UNL     1      -3.224   0.572   2.773  0.00  0.00    +0.002 C 
ATOM     23  C   UNL     1      -2.217   1.742   2.641  0.00  0.00    +0.002 C 
ATOM     24  C   UNL     1      -1.380   1.669   3.935  0.00  0.00    +0.023 C 
ENDBRANCH   1  20
BRANCH   2  25
ATOM     25  C   UNL     1       2.008  -0.996   3.427  0.00  0.00    +0.020 C 
BRANCH  25  35
ATOM     26  C   UNL     1       2.613   0.631   1.738  0.00  0.00    -0.072 C 
ATOM     27  C   UNL     1       2.938   0.739   0.238  0.00  0.00    +0.024 C 
ATOM     28  C   UNL     1       4.154  -0.090  -0.024  0.00  0.00    -0.010 A 
ATOM     29  C   UNL     1       4.701  -1.018   0.811  0.00  0.00    -0.051 A 
ATOM     30  C   UNL     1       5.843  -1.670   0.352  0.00  0.00    +0.010 A 
ATOM     31  C   UNL     1       6.351  -1.370  -0.867  0.00  0.00    +0.045 A 
ATOM     32  S   UNL     1       5.212  -0.119  -1.443  0.00  0.00    -0.101 S 
ATOM     33  C   UNL     1       4.054  -1.287   2.166  0.00  0.00    -0.039 C 
ATOM     34  C   UNL     1       4.044  -2.792   2.440  0.00  0.00    -0.008 C 
ATOM     35  N   UNL     1       2.654  -0.802   2.114  0.00  0.00    +0.390 N 
ATOM     36  H   UNL     1       2.142  -1.345   1.408  0.00  0.00    -0.080 HD
ENDBRANCH  25  35
ENDBRANCH   2  25
TORSDOF 8
