REMARK  Name = ZINC20451021
REMARK  3 active torsions:
REMARK  status: ('A' for Active; 'I' for Inactive)
REMARK    1  A    between atoms: N_5  and  C_6
REMARK    2  A    between atoms: C_6  and  C_7
REMARK    3  A    between atoms: N_22  and  C_23
REMARK                            x       y       z     vdW  Elec       q    Type
REMARK                         _______ _______ _______ _____ _____    ______ ____
ROOT
ATOM      1  C   UNL     1      -4.758   0.046  -3.074  0.00  0.00    +0.200 A 
ATOM      2  N   UNL     1      -6.029  -0.157  -2.844  0.00  0.00    -0.230 NA
ATOM      3  C   UNL     1      -6.483   0.786  -2.008  0.00  0.00    +0.158 A 
ATOM      4  C   UNL     1      -5.410   1.618  -1.703  0.00  0.00    +0.141 A 
ATOM      5  N   UNL     1      -4.336   1.128  -2.384  0.00  0.00    -0.323 N 
ATOM      6  C   UNL     1      -5.413   2.798  -0.823  0.00  0.00    +0.299 A 
ATOM      7  O   UNL     1      -4.351   3.383  -0.699  0.00  0.00    -0.263 OA
ATOM      8  N   UNL     1      -6.455   3.302  -0.141  0.00  0.00    -0.175 NA
ATOM      9  C   UNL     1      -7.703   2.892  -0.079  0.00  0.00    +0.199 A 
ATOM     10  N   UNL     1      -8.347   1.846  -0.669  0.00  0.00    -0.293 N 
ATOM     11  H   UNL     1      -9.417   1.680  -0.477  0.00  0.00    +0.172 HD
ATOM     12  C   UNL     1      -7.867   0.905  -1.512  0.00  0.00    +0.279 A 
ATOM     13  O   UNL     1      -8.659   0.069  -1.902  0.00  0.00    -0.265 OA
ATOM     14  N   UNL     1      -8.501   3.655   0.723  0.00  0.00    -0.312 N 
ATOM     15  H   UNL     1      -9.563   3.399   0.845  0.00  0.00    +0.149 HD
ENDROOT
BRANCH  14  16
ATOM     16  C   UNL     1      -7.941   4.814   1.421  0.00  0.00    +0.073 C 
ATOM     17  C   UNL     1      -7.304   4.359   2.736  0.00  0.00    +0.022 C 
ATOM     18  C   UNL     1      -6.720   5.571   3.466  0.00  0.00    +0.002 C 
ATOM     19  C   UNL     1      -7.835   6.575   3.760  0.00  0.00    +0.000 C 
ATOM     20  C   UNL     1      -8.473   7.030   2.446  0.00  0.00    +0.002 C 
ATOM     21  C   UNL     1      -9.057   5.819   1.716  0.00  0.00    +0.022 C 
ENDBRANCH  14  16
BRANCH   5  22
ATOM     22  C   UNL     1      -2.977   1.676  -2.375  0.00  0.00    +0.155 C 
BRANCH  22  23
ATOM     23  C   UNL     1      -2.212   1.122  -1.172  0.00  0.00    +0.138 C 
ATOM     24  C   UNL     1      -0.757   1.595  -1.230  0.00  0.00    +0.033 C 
ATOM     25  C   UNL     1      -0.013   1.086   0.008  0.00  0.00    +0.005 C 
ATOM     26  C   UNL     1      -0.733   1.582   1.266  0.00  0.00    +0.028 C 
ATOM     27  C   UNL     1      -2.191   1.109   1.226  0.00  0.00    +0.160 C 
ATOM     28  O   UNL     1      -2.816   1.591   0.035  0.00  0.00    -0.375 OA
ENDBRANCH  22  23
ENDBRANCH   5  22
TORSDOF 3
