REMARK  Name = ZINC22602719
REMARK  4 active torsions:
REMARK  status: ('A' for Active; 'I' for Inactive)
REMARK    1  A    between atoms: C_3  and  N_21
REMARK    2  A    between atoms: C_4  and  N_10
REMARK    3  A    between atoms: C_6  and  C_7
REMARK    4  A    between atoms: C_11  and  C_13
REMARK                            x       y       z     vdW  Elec       q    Type
REMARK                         _______ _______ _______ _____ _____    ______ ____
ROOT
ATOM      1  C   UNL     1       1.181   1.494  -0.133  0.00  0.00    +0.015 A 
ATOM      2  C   UNL     1      -0.067   0.917  -0.044  0.00  0.00    +0.026 A 
ATOM      3  C   UNL     1      -1.203   1.716   0.001  0.00  0.00    +0.051 A 
ATOM      4  C   UNL     1      -1.083   3.109  -0.031  0.00  0.00    +0.056 A 
ATOM      5  C   UNL     1       0.167   3.691  -0.120  0.00  0.00    +0.038 A 
ATOM      6  C   UNL     1       1.308   2.885  -0.171  0.00  0.00    +0.038 A 
ENDROOT
BRANCH   6   7
ATOM      7  C   UNL     1       2.645   3.502  -0.266  0.00  0.00    +0.242 C 
ATOM      8  O   UNL     1       2.755   4.712  -0.299  0.00  0.00    -0.270 OA
ATOM      9  N   UNL     1       3.744   2.724  -0.315  0.00  0.00    -0.325 N 
ATOM     10  H   UNL     1       4.741   3.184  -0.386  0.00  0.00    +0.145 HD
ATOM     11  H   UNL     1       3.645   1.629  -0.285  0.00  0.00    +0.145 HD
ENDBRANCH   6   7
BRANCH   3  12
ATOM     12  N   UNL     1      -2.463   1.129   0.084  0.00  0.00    -0.328 N 
ATOM     13  C   UNL     1      -2.354  -0.338   0.287  0.00  0.00    +0.105 C 
ATOM     14  C   UNL     1      -3.739  -0.719   0.869  0.00  0.00    +0.020 C 
ATOM     15  C   UNL     1      -4.071   0.482   1.784  0.00  0.00    +0.020 C 
ATOM     16  C   UNL     1      -3.212   1.643   1.252  0.00  0.00    +0.105 C 
ENDBRANCH   3  12
BRANCH   4  17
ATOM     17  N   UNL     1      -2.229   3.913   0.021  0.00  0.00    -0.279 N 
ATOM     18  C   UNL     1      -2.191   5.099   0.660  0.00  0.00    +0.268 C 
ATOM     19  O   UNL     1      -1.143   5.508   1.121  0.00  0.00    -0.268 OA
ATOM     20  H   UNL     1      -3.159   3.576  -0.460  0.00  0.00    +0.155 HD
BRANCH  18  21
ATOM     21  C   UNL     1      -3.426   5.904   0.800  0.00  0.00    +0.146 A 
ATOM     22  C   UNL     1      -3.381   7.130   1.462  0.00  0.00    +0.072 A 
ATOM     23  C   UNL     1      -4.546   7.873   1.586  0.00  0.00    +0.025 A 
ATOM     24  C   UNL     1      -5.715   7.364   1.043  0.00  0.00    +0.041 A 
ATOM     25  C   UNL     1      -5.687   6.136   0.397  0.00  0.00    +0.130 A 
ATOM     26  N   UNL     1      -4.566   5.454   0.290  0.00  0.00    -0.229 NA
ATOM     27 CL   UNL     1      -7.148   5.494  -0.285  0.00  0.00    -0.062 Cl
ATOM     28 CL   UNL     1      -1.887   7.719   2.123  0.00  0.00    -0.081 Cl
ENDBRANCH  18  21
ENDBRANCH   4  17
TORSDOF 4
