REMARK  Name = ZINC37302455
REMARK  5 active torsions:
REMARK  status: ('A' for Active; 'I' for Inactive)
REMARK    1  A    between atoms: C_1  and  C_2
REMARK    2  A    between atoms: C_4  and  C_20
REMARK    3  A    between atoms: C_6  and  N_8
REMARK    4  A    between atoms: N_8  and  C_9
REMARK    5  A    between atoms: C_9  and  C_10
REMARK                            x       y       z     vdW  Elec       q    Type
REMARK                         _______ _______ _______ _____ _____    ______ ____
ROOT
ATOM      1  C   UNL     1       0.048  -2.073   3.665  0.00  0.00    +0.137 C 
ENDROOT
BRANCH   1   2
ATOM      2  C   UNL     1       0.067  -3.061   4.803  0.00  0.00    -0.025 A 
ATOM      3  C   UNL     1      -1.123  -3.533   5.326  0.00  0.00    +0.054 A 
ATOM      4  C   UNL     1      -1.109  -4.442   6.372  0.00  0.00    +0.168 A 
ATOM      5  C   UNL     1       0.106  -4.878   6.894  0.00  0.00    +0.184 A 
ATOM      6  C   UNL     1       1.295  -4.400   6.366  0.00  0.00    +0.087 A 
ATOM      7  C   UNL     1       1.273  -3.497   5.317  0.00  0.00    +0.029 A 
ATOM      8 CL   UNL     1       2.812  -4.940   7.014  0.00  0.00    -0.080 Cl
ATOM      9  O   UNL     1      -0.145  -5.760   7.905  0.00  0.00    -0.451 OA
ATOM     10  C   UNL     1      -1.523  -5.548   8.266  0.00  0.00    +0.466 C 
ATOM     11  O   UNL     1      -2.122  -5.051   7.055  0.00  0.00    -0.453 OA
ENDBRANCH   1   2
BRANCH   1  12
ATOM     12  N   UNL     1       0.051  -2.796   2.390  0.00  0.00    -0.340 N 
ATOM     13  H   UNL     1       0.064  -3.766   2.383  0.00  0.00    +0.146 HD
BRANCH  12  19
ATOM     14  C   UNL     1      -0.018   1.503   0.010  0.00  0.00    +0.044 C 
ATOM     15  C   UNL     1       0.002  -0.004   0.002  0.00  0.00    -0.048 A 
ATOM     16  C   UNL     1       0.006  -0.688  -1.200  0.00  0.00    +0.006 A 
ATOM     17  C   UNL     1       0.024  -2.071  -1.212  0.00  0.00    -0.048 A 
ATOM     18  C   UNL     1       0.039  -2.773  -0.023  0.00  0.00    +0.026 A 
ATOM     19  C   UNL     1       0.036  -2.089   1.186  0.00  0.00    +0.028 A 
ATOM     20  C   UNL     1       0.023  -0.700   1.195  0.00  0.00    +0.026 A 
ATOM     21  C   UNL     1       0.027  -2.812  -2.524  0.00  0.00    +0.044 C 
ENDBRANCH  12  19
ENDBRANCH   1  12
TORSDOF 3
