REMARK  Name = ZINC23140402
REMARK  10 active torsions:
REMARK  status: ('A' for Active; 'I' for Inactive)
REMARK    1  A    between atoms: C_1  and  C_2
REMARK    2  A    between atoms: C_2  and  C_3
REMARK    3  A    between atoms: C_6  and  S_9
REMARK    4  A    between atoms: S_9  and  N_12
REMARK    5  A    between atoms: C_16  and  C_19
REMARK    6  A    between atoms: C_22  and  C_24
REMARK    7  A    between atoms: C_24  and  C_25
REMARK    8  A    between atoms: C_25  and  C_26
REMARK    9  A    between atoms: C_25  and  C_27
REMARK   10  A    between atoms: C_25  and  C_28
REMARK                            x       y       z     vdW  Elec       q    Type
REMARK                         _______ _______ _______ _____ _____    ______ ____
ROOT
ATOM      1  N   UNL     1      -0.729   1.575  -1.178  0.00  0.00    -0.176 NA
ATOM      2  C   UNL     1      -0.013   1.086   0.008  0.00  0.00    +0.109 C 
ATOM      3  C   UNL     1      -0.736   1.583   1.264  0.00  0.00    +0.018 C 
ATOM      4  C   UNL     1      -2.208   1.161   1.197  0.00  0.00    +0.015 C 
ATOM      5  C   UNL     1      -2.869   1.797  -0.028  0.00  0.00    +0.092 C 
ATOM      6  C   UNL     1      -2.168   1.303  -1.297  0.00  0.00    +0.122 C 
ENDROOT
BRANCH   5   7
ATOM      7  C   UNL     1      -4.324   1.408  -0.074  0.00  0.00    +0.222 A 
ATOM      8  N   UNL     1      -4.796   0.196  -0.148  0.00  0.00    -0.112 NA
ATOM      9  N   UNL     1      -6.082   0.238  -0.167  0.00  0.00    -0.112 NA
ATOM     10  C   UNL     1      -6.474   1.478  -0.104  0.00  0.00    +0.218 A 
ATOM     11  O   UNL     1      -5.374   2.246  -0.038  0.00  0.00    -0.424 OA
BRANCH  10  12
ATOM     12  C   UNL     1      -7.901   1.963  -0.101  0.00  0.00    +0.104 C 
BRANCH  12  13
ATOM     13  C   UNL     1      -8.407   2.048   1.341  0.00  0.00    -0.029 C 
ATOM     14  C   UNL     1      -7.535   3.025   2.131  0.00  0.00    +0.011 C 
ATOM     15  C   UNL     1      -9.856   2.540   1.345  0.00  0.00    +0.011 C 
ATOM     16  C   UNL     1      -8.337   0.663   1.988  0.00  0.00    +0.011 C 
ENDBRANCH  12  13
ENDBRANCH  10  12
ENDBRANCH   5   7
BRANCH   1  17
ATOM     17  S   UNL     1       0.071   2.417  -2.359  0.00  0.00    +0.061 S 
ATOM     18  O   UNL     1      -0.905   3.203  -3.029  0.00  0.00    -0.153 OA
ATOM     19  O   UNL     1       1.218   2.989  -1.744  0.00  0.00    -0.153 OA
BRANCH  17  23
ATOM     20  C   UNL     1       1.587  -0.607  -5.367  0.00  0.00    -0.048 A 
ATOM     21  C   UNL     1       0.335  -0.042  -5.525  0.00  0.00    +0.005 A 
ATOM     22  C   UNL     1      -0.128   0.881  -4.606  0.00  0.00    +0.029 A 
ATOM     23  C   UNL     1       0.661   1.240  -3.529  0.00  0.00    +0.105 A 
ATOM     24  C   UNL     1       1.915   0.679  -3.374  0.00  0.00    +0.029 A 
ATOM     25  C   UNL     1       2.376  -0.247  -4.290  0.00  0.00    +0.005 A 
BRANCH  20  27
ATOM     26  C   UNL     1       2.840  -0.890  -7.487  0.00  0.00    +0.009 C 
ATOM     27  C   UNL     1       2.091  -1.615  -6.367  0.00  0.00    +0.032 C 
ENDBRANCH  20  27
ENDBRANCH  17  23
ENDBRANCH   1  17
TORSDOF 6
