REMARK  Name = ZINC58762114
REMARK  9 active torsions:
REMARK  status: ('A' for Active; 'I' for Inactive)
REMARK    1  A    between atoms: C_1  and  C_2
REMARK    2  A    between atoms: C_7  and  N_8
REMARK    3  A    between atoms: C_9  and  C_11
REMARK    4  A    between atoms: C_11  and  C_13
REMARK    5  A    between atoms: C_11  and  O_14
REMARK    6  A    between atoms: O_14  and  C_15
REMARK    7  A    between atoms: C_15  and  C_17
REMARK    8  A    between atoms: C_20  and  S_22
REMARK    9  A    between atoms: S_22  and  N_25
REMARK                            x       y       z     vdW  Elec       q    Type
REMARK                         _______ _______ _______ _____ _____    ______ ____
ROOT
ATOM      1  C   UNL     1      -0.168   0.054   4.882  0.00  0.00    +0.259 C 
ATOM      2  C   UNL     1       1.114   0.853   5.123  0.00  0.00    +0.062 C 
ENDROOT
BRANCH   1   4
ATOM      3  N   UNL     1       0.025  -0.014   2.417  0.00  0.00    -0.282 N 
ATOM      4  C   UNL     1      -0.056  -0.693   3.578  0.00  0.00    +0.258 C 
ATOM      5  O   UNL     1      -0.040  -1.906   3.574  0.00  0.00    -0.271 OA
ATOM      6  H   UNL     1       0.078   0.955   2.424  0.00  0.00    +0.155 HD
BRANCH   3  13
ATOM      7  C   UNL     1      -1.265   1.183   0.181  0.00  0.00    +0.045 C 
ATOM      8  C   UNL     1      -0.584  -0.158   0.084  0.00  0.00    -0.029 A 
ATOM      9  C   UNL     1      -0.569  -0.840  -1.117  0.00  0.00    +0.006 A 
ATOM     10  C   UNL     1       0.055  -2.070  -1.207  0.00  0.00    +0.020 A 
ATOM     11  C   UNL     1       0.667  -2.622  -0.095  0.00  0.00    +0.043 A 
ATOM     12  C   UNL     1       0.655  -1.944   1.109  0.00  0.00    +0.043 A 
ATOM     13  C   UNL     1       0.034  -0.706   1.201  0.00  0.00    +0.038 A 
ATOM     14 CL   UNL     1       1.450  -4.168  -0.213  0.00  0.00    -0.083 Cl
ENDBRANCH   3  13
ENDBRANCH   1   4
BRANCH   1  15
ATOM     15  O   UNL     1      -0.356  -0.877   5.950  0.00  0.00    -0.447 OA
BRANCH  15  16
ATOM     16  C   UNL     1      -1.066  -0.451   7.015  0.00  0.00    +0.376 C 
ATOM     17  O   UNL     1      -1.512   0.680   7.036  0.00  0.00    -0.241 OA
BRANCH  16  18
ATOM     18  C   UNL     1      -1.299  -1.351   8.147  0.00  0.00    +0.214 A 
ATOM     19  C   UNL     1      -2.001  -1.051   9.280  0.00  0.00    +0.059 A 
ATOM     20  C   UNL     1      -1.972  -2.198  10.088  0.00  0.00    +0.072 A 
ATOM     21  C   UNL     1      -1.263  -3.136   9.422  0.00  0.00    +0.258 A 
ATOM     22  O   UNL     1      -0.863  -2.624   8.251  0.00  0.00    -0.430 OA
BRANCH  21  23
ATOM     23  S   UNL     1      -0.924  -4.767   9.997  0.00  0.00    +0.089 S 
ATOM     24  O   UNL     1       0.249  -5.200   9.322  0.00  0.00    -0.150 OA
ATOM     25  O   UNL     1      -1.016  -4.724  11.415  0.00  0.00    -0.150 OA
BRANCH  23  26
ATOM     26  N   UNL     1      -2.158  -5.738   9.472  0.00  0.00    -0.201 NA
ATOM     27  H   UNL     1      -2.883  -5.361   8.948  0.00  0.00    +0.144 HD
ATOM     28  H   UNL     1      -2.157  -6.683   9.688  0.00  0.00    +0.144 HD
ENDBRANCH  23  26
ENDBRANCH  21  23
ENDBRANCH  16  18
ENDBRANCH  15  16
ENDBRANCH   1  15
TORSDOF 7
