REMARK  Name = ZINC13007973
REMARK  9 active torsions:
REMARK  status: ('A' for Active; 'I' for Inactive)
REMARK    1  A    between atoms: C_1  and  N_2
REMARK    2  A    between atoms: C_9  and  C_11
REMARK    3  A    between atoms: C_11  and  C_13
REMARK    4  A    between atoms: C_11  and  N_64
REMARK    5  A    between atoms: C_13  and  N_14
REMARK    6  A    between atoms: C_15  and  C_17
REMARK    7  A    between atoms: N_19  and  C_20
REMARK    8  A    between atoms: C_25  and  S_26
REMARK    9  A    between atoms: S_26  and  C_27
REMARK                            x       y       z     vdW  Elec       q    Type
REMARK                         _______ _______ _______ _____ _____    ______ ____
ROOT
ATOM      1  C   UNL     1      -3.374   6.182  -0.986  0.00  0.00    -0.020 C 
ENDROOT
BRANCH   1  10
ATOM      2  C   UNL     1       0.465   1.684   1.639  0.00  0.00    +0.129 C 
ATOM      3  N   UNL     1      -0.658   1.499   0.710  0.00  0.00    -0.332 N 
ATOM      4  C   UNL     1      -0.192   0.957  -0.584  0.00  0.00    +0.109 C 
ATOM      5  C   UNL     1      -1.199   1.561  -1.591  0.00  0.00    +0.056 C 
ATOM      6  C   UNL     1      -1.669   2.817  -0.885  0.00  0.00    -0.025 A 
ATOM      7  C   UNL     1      -1.311   2.715   0.455  0.00  0.00    +0.033 A 
ATOM      8  C   UNL     1      -1.628   3.758   1.322  0.00  0.00    +0.023 A 
ATOM      9  C   UNL     1      -2.291   4.873   0.853  0.00  0.00    +0.004 A 
ATOM     10  C   UNL     1      -2.647   4.963  -0.480  0.00  0.00    -0.059 A 
ATOM     11  C   UNL     1      -2.334   3.932  -1.348  0.00  0.00    +0.007 A 
ENDBRANCH   1  10
BRANCH   1  17
ATOM     12  C   UNL     1      -5.620   7.055  -0.757  0.00  0.00    -0.078 C 
ATOM     13  C   UNL     1      -6.761   7.282   0.238  0.00  0.00    -0.019 C 
ATOM     14  C   UNL     1      -6.309   8.282   1.306  0.00  0.00    -0.004 C 
ATOM     15  C   UNL     1      -5.054   7.745   1.999  0.00  0.00    -0.019 C 
ATOM     16  C   UNL     1      -3.963   7.506   0.953  0.00  0.00    -0.078 C 
ATOM     17  N   UNL     1      -4.450   6.516  -0.031  0.00  0.00    +0.385 N 
ATOM     18  H   UNL     1      -4.732   5.663   0.466  0.00  0.00    -0.081 HD
ENDBRANCH   1  17
BRANCH   1  19
ATOM     19  C   UNL     1      -2.390   7.347  -1.110  0.00  0.00    +0.094 C 
BRANCH  19  20
ATOM     20  N   UNL     1      -3.085   8.517  -1.653  0.00  0.00    -0.309 N 
ATOM     21  C   UNL     1      -2.447   9.702  -1.736  0.00  0.00    +0.299 C 
ATOM     22  O   UNL     1      -1.296   9.799  -1.361  0.00  0.00    -0.265 OA
ATOM     23  H   UNL     1      -4.004   8.440  -1.952  0.00  0.00    +0.149 HD
BRANCH  21  24
ATOM     24  C   UNL     1      -3.155  10.894  -2.289  0.00  0.00    +0.303 C 
ATOM     25  O   UNL     1      -4.306  10.797  -2.664  0.00  0.00    -0.265 OA
ATOM     26  N   UNL     1      -2.517  12.078  -2.372  0.00  0.00    -0.277 N 
ATOM     27  H   UNL     1      -1.577  12.140  -2.138  0.00  0.00    +0.155 HD
BRANCH  26  28
ATOM     28  C   UNL     1      -3.209  13.217  -2.796  0.00  0.00    +0.047 A 
ATOM     29  C   UNL     1      -4.552  13.373  -2.483  0.00  0.00    +0.024 A 
ATOM     30  C   UNL     1      -5.232  14.502  -2.897  0.00  0.00    +0.002 A 
ATOM     31  C   UNL     1      -4.582  15.475  -3.635  0.00  0.00    +0.001 A 
ATOM     32  C   UNL     1      -3.246  15.327  -3.957  0.00  0.00    +0.016 A 
ATOM     33  C   UNL     1      -2.553  14.199  -3.540  0.00  0.00    +0.029 A 
BRANCH  33  34
ATOM     34  S   UNL     1      -0.850  14.008  -3.949  0.00  0.00    -0.127 S 
ATOM     35  C   UNL     1      -0.455  15.502  -4.898  0.00  0.00    +0.090 C 
ENDBRANCH  33  34
ENDBRANCH  26  28
ENDBRANCH  21  24
ENDBRANCH  19  20
ENDBRANCH   1  19
TORSDOF 7
