REMARK  Name = ZINC36986970
REMARK  7 active torsions:
REMARK  status: ('A' for Active; 'I' for Inactive)
REMARK    1  A    between atoms: C_1  and  C_2
REMARK    2  A    between atoms: C_5  and  C_18
REMARK    3  A    between atoms: N_8  and  C_10
REMARK    4  A    between atoms: C_10  and  C_11
REMARK    5  A    between atoms: C_11  and  C_13
REMARK    6  A    between atoms: C_11  and  C_14
REMARK    7  A    between atoms: N_15  and  O_16
REMARK                            x       y       z     vdW  Elec       q    Type
REMARK                         _______ _______ _______ _____ _____    ______ ____
ROOT
ATOM      1  C   UNL     1       0.807  -0.464   3.639  0.00  0.00    -0.068 C 
ENDROOT
BRANCH   1   7
ATOM      2  C   UNL     1      -0.019   1.526   0.010  0.00  0.00    +0.005 C 
ATOM      3  C   UNL     1       0.002  -0.004   0.002  0.00  0.00    -0.031 C 
ATOM      4  C   UNL     1      -1.434  -0.535   0.015  0.00  0.00    +0.003 C 
ATOM      5  C   UNL     1      -2.117  -0.099   1.315  0.00  0.00    -0.031 C 
ATOM      6  C   UNL     1      -1.302  -0.604   2.507  0.00  0.00    -0.076 C 
ATOM      7  N   UNL     1       0.052  -0.040   2.452  0.00  0.00    +0.380 N 
ATOM      8  C   UNL     1       0.740  -0.512   1.242  0.00  0.00    -0.076 C 
ATOM      9  C   UNL     1      -3.528  -0.689   1.373  0.00  0.00    +0.005 C 
ATOM     10  H   UNL     1      -0.004   0.967   2.434  0.00  0.00    -0.082 HD
ENDBRANCH   1   7
BRANCH   1  11
ATOM     11  C   UNL     1       2.174   0.221   3.646  0.00  0.00    +0.036 C 
ATOM     12  C   UNL     1       1.987   1.732   3.804  0.00  0.00    +0.013 C 
BRANCH  11  13
ATOM     13  C   UNL     1       2.995  -0.306   4.795  0.00  0.00    +0.133 C 
ATOM     14  N   UNL     1       3.014   0.329   5.920  0.00  0.00    -0.077 NA
ATOM     15  N   UNL     1       3.724  -1.465   4.646  0.00  0.00    -0.344 N 
ATOM     16  H   UNL     1       3.709  -1.942   3.801  0.00  0.00    +0.144 HD
ATOM     17  H   UNL     1       4.252  -1.804   5.385  0.00  0.00    +0.144 HD
BRANCH  14  18
ATOM     18  O   UNL     1       3.785  -0.166   6.999  0.00  0.00    -0.408 OA
ATOM     19  H   UNL     1       3.737   0.376   7.798  0.00  0.00    +0.328 HD
ENDBRANCH  14  18
ENDBRANCH  11  13
ENDBRANCH   1  11
TORSDOF 4
