REMARK  Name = ZINC04245239
REMARK  4 active torsions:
REMARK  status: ('A' for Active; 'I' for Inactive)
REMARK    1  A    between atoms: C_6  and  C_7
REMARK    2  A    between atoms: C_10  and  C_12
REMARK    3  A    between atoms: C_12  and  C_14
REMARK    4  A    between atoms: C_19  and  N_20
REMARK                            x       y       z     vdW  Elec       q    Type
REMARK                         _______ _______ _______ _____ _____    ______ ____
ROOT
ATOM      1  C   UNL     1       0.042   1.608  -0.714  0.00  0.00    +0.230 C 
ATOM      2  O   UNL     1      -1.006   2.228  -0.746  0.00  0.00    -0.283 OA
ENDROOT
BRANCH   1   3
ATOM      3  C   UNL     1       1.291   2.292  -0.338  0.00  0.00    +0.050 A 
ATOM      4  C   UNL     1       2.517   1.624  -0.437  0.00  0.00    +0.063 A 
ATOM      5  C   UNL     1       3.686   2.267  -0.086  0.00  0.00    +0.163 A 
ATOM      6  C   UNL     1       3.650   3.586   0.368  0.00  0.00    +0.164 A 
ATOM      7  C   UNL     1       2.440   4.256   0.470  0.00  0.00    +0.072 A 
ATOM      8  C   UNL     1       1.259   3.621   0.116  0.00  0.00    +0.039 A 
ATOM      9  O   UNL     1       4.796   4.232   0.713  0.00  0.00    -0.485 OA
ATOM     10  C   UNL     1       5.947   3.417   0.958  0.00  0.00    +0.270 C 
ATOM     11  C   UNL     1       6.060   2.391  -0.177  0.00  0.00    +0.270 C 
ATOM     12  O   UNL     1       4.868   1.597  -0.185  0.00  0.00    -0.485 OA
BRANCH   8  13
ATOM     13  N   UNL     1       0.047   4.296   0.215  0.00  0.00    -0.357 N 
ATOM     14  H   UNL     1      -0.782   3.797   0.287  0.00  0.00    +0.142 HD
ATOM     15  H   UNL     1       0.030   5.266   0.211  0.00  0.00    +0.142 HD
ENDBRANCH   8  13
ENDBRANCH   1   3
BRANCH   1  19
ATOM     16  C   UNL     1       0.795  -1.840  -1.492  0.00  0.00    +0.136 A 
ATOM     17  C   UNL     1      -0.566  -1.885  -1.597  0.00  0.00    +0.050 A 
ATOM     18  C   UNL     1      -1.042  -0.600  -1.320  0.00  0.00    +0.054 A 
ATOM     19  C   UNL     1       0.061   0.184  -1.055  0.00  0.00    +0.176 A 
ATOM     20  O   UNL     1       1.162  -0.588  -1.171  0.00  0.00    -0.452 OA
BRANCH  16  26
ATOM     21  C   UNL     1       1.204  -4.236  -2.036  0.00  0.00    +0.013 A 
ATOM     22  C   UNL     1       2.066  -5.294  -2.237  0.00  0.00    +0.021 A 
ATOM     23  C   UNL     1       3.432  -5.113  -2.099  0.00  0.00    +0.041 A 
ATOM     24  C   UNL     1       3.942  -3.869  -1.765  0.00  0.00    +0.021 A 
ATOM     25  C   UNL     1       3.091  -2.803  -1.566  0.00  0.00    +0.013 A 
ATOM     26  C   UNL     1       1.712  -2.978  -1.704  0.00  0.00    +0.017 A 
ATOM     27 CL   UNL     1       4.510  -6.451  -2.347  0.00  0.00    -0.084 Cl
ENDBRANCH  16  26
ENDBRANCH   1  19
TORSDOF 4
