REMARK  Name = ZINC09822617
REMARK  4 active torsions:
REMARK  status: ('A' for Active; 'I' for Inactive)
REMARK    1  A    between atoms: N_13  and  C_17
REMARK    2  A    between atoms: C_17  and  C_18
REMARK    3  A    between atoms: C_23  and  C_31
REMARK    4  A    between atoms: C_24  and  C_26
REMARK                            x       y       z     vdW  Elec       q    Type
REMARK                         _______ _______ _______ _____ _____    ______ ____
ROOT
ATOM      1  C   UNL     1       3.869  -1.319  -0.042  0.00  0.00    +0.237 C 
ATOM      2  O   UNL     1       4.429  -0.244  -0.042  0.00  0.00    -0.274 OA
ATOM      3  N   UNL     1       2.523  -1.378  -0.029  0.00  0.00    -0.263 N 
ATOM      4  C   UNL     1       1.777  -0.207  -0.016  0.00  0.00    +0.166 A 
ATOM      5  N   UNL     1       2.196   1.044  -0.013  0.00  0.00    -0.221 NA
ATOM      6  C   UNL     1       1.348   2.059   0.000  0.00  0.00    +0.126 A 
ATOM      7  C   UNL     1      -0.022   1.784   0.012  0.00  0.00    +0.086 A 
ATOM      8  S   UNL     1       0.002  -0.004   0.002  0.00  0.00    -0.048 S 
ATOM      9  H   UNL     1       2.075  -2.238  -0.030  0.00  0.00    +0.157 HD
ENDROOT
BRANCH   7  10
ATOM     10  C   UNL     1      -1.164   2.706   0.023  0.00  0.00    +0.144 A 
ATOM     11  C   UNL     1      -2.482   2.350   0.022  0.00  0.00    +0.050 A 
ATOM     12  C   UNL     1      -3.224   3.547   0.038  0.00  0.00    +0.042 A 
ATOM     13  C   UNL     1      -2.338   4.563   0.038  0.00  0.00    +0.196 A 
ATOM     14  O   UNL     1      -1.094   4.052   0.029  0.00  0.00    -0.462 OA
ENDBRANCH   7  10
BRANCH   6  15
ATOM     15  C   UNL     1       1.837   3.450   0.003  0.00  0.00    +0.154 A 
ATOM     16  C   UNL     1       2.960   3.901   0.627  0.00  0.00    +0.051 A 
ATOM     17  C   UNL     1       3.040   5.284   0.367  0.00  0.00    +0.042 A 
ATOM     18  C   UNL     1       1.976   5.606  -0.394  0.00  0.00    +0.196 A 
ATOM     19  O   UNL     1       1.254   4.494  -0.617  0.00  0.00    -0.461 OA
ENDBRANCH   6  15
BRANCH   1  20
ATOM     20  C   UNL     1       4.678  -2.591  -0.057  0.00  0.00    +0.214 C 
BRANCH  20  33
ATOM     21  C   UNL     1       9.269   2.182  -1.993  0.00  0.00    +0.000 A 
ATOM     22  C   UNL     1       7.999   1.901  -1.524  0.00  0.00    +0.000 A 
ATOM     23  C   UNL     1       7.686   0.620  -1.120  0.00  0.00    +0.006 A 
ATOM     24  C   UNL     1       8.636  -0.391  -1.179  0.00  0.00    -0.012 A 
ATOM     25  C   UNL     1       9.900  -0.111  -1.649  0.00  0.00    -0.042 A 
ATOM     26  C   UNL     1      10.214   1.179  -2.054  0.00  0.00    +0.004 A 
ATOM     27  C   UNL     1      10.974  -1.162  -1.752  0.00  0.00    +0.035 C 
ATOM     28  C   UNL     1      10.637  -2.366  -0.875  0.00  0.00    +0.008 C 
ATOM     29  C   UNL     1       9.212  -2.825  -1.208  0.00  0.00    +0.040 C 
ATOM     30  C   UNL     1       8.235  -1.764  -0.718  0.00  0.00    +0.138 C 
ATOM     31  C   UNL     1       6.835  -2.089  -1.190  0.00  0.00    +0.251 C 
ATOM     32  O   UNL     1       6.449  -2.175  -2.336  0.00  0.00    -0.272 OA
ATOM     33  N   UNL     1       6.106  -2.261  -0.068  0.00  0.00    -0.215 N 
ATOM     34  C   UNL     1       6.849  -2.098   1.032  0.00  0.00    +0.310 C 
ATOM     35  O   UNL     1       6.416  -2.206   2.163  0.00  0.00    -0.252 OA
ATOM     36  N   UNL     1       8.131  -1.800   0.747  0.00  0.00    -0.281 N 
ATOM     37  H   UNL     1       8.845  -1.641   1.384  0.00  0.00    +0.152 HD
ENDBRANCH  20  33
ENDBRANCH   1  20
TORSDOF 4
