REMARK  Name = ZINC04143908
REMARK  6 active torsions:
REMARK  status: ('A' for Active; 'I' for Inactive)
REMARK    1  A    between atoms: C_1  and  C_2
REMARK    2  A    between atoms: C_3  and  C_25
REMARK    3  A    between atoms: C_5  and  N_9
REMARK    4  A    between atoms: C_6  and  C_7
REMARK    5  A    between atoms: C_10  and  C_12
REMARK    6  A    between atoms: C_19  and  C_21
REMARK                            x       y       z     vdW  Elec       q    Type
REMARK                         _______ _______ _______ _____ _____    ______ ____
ROOT
ATOM      1  N   UNL     1      -0.132   0.299  -3.678  0.00  0.00    -0.279 N 
ATOM      2  C   UNL     1      -0.393   0.408  -2.360  0.00  0.00    +0.222 C 
ATOM      3  O   UNL     1      -1.314   1.100  -1.980  0.00  0.00    -0.275 OA
ATOM      4  H   UNL     1       0.605  -0.254  -3.982  0.00  0.00    +0.155 HD
ENDROOT
BRANCH   1   9
ATOM      5  C   UNL     1      -1.739   1.882  -8.210  0.00  0.00    +0.046 C 
ATOM      6  C   UNL     1      -1.763   1.793  -6.706  0.00  0.00    -0.021 A 
ATOM      7  C   UNL     1      -2.680   2.457  -5.978  0.00  0.00    -0.007 A 
ATOM      8  S   UNL     1      -2.275   2.010  -4.303  0.00  0.00    -0.077 S 
ATOM      9  C   UNL     1      -0.916   0.979  -4.600  0.00  0.00    +0.090 A 
ATOM     10  C   UNL     1      -0.804   0.992  -5.984  0.00  0.00    +0.083 A 
ATOM     11  C   UNL     1      -3.787   3.357  -6.464  0.00  0.00    +0.052 C 
BRANCH  10  12
ATOM     12  C   UNL     1       0.213   0.246  -6.662  0.00  0.00    +0.102 C 
ATOM     13  N   UNL     1       1.019  -0.346  -7.200  0.00  0.00    -0.191 NA
ENDBRANCH  10  12
ENDBRANCH   1   9
BRANCH   2  14
ATOM     14  C   UNL     1       0.458  -0.329  -1.359  0.00  0.00    +0.096 C 
ATOM     15  C   UNL     1      -0.084  -0.111   0.089  0.00  0.00    +0.025 C 
ATOM     16  C   UNL     1       1.229  -0.348   0.922  0.00  0.00    +0.016 C 
ATOM     17  C   UNL     1       2.024   0.776   0.161  0.00  0.00    +0.027 C 
ATOM     18  C   UNL     1       1.885   0.271  -1.311  0.00  0.00    +0.121 C 
ATOM     19  C   UNL     1       1.012   1.923   0.259  0.00  0.00    -0.027 C 
ATOM     20  C   UNL     1      -0.203   1.413   0.217  0.00  0.00    -0.027 C 
BRANCH  18  21
ATOM     21  C   UNL     1       2.010   1.419  -2.279  0.00  0.00    +0.360 C 
ATOM     22  O   UNL     1       1.312   2.397  -2.149  0.00  0.00    -0.246 OA
ATOM     23  O   UNL     1       2.895   1.355  -3.286  0.00  0.00    -0.246 OA
ENDBRANCH  18  21
ENDBRANCH   2  14
TORSDOF 4
