REMARK  Name = ZINC31853532
REMARK  7 active torsions:
REMARK  status: ('A' for Active; 'I' for Inactive)
REMARK    1  A    between atoms: C_1  and  C_2
REMARK    2  A    between atoms: C_2  and  C_3
REMARK    3  A    between atoms: C_2  and  C_4
REMARK    4  A    between atoms: C_2  and  C_5
REMARK    5  A    between atoms: C_12  and  C_16
REMARK    6  A    between atoms: N_18  and  N_19
REMARK    7  A    between atoms: C_20  and  C_21
REMARK                            x       y       z     vdW  Elec       q    Type
REMARK                         _______ _______ _______ _____ _____    ______ ____
ROOT
ATOM      1  C   UNL     1       4.741   1.243   0.266  0.00  0.00    +0.276 C 
ATOM      2  O   UNL     1       5.767   1.866   0.442  0.00  0.00    -0.270 OA
ATOM      3  N   UNL     1       3.578   1.899   0.077  0.00  0.00    -0.204 N 
ATOM      4  H   UNL     1       2.648   1.334  -0.083  0.00  0.00    +0.177 HD
ENDROOT
BRANCH   1  12
ATOM      5  C   UNL     1       7.739  -3.964   0.640  0.00  0.00    -0.038 A 
ATOM      6  C   UNL     1       6.923  -4.699  -0.198  0.00  0.00    +0.008 A 
ATOM      7  C   UNL     1       5.818  -4.110  -0.784  0.00  0.00    +0.050 A 
ATOM      8  C   UNL     1       5.527  -2.777  -0.532  0.00  0.00    +0.162 A 
ATOM      9  C   UNL     1       6.349  -2.037   0.309  0.00  0.00    +0.163 A 
ATOM     10  C   UNL     1       7.455  -2.636   0.895  0.00  0.00    +0.053 A 
ATOM     11  O   UNL     1       6.086  -0.726   0.564  0.00  0.00    -0.472 OA
ATOM     12  C   UNL     1       4.766  -0.264   0.257  0.00  0.00    +0.297 C 
ATOM     13  C   UNL     1       4.388  -0.780  -1.137  0.00  0.00    +0.283 C 
ATOM     14  O   UNL     1       4.434  -2.211  -1.114  0.00  0.00    -0.484 OA
BRANCH   5  16
ATOM     15  C   UNL     1       9.029  -6.073   0.834  0.00  0.00    +0.015 C 
ATOM     16  C   UNL     1       8.942  -4.611   1.277  0.00  0.00    -0.013 C 
ATOM     17  C   UNL     1      10.209  -3.871   0.843  0.00  0.00    +0.015 C 
ATOM     18  C   UNL     1       8.810  -4.546   2.800  0.00  0.00    +0.015 C 
ENDBRANCH   5  16
ENDBRANCH   1  12
BRANCH   3  19
ATOM     19  N   UNL     1       3.555   3.300   0.085  0.00  0.00    -0.188 NA
ATOM     20  C   UNL     1       2.422   3.930   0.031  0.00  0.00    +0.138 C 
BRANCH  20  21
ATOM     21  C   UNL     1       1.192   3.279   0.519  0.00  0.00    -0.002 A 
ATOM     22  C   UNL     1      -0.059   3.807   0.189  0.00  0.00    +0.013 A 
ATOM     23  C   UNL     1      -1.207   3.197   0.646  0.00  0.00    +0.050 A 
ATOM     24  C   UNL     1      -1.126   2.062   1.440  0.00  0.00    +0.166 A 
ATOM     25  C   UNL     1       0.119   1.526   1.769  0.00  0.00    +0.167 A 
ATOM     26  C   UNL     1       1.274   2.133   1.313  0.00  0.00    +0.059 A 
ATOM     27  O   UNL     1      -0.074   0.418   2.543  0.00  0.00    -0.453 OA
ATOM     28  C   UNL     1      -1.449   0.043   2.341  0.00  0.00    +0.466 C 
ATOM     29  O   UNL     1      -2.096   1.283   2.002  0.00  0.00    -0.453 OA
ENDBRANCH  20  21
ENDBRANCH   3  19
TORSDOF 4
