REMARK  Name = ZINC06615641
REMARK  14 active torsions:
REMARK  status: ('A' for Active; 'I' for Inactive)
REMARK    1  A    between atoms: C_1  and  C_2
REMARK    2  A    between atoms: C_2  and  C_3
REMARK    3  A    between atoms: C_2  and  C_4
REMARK    4  A    between atoms: C_2  and  C_5
REMARK    5  A    between atoms: C_8  and  O_11
REMARK    6  A    between atoms: O_11  and  C_12
REMARK    7  A    between atoms: C_12  and  C_13
REMARK    8  A    between atoms: C_16  and  C_18
REMARK    9  A    between atoms: N_24  and  C_25
REMARK   10  A    between atoms: C_25  and  C_26
REMARK   11  A    between atoms: C_26  and  C_27
REMARK   12  A    between atoms: C_27  and  N_59
REMARK   13  A    between atoms: C_28  and  N_59
REMARK   14  A    between atoms: C_29  and  N_59
REMARK                            x       y       z     vdW  Elec       q    Type
REMARK                         _______ _______ _______ _____ _____    ______ ____
ROOT
ATOM      1  C   UNL     1       1.274  -0.433  -0.012  0.00  0.00    +0.143 A 
ATOM      2  C   UNL     1       2.092   0.639  -0.015  0.00  0.00    +0.049 A 
ATOM      3  C   UNL     1       1.272   1.784  -0.001  0.00  0.00    +0.053 A 
ATOM      4  C   UNL     1      -0.016   1.343   0.009  0.00  0.00    +0.172 A 
ATOM      5  O   UNL     1       0.002  -0.004   0.002  0.00  0.00    -0.453 OA
ENDROOT
BRANCH   4   6
ATOM      6  C   UNL     1      -1.220   2.192   0.020  0.00  0.00    +0.198 A 
ATOM      7  N   UNL     1      -1.253   3.466   0.306  0.00  0.00    -0.150 NA
ATOM      8  N   UNL     1      -2.582   3.899   0.199  0.00  0.00    -0.254 N 
ATOM      9  H   UNL     1      -2.905   4.801   0.353  0.00  0.00    +0.191 HD
ATOM     10  C   UNL     1      -3.330   2.833  -0.151  0.00  0.00    +0.176 A 
ATOM     11  S   UNL     1      -5.024   2.828  -0.406  0.00  0.00    -0.011 S 
ATOM     12  N   UNL     1      -2.506   1.773  -0.266  0.00  0.00    -0.301 N 
BRANCH  12  13
ATOM     13  C   UNL     1      -2.904   0.411  -0.631  0.00  0.00    +0.124 C 
BRANCH  13  14
ATOM     14  C   UNL     1      -3.251  -0.375   0.635  0.00  0.00    +0.003 C 
BRANCH  14  15
ATOM     15  C   UNL     1      -3.667  -1.797   0.254  0.00  0.00    -0.078 C 
BRANCH  15  18
ATOM     16  C   UNL     1      -5.195  -2.001   2.121  0.00  0.00    -0.097 C 
ATOM     17  C   UNL     1      -4.174  -3.980   1.172  0.00  0.00    -0.097 C 
ATOM     18  N   UNL     1      -3.978  -2.550   1.488  0.00  0.00    +0.376 N 
ATOM     19  H   UNL     1      -3.191  -2.457   2.142  0.00  0.00    -0.083 HD
ENDBRANCH  15  18
ENDBRANCH  14  15
ENDBRANCH  13  14
ENDBRANCH  12  13
ENDBRANCH   4   6
BRANCH   1  20
ATOM     20  C   UNL     1       1.716  -1.874  -0.025  0.00  0.00    +0.303 C 
BRANCH  20  21
ATOM     21  O   UNL     1       1.868  -2.337   1.318  0.00  0.00    -0.484 OA
BRANCH  21  25
ATOM     22  C   UNL     1       3.071  -6.250   1.825  0.00  0.00    -0.042 A 
ATOM     23  C   UNL     1       2.835  -5.452   2.929  0.00  0.00    +0.008 A 
ATOM     24  C   UNL     1       2.432  -4.141   2.762  0.00  0.00    +0.046 A 
ATOM     25  C   UNL     1       2.264  -3.626   1.485  0.00  0.00    +0.121 A 
ATOM     26  C   UNL     1       2.495  -4.431   0.379  0.00  0.00    +0.046 A 
ATOM     27  C   UNL     1       2.904  -5.739   0.551  0.00  0.00    +0.008 A 
BRANCH  22  29
ATOM     28  C   UNL     1       2.443  -8.443   2.799  0.00  0.00    +0.015 C 
ATOM     29  C   UNL     1       3.510  -7.680   2.010  0.00  0.00    -0.013 C 
ATOM     30  C   UNL     1       3.700  -8.337   0.642  0.00  0.00    +0.015 C 
ATOM     31  C   UNL     1       4.832  -7.712   2.779  0.00  0.00    +0.015 C 
ENDBRANCH  22  29
ENDBRANCH  21  25
ENDBRANCH  20  21
ENDBRANCH   1  20
TORSDOF 9
