REMARK  Name = ZINC60186153
REMARK  8 active torsions:
REMARK  status: ('A' for Active; 'I' for Inactive)
REMARK    1  A    between atoms: C_1  and  C_2
REMARK    2  A    between atoms: C_7  and  C_9
REMARK    3  A    between atoms: C_7  and  C_10
REMARK    4  A    between atoms: N_13  and  C_17
REMARK    5  A    between atoms: C_17  and  C_18
REMARK    6  A    between atoms: N_20  and  C_21
REMARK    7  A    between atoms: N_24  and  C_27
REMARK    8  A    between atoms: C_27  and  C_28
REMARK                            x       y       z     vdW  Elec       q    Type
REMARK                         _______ _______ _______ _____ _____    ______ ____
ROOT
ATOM      1  C   UNL     1      -3.054  -4.061  -1.368  0.00  0.00    +0.213 C 
ENDROOT
BRANCH   1  13
ATOM      2  C   UNL     1       1.017   1.725  -0.919  0.00  0.00    +0.007 C 
ATOM      3  C   UNL     1       1.076   0.208  -0.723  0.00  0.00    -0.011 C 
ATOM      4  C   UNL     1      -0.340  -0.335  -0.515  0.00  0.00    +0.038 C 
ATOM      5  C   UNL     1      -0.280  -1.843  -0.299  0.00  0.00    +0.113 C 
ATOM      6  C   UNL     1       0.586  -2.181   0.910  0.00  0.00    +0.041 C 
ATOM      7  C   UNL     1       1.998  -1.631   0.697  0.00  0.00    -0.032 C 
ATOM      8  C   UNL     1       1.930  -0.115   0.505  0.00  0.00    +0.009 C 
ATOM      9  C   UNL     1       2.861  -1.952   1.919  0.00  0.00    +0.011 C 
ATOM     10  C   UNL     1       2.615  -2.275  -0.546  0.00  0.00    +0.011 C 
ATOM     11  C   UNL     1      -1.672  -2.407  -0.126  0.00  0.00    +0.247 C 
ATOM     12  O   UNL     1      -2.471  -2.135   0.744  0.00  0.00    -0.273 OA
ATOM     13  N   UNL     1      -1.837  -3.277  -1.144  0.00  0.00    -0.215 N 
ATOM     14  C   UNL     1      -0.751  -3.335  -1.925  0.00  0.00    +0.310 C 
ATOM     15  O   UNL     1      -0.661  -4.046  -2.906  0.00  0.00    -0.252 OA
ATOM     16  N   UNL     1       0.230  -2.515  -1.501  0.00  0.00    -0.285 N 
ATOM     17  H   UNL     1       1.102  -2.393  -1.909  0.00  0.00    +0.151 HD
ENDBRANCH   1  13
BRANCH   1  18
ATOM     18  C   UNL     1      -3.997  -3.284  -2.252  0.00  0.00    +0.231 C 
ATOM     19  O   UNL     1      -3.682  -2.184  -2.655  0.00  0.00    -0.274 OA
ATOM     20  N   UNL     1      -5.189  -3.812  -2.594  0.00  0.00    -0.311 N 
ATOM     21  H   UNL     1      -5.440  -4.692  -2.271  0.00  0.00    +0.149 HD
BRANCH  20  22
ATOM     22  C   UNL     1      -6.104  -3.057  -3.453  0.00  0.00    +0.069 C 
ATOM     23  C   UNL     1      -6.947  -2.109  -2.595  0.00  0.00    +0.003 C 
ATOM     24  C   UNL     1      -7.955  -1.382  -3.487  0.00  0.00    -0.077 C 
ATOM     25  N   UNL     1      -8.831  -2.362  -4.140  0.00  0.00    +0.380 N 
ATOM     26  C   UNL     1      -8.039  -3.230  -5.021  0.00  0.00    -0.077 C 
ATOM     27  C   UNL     1      -7.034  -4.027  -4.187  0.00  0.00    +0.003 C 
ATOM     28  H   UNL     1      -9.288  -2.924  -3.438  0.00  0.00    -0.082 HD
BRANCH  25  29
ATOM     29  C   UNL     1      -9.846  -1.657  -4.934  0.00  0.00    -0.075 C 
BRANCH  29  30
ATOM     30  C   UNL     1     -10.778  -0.883  -3.999  0.00  0.00    -0.028 C 
ATOM     31  C   UNL     1     -11.591  -1.866  -3.132  0.00  0.00    +0.002 C 
ATOM     32  C   UNL     1     -12.987  -1.205  -3.016  0.00  0.00    +0.000 C 
ATOM     33  C   UNL     1     -13.195  -0.595  -4.425  0.00  0.00    +0.000 C 
ATOM     34  C   UNL     1     -11.797  -0.075  -4.822  0.00  0.00    +0.002 C 
ENDBRANCH  29  30
ENDBRANCH  25  29
ENDBRANCH  20  22
ENDBRANCH   1  18
TORSDOF 5
