REMARK  Name = ZINC12833060
REMARK  13 active torsions:
REMARK  status: ('A' for Active; 'I' for Inactive)
REMARK    1  A    between atoms: C_1  and  C_2
REMARK    2  A    between atoms: C_4  and  C_38
REMARK    3  A    between atoms: C_9  and  C_14
REMARK    4  A    between atoms: C_14  and  N_70
REMARK    5  A    between atoms: C_15  and  C_16
REMARK    6  A    between atoms: C_15  and  N_70
REMARK    7  A    between atoms: C_16  and  C_17
REMARK    8  A    between atoms: C_23  and  C_24
REMARK    9  A    between atoms: C_23  and  N_70
REMARK   10  A    between atoms: N_28  and  C_29
REMARK   11  A    between atoms: C_29  and  C_30
REMARK   12  A    between atoms: C_33  and  O_36
REMARK   13  A    between atoms: O_36  and  C_37
REMARK                            x       y       z     vdW  Elec       q    Type
REMARK                         _______ _______ _______ _____ _____    ______ ____
ROOT
ATOM      1  N   UNL     1      -1.389   8.026  -1.412  0.00  0.00    +0.387 N 
ATOM      2  H   UNL     1      -2.199   7.725  -1.967  0.00  0.00    -0.081 HD
ENDROOT
BRANCH   1   3
ATOM      3  C   UNL     1      -1.503   7.463  -0.051  0.00  0.00    -0.037 C 
BRANCH   3  12
ATOM      4  C   UNL     1       0.264   0.218  -0.182  0.00  0.00    +0.044 C 
ATOM      5  C   UNL     1      -0.759   1.323  -0.247  0.00  0.00    -0.050 A 
ATOM      6  C   UNL     1      -2.101   1.009  -0.413  0.00  0.00    +0.008 A 
ATOM      7  C   UNL     1      -3.053   2.003  -0.481  0.00  0.00    -0.026 A 
ATOM      8  C   UNL     1      -2.668   3.335  -0.370  0.00  0.00    +0.052 A 
ATOM      9  C   UNL     1      -1.307   3.650  -0.202  0.00  0.00    -0.001 A 
ATOM     10  C   UNL     1      -0.357   2.624  -0.142  0.00  0.00    +0.013 A 
ATOM     11  C   UNL     1      -0.911   5.055  -0.093  0.00  0.00    +0.017 A 
ATOM     12  C   UNL     1      -1.876   6.006  -0.159  0.00  0.00    +0.001 A 
ATOM     13  C   UNL     1      -3.228   5.638  -0.329  0.00  0.00    +0.251 A 
ATOM     14  O   UNL     1      -4.078   6.508  -0.385  0.00  0.00    -0.268 OA
ATOM     15  N   UNL     1      -3.600   4.350  -0.430  0.00  0.00    -0.322 N 
ATOM     16  H   UNL     1      -4.538   4.131  -0.546  0.00  0.00    +0.169 HD
ATOM     17  C   UNL     1      -4.505   1.648  -0.668  0.00  0.00    +0.046 C 
ENDBRANCH   3  12
ENDBRANCH   1   3
BRANCH   1  18
ATOM     18  C   UNL     1      -0.154   7.537  -2.060  0.00  0.00    -0.073 C 
BRANCH  18  19
ATOM     19  C   UNL     1       1.080   8.015  -1.294  0.00  0.00    +0.016 C 
BRANCH  19  20
ATOM     20  C   UNL     1       2.324   7.508  -1.978  0.00  0.00    -0.049 A 
ATOM     21  C   UNL     1       2.864   6.288  -1.615  0.00  0.00    +0.003 A 
ATOM     22  C   UNL     1       4.002   5.822  -2.246  0.00  0.00    +0.000 A 
ATOM     23  C   UNL     1       4.606   6.579  -3.232  0.00  0.00    +0.000 A 
ATOM     24  C   UNL     1       4.069   7.802  -3.590  0.00  0.00    +0.000 A 
ATOM     25  C   UNL     1       2.928   8.266  -2.963  0.00  0.00    +0.003 A 
ENDBRANCH  19  20
ENDBRANCH  18  19
ENDBRANCH   1  18
BRANCH   1  26
ATOM     26  C   UNL     1      -1.374   9.503  -1.348  0.00  0.00    +0.001 C 
BRANCH  26  27
ATOM     27  C   UNL     1      -1.480  10.052  -2.747  0.00  0.00    +0.135 A 
ATOM     28  N   UNL     1      -0.487  10.350  -3.549  0.00  0.00    -0.115 NA
ATOM     29  N   UNL     1      -0.984  10.787  -4.654  0.00  0.00    -0.023 NA
ATOM     30  N   UNL     1      -2.269  10.783  -4.576  0.00  0.00    -0.044 NA
ATOM     31  N   UNL     1      -2.614  10.336  -3.415  0.00  0.00    -0.227 N 
BRANCH  31  32
ATOM     32  C   UNL     1      -3.982  10.169  -2.918  0.00  0.00    +0.182 C 
BRANCH  32  33
ATOM     33  C   UNL     1      -4.424  11.435  -2.230  0.00  0.00    -0.026 A 
ATOM     34  C   UNL     1      -4.204  11.597  -0.875  0.00  0.00    +0.009 A 
ATOM     35  C   UNL     1      -4.603  12.758  -0.243  0.00  0.00    +0.046 A 
ATOM     36  C   UNL     1      -5.236  13.758  -0.967  0.00  0.00    +0.120 A 
ATOM     37  C   UNL     1      -5.461  13.591  -2.325  0.00  0.00    +0.046 A 
ATOM     38  C   UNL     1      -5.055  12.430  -2.954  0.00  0.00    +0.009 A 
BRANCH  36  39
ATOM     39  O   UNL     1      -5.635  14.899  -0.346  0.00  0.00    -0.495 OA
ATOM     40  C   UNL     1      -5.370  15.003   1.054  0.00  0.00    +0.277 C 
ENDBRANCH  36  39
ENDBRANCH  32  33
ENDBRANCH  31  32
ENDBRANCH  26  27
ENDBRANCH   1  26
TORSDOF 10
