REMARK  Name = ZINC04042317
REMARK  11 active torsions:
REMARK  status: ('A' for Active; 'I' for Inactive)
REMARK    1  A    between atoms: C_3  and  N_25
REMARK    2  A    between atoms: C_6  and  C_7
REMARK    3  A    between atoms: C_10  and  N_13
REMARK    4  A    between atoms: N_13  and  C1*_14
REMARK    5  A    between atoms: C3*_17  and  O3*_24
REMARK    6  A    between atoms: C4*_19  and  C5*_22
REMARK    7  A    between atoms: C5*_22  and  O5*_23
REMARK    8  A    between atoms: N_25  and  C1*_26
REMARK    9  A    between atoms: C3*_29  and  O3*_36
REMARK   10  A    between atoms: C4*_31  and  C5*_34
REMARK   11  A    between atoms: C5*_34  and  O5*_35
REMARK                            x       y       z     vdW  Elec       q    Type
REMARK                         _______ _______ _______ _____ _____    ______ ____
ROOT
ATOM      1  C   UNL     1      -0.211   1.305  -1.564  0.00  0.00    +0.010 A 
ATOM      2  C   UNL     1       0.940   1.999  -1.874  0.00  0.00    +0.023 A 
ATOM      3  C   UNL     1       2.169   1.350  -1.860  0.00  0.00    +0.029 A 
ATOM      4  C   UNL     1       2.241   0.001  -1.534  0.00  0.00    +0.023 A 
ATOM      5  C   UNL     1       1.094  -0.697  -1.223  0.00  0.00    +0.010 A 
ATOM      6  C   UNL     1      -0.140  -0.048  -1.237  0.00  0.00    -0.018 A 
ENDROOT
BRANCH   6   7
ATOM      7  C   UNL     1      -1.377  -0.797  -0.903  0.00  0.00    -0.018 A 
ATOM      8  C   UNL     1      -2.611  -0.149  -0.922  0.00  0.00    +0.010 A 
ATOM      9  C   UNL     1      -3.759  -0.847  -0.612  0.00  0.00    +0.023 A 
ATOM     10  C   UNL     1      -3.686  -2.195  -0.280  0.00  0.00    +0.029 A 
ATOM     11  C   UNL     1      -2.456  -2.842  -0.260  0.00  0.00    +0.023 A 
ATOM     12  C   UNL     1      -1.306  -2.150  -0.575  0.00  0.00    +0.010 A 
BRANCH  10  13
ATOM     13  N   UNL     1      -4.850  -2.900   0.035  0.00  0.00    -0.319 N 
ATOM     14  H   UNL     1      -4.814  -3.859   0.173  0.00  0.00    +0.148 HD
BRANCH  13  15
ATOM     15  C1* UNL     1      -6.126  -2.190   0.156  0.00  0.00    +0.206 C 
ATOM     16  C2* UNL     1      -7.069  -2.928   1.140  0.00  0.00    +0.085 C 
ATOM     17  C3* UNL     1      -8.465  -2.458   0.663  0.00  0.00    +0.150 C 
ATOM     18  C4* UNL     1      -8.232  -1.988  -0.785  0.00  0.00    +0.174 C 
ATOM     19  O4* UNL     1      -6.846  -2.221  -1.095  0.00  0.00    -0.351 OA
BRANCH  17  20
ATOM     20  O3* UNL     1      -9.395  -3.543   0.695  0.00  0.00    -0.389 OA
ATOM     21  H3* UNL     1      -9.535  -3.915   1.577  0.00  0.00    +0.210 HD
ENDBRANCH  17  20
BRANCH  18  22
ATOM     22  C5* UNL     1      -9.124  -2.782  -1.741  0.00  0.00    +0.190 C 
BRANCH  22  23
ATOM     23  O5* UNL     1      -8.987  -2.261  -3.065  0.00  0.00    -0.392 OA
ATOM     24  H5* UNL     1      -9.526  -2.718  -3.725  0.00  0.00    +0.210 HD
ENDBRANCH  22  23
ENDBRANCH  18  22
ENDBRANCH  13  15
ENDBRANCH  10  13
ENDBRANCH   6   7
BRANCH   3  25
ATOM     25  N   UNL     1       3.333   2.055  -2.174  0.00  0.00    -0.319 N 
ATOM     26  H   UNL     1       3.283   2.997  -2.401  0.00  0.00    +0.148 HD
BRANCH  25  27
ATOM     27  C1* UNL     1       4.629   1.372  -2.159  0.00  0.00    +0.206 C 
ATOM     28  C2* UNL     1       5.559   1.960  -3.251  0.00  0.00    +0.085 C 
ATOM     29  C3* UNL     1       6.955   1.615  -2.666  0.00  0.00    +0.150 C 
ATOM     30  C4* UNL     1       6.715   1.747  -1.146  0.00  0.00    +0.174 C 
ATOM     31  O4* UNL     1       5.306   1.615  -0.916  0.00  0.00    -0.351 OA
BRANCH  29  32
ATOM     32  O3* UNL     1       7.939   2.550  -3.113  0.00  0.00    -0.389 OA
ATOM     33  H3* UNL     1       8.061   2.564  -4.072  0.00  0.00    +0.210 HD
ENDBRANCH  29  32
BRANCH  30  34
ATOM     34  C5* UNL     1       7.468   0.641  -0.404  0.00  0.00    +0.190 C 
BRANCH  34  35
ATOM     35  O5* UNL     1       7.337   0.839   1.005  0.00  0.00    -0.392 OA
ATOM     36  H5* UNL     1       7.791   0.173   1.540  0.00  0.00    +0.210 HD
ENDBRANCH  34  35
ENDBRANCH  30  34
ENDBRANCH  25  27
ENDBRANCH   3  25
TORSDOF 11
