REMARK  Name = ZINC00676182
REMARK  6 active torsions:
REMARK  status: ('A' for Active; 'I' for Inactive)
REMARK    1  A    between atoms: C_3  and  N_26
REMARK    2  A    between atoms: C_6  and  C_7
REMARK    3  A    between atoms: C_7  and  C_8
REMARK    4  A    between atoms: N_10  and  C_11
REMARK    5  A    between atoms: C_12  and  C_23
REMARK    6  A    between atoms: C_13  and  C_16
REMARK                            x       y       z     vdW  Elec       q    Type
REMARK                         _______ _______ _______ _____ _____    ______ ____
ROOT
ATOM      1  C   UNL     1       1.148   5.865   2.997  0.00  0.00    +0.084 A 
ATOM      2  C   UNL     1       1.134   7.177   3.451  0.00  0.00    +0.073 A 
ATOM      3  C   UNL     1       1.145   7.370   4.888  0.00  0.00    +0.003 A 
ATOM      4  C   UNL     1       1.167   6.250   5.655  0.00  0.00    +0.056 A 
ATOM      5  S   UNL     1       1.167   4.934   4.455  0.00  0.00    -0.081 S 
ENDROOT
BRANCH   3   6
ATOM      6  C   UNL     1       1.133   8.724   5.491  0.00  0.00    -0.017 A 
ATOM      7  C   UNL     1       2.044   9.689   5.063  0.00  0.00    +0.010 A 
ATOM      8  C   UNL     1       2.025  10.949   5.624  0.00  0.00    +0.020 A 
ATOM      9  C   UNL     1       1.110  11.254   6.617  0.00  0.00    +0.041 A 
ATOM     10  C   UNL     1       0.206  10.298   7.050  0.00  0.00    +0.020 A 
ATOM     11  C   UNL     1       0.214   9.036   6.492  0.00  0.00    +0.010 A 
ATOM     12 CL   UNL     1       1.096  12.840   7.323  0.00  0.00    -0.084 Cl
ENDBRANCH   3   6
BRANCH   2  13
ATOM     13  C   UNL     1       1.111   8.310   2.524  0.00  0.00    +0.244 C 
ATOM     14  O   UNL     1       0.047   8.768   2.148  0.00  0.00    -0.270 OA
ATOM     15  N   UNL     1       2.267   8.847   2.087  0.00  0.00    -0.325 N 
ATOM     16  H   UNL     1       3.115   8.483   2.386  0.00  0.00    +0.145 HD
ATOM     17  H   UNL     1       2.252   9.598   1.473  0.00  0.00    +0.145 HD
ENDBRANCH   2  13
BRANCH   1  20
ATOM     18  C   UNL     1       1.157   4.087   1.434  0.00  0.00    +0.222 C 
ATOM     19  O   UNL     1       1.177   3.294   2.351  0.00  0.00    -0.275 OA
ATOM     20  N   UNL     1       1.142   5.411   1.688  0.00  0.00    -0.279 N 
ATOM     21  H   UNL     1       1.126   6.045   0.954  0.00  0.00    +0.155 HD
BRANCH  18  22
ATOM     22  C   UNL     1       1.151   3.592   0.010  0.00  0.00    +0.131 C 
BRANCH  22  28
ATOM     23  C   UNL     1      -0.017   1.378   0.010  0.00  0.00    +0.006 A 
ATOM     24  C   UNL     1       0.002  -0.004   0.002  0.00  0.00    +0.033 A 
ATOM     25  C   UNL     1       1.208  -0.679  -0.014  0.00  0.00    +0.126 A 
ATOM     26  C   UNL     1       2.396   0.029  -0.021  0.00  0.00    +0.033 A 
ATOM     27  C   UNL     1       2.377   1.411  -0.014  0.00  0.00    +0.006 A 
ATOM     28  C   UNL     1       1.171   2.086   0.002  0.00  0.00    -0.038 A 
BRANCH  25  29
ATOM     29  N   UNL     1       1.228  -2.159  -0.022  0.00  0.00    +0.056 N 
ATOM     30  O   UNL     1       0.182  -2.782  -0.015  0.00  0.00    -0.126 OA
ATOM     31  O   UNL     1       2.291  -2.753  -0.036  0.00  0.00    -0.126 OA
ENDBRANCH  25  29
ENDBRANCH  22  28
ENDBRANCH  18  22
ENDBRANCH   1  20
TORSDOF 6
