REMARK  Name = ZINC36024608
REMARK  7 active torsions:
REMARK  status: ('A' for Active; 'I' for Inactive)
REMARK    1  A    between atoms: C_1  and  C_2
REMARK    2  A    between atoms: C_2  and  C_3
REMARK    3  A    between atoms: C_2  and  C_4
REMARK    4  A    between atoms: N_8  and  C_27
REMARK    5  A    between atoms: N_13  and  S_16
REMARK    6  A    between atoms: S_16  and  C_19
REMARK    7  A    between atoms: C_27  and  C_28
REMARK                            x       y       z     vdW  Elec       q    Type
REMARK                         _______ _______ _______ _____ _____    ______ ____
ROOT
ATOM      1  C   UNL     1       0.512  -0.276  -2.063  0.00  0.00    +0.022 C 
ATOM      2  C   UNL     1       1.904   0.316  -2.019  0.00  0.00    +0.201 C 
ATOM      3  O   UNL     1       2.170   1.494  -1.911  0.00  0.00    -0.277 OA
ATOM      4  N   UNL     1       2.799  -0.688  -2.119  0.00  0.00    -0.313 N 
ATOM      5  C   UNL     1       2.090  -1.965  -2.238  0.00  0.00    +0.006 C 
ATOM      6  N   UNL     1       0.703  -1.720  -1.786  0.00  0.00    +0.401 N 
ATOM      7  C   UNL     1       2.746  -3.019  -1.347  0.00  0.00    +0.023 C 
ATOM      8  C   UNL     1       4.193  -3.240  -1.802  0.00  0.00    +0.109 C 
ATOM      9  N   UNL     1       4.194  -3.562  -3.235  0.00  0.00    -0.177 NA
ATOM     10  C   UNL     1       3.522  -2.646  -4.167  0.00  0.00    +0.109 C 
ATOM     11  C   UNL     1       2.081  -2.431  -3.693  0.00  0.00    +0.023 C 
ATOM     12  H   UNL     1       0.612  -1.908  -0.798  0.00  0.00    -0.082 HD
ATOM     13  H   UNL     1       0.050  -2.275  -2.318  0.00  0.00    -0.082 HD
ENDROOT
BRANCH   1  15
ATOM     14  C   UNL     1      -0.523   1.856  -1.272  0.00  0.00    +0.006 C 
ATOM     15  C   UNL     1      -0.372   0.361  -0.988  0.00  0.00    -0.023 C 
ATOM     16  C   UNL     1      -1.750  -0.303  -1.002  0.00  0.00    +0.006 C 
ENDBRANCH   1  15
BRANCH   9  17
ATOM     17  S   UNL     1       4.940  -4.933  -3.790  0.00  0.00    +0.062 S 
ATOM     18  O   UNL     1       5.410  -4.638  -5.098  0.00  0.00    -0.153 OA
ATOM     19  O   UNL     1       5.804  -5.374  -2.752  0.00  0.00    -0.153 OA
BRANCH  17  20
ATOM     20  C   UNL     1       3.695  -6.167  -3.969  0.00  0.00    +0.125 A 
ATOM     21  C   UNL     1       3.346  -6.620  -5.227  0.00  0.00    +0.030 A 
ATOM     22  C   UNL     1       2.370  -7.588  -5.368  0.00  0.00    +0.003 A 
ATOM     23  C   UNL     1       1.741  -8.104  -4.250  0.00  0.00    +0.021 A 
ATOM     24  C   UNL     1       2.088  -7.652  -2.991  0.00  0.00    +0.061 A 
ATOM     25  C   UNL     1       3.071  -6.686  -2.849  0.00  0.00    +0.086 A 
ATOM     26 CL   UNL     1       3.514  -6.123  -1.268  0.00  0.00    -0.080 Cl
ATOM     27 CL   UNL     1       1.298  -8.299  -1.587  0.00  0.00    -0.082 Cl
ENDBRANCH  17  20
ENDBRANCH   9  17
BRANCH   4  28
ATOM     28  C   UNL     1       4.255  -0.527  -2.110  0.00  0.00    +0.109 C 
BRANCH  28  29
ATOM     29  C   UNL     1       4.767  -0.592  -0.669  0.00  0.00    +0.006 C 
ATOM     30  C   UNL     1       5.433   0.662  -0.099  0.00  0.00    +0.005 C 
ATOM     31  C   UNL     1       6.281  -0.561  -0.455  0.00  0.00    +0.005 C 
ENDBRANCH  28  29
ENDBRANCH   4  28
TORSDOF 5
