REMARK  Name = ZINC20686323
REMARK  10 active torsions:
REMARK  status: ('A' for Active; 'I' for Inactive)
REMARK    1  A    between atoms: C_1  and  C_2
REMARK    2  A    between atoms: C_7  and  C_8
REMARK    3  A    between atoms: C_8  and  N_9
REMARK    4  A    between atoms: C_19  and  C_31
REMARK    5  A    between atoms: C_21  and  C_26
REMARK    6  A    between atoms: N_24  and  C_25
REMARK    7  A    between atoms: C_31  and  C_33
REMARK    8  A    between atoms: C_36  and  C_39
REMARK    9  A    between atoms: C_39  and  C_40
REMARK   10  A    between atoms: C_39  and  C_41
REMARK                            x       y       z     vdW  Elec       q    Type
REMARK                         _______ _______ _______ _____ _____    ______ ____
ROOT
ATOM      1  N   UNL     1      -0.764  -4.275  -0.832  0.00  0.00    -0.268 N 
ATOM      2  C   UNL     1       0.272  -3.804  -1.640  0.00  0.00    +0.039 A 
ATOM      3  C   UNL     1       1.075  -4.463  -2.569  0.00  0.00    +0.024 A 
ATOM      4  C   UNL     1       2.050  -3.772  -3.258  0.00  0.00    +0.002 A 
ATOM      5  C   UNL     1       2.239  -2.420  -3.033  0.00  0.00    +0.000 A 
ATOM      6  C   UNL     1       1.446  -1.758  -2.112  0.00  0.00    +0.004 A 
ATOM      7  C   UNL     1       0.473  -2.445  -1.421  0.00  0.00    -0.027 A 
ATOM      8  C   UNL     1      -0.533  -2.040  -0.378  0.00  0.00    +0.051 C 
ATOM      9  C   UNL     1      -1.290  -3.304  -0.063  0.00  0.00    +0.215 C 
ATOM     10  O   UNL     1      -2.199  -3.423   0.732  0.00  0.00    -0.276 OA
ATOM     11  C   UNL     1      -1.476  -0.955  -0.912  0.00  0.00    +0.071 C 
ATOM     12  C   UNL     1      -1.325   0.225   0.078  0.00  0.00    +0.049 C 
ATOM     13  C   UNL     1      -0.783  -0.463   1.357  0.00  0.00    -0.065 C 
ATOM     14  N   UNL     1       0.131  -1.508   0.823  0.00  0.00    +0.391 N 
ATOM     15  C   UNL     1       0.354  -2.569   1.814  0.00  0.00    -0.094 C 
ATOM     16  H   UNL     1       1.126  -1.106   0.585  0.00  0.00    -0.080 HD
ENDROOT
BRANCH  12  17
ATOM     17  C   UNL     1      -0.338   1.236  -0.443  0.00  0.00    +0.107 A 
ATOM     18  C   UNL     1      -0.601   2.528  -0.709  0.00  0.00    +0.045 A 
ATOM     19  C   UNL     1       0.603   3.105  -1.173  0.00  0.00    +0.041 A 
ATOM     20  C   UNL     1       1.531   2.131  -1.163  0.00  0.00    +0.195 A 
ATOM     21  O   UNL     1       0.955   1.001  -0.720  0.00  0.00    -0.468 OA
ENDBRANCH  12  17
BRANCH  11  22
ATOM     22  C   UNL     1      -1.058  -0.533  -2.297  0.00  0.00    +0.166 C 
ATOM     23  O   UNL     1      -0.119   0.220  -2.445  0.00  0.00    -0.292 OA
BRANCH  22  24
ATOM     24  C   UNL     1      -1.790  -1.034  -3.472  0.00  0.00    +0.018 A 
ATOM     25  C   UNL     1      -2.870  -1.907  -3.307  0.00  0.00    +0.011 A 
ATOM     26  C   UNL     1      -3.554  -2.368  -4.412  0.00  0.00    +0.004 A 
ATOM     27  C   UNL     1      -3.168  -1.978  -5.682  0.00  0.00    -0.045 A 
ATOM     28  C   UNL     1      -2.096  -1.119  -5.854  0.00  0.00    +0.004 A 
ATOM     29  C   UNL     1      -1.406  -0.644  -4.759  0.00  0.00    +0.011 A 
BRANCH  27  30
ATOM     30  C   UNL     1      -3.918  -2.491  -6.884  0.00  0.00    +0.013 C 
ATOM     31  C   UNL     1      -3.835  -4.018  -6.923  0.00  0.00    +0.012 C 
ATOM     32  C   UNL     1      -5.383  -2.061  -6.793  0.00  0.00    +0.012 C 
ENDBRANCH  27  30
ENDBRANCH  22  24
ENDBRANCH  11  22
BRANCH   1  33
ATOM     33  C   UNL     1      -1.224  -5.666  -0.822  0.00  0.00    +0.149 C 
BRANCH  33  40
ATOM     34  C   UNL     1      -1.816  -5.930   1.994  0.00  0.00    +0.044 C 
ATOM     35  C   UNL     1      -0.606  -6.613   1.411  0.00  0.00    -0.046 A 
ATOM     36  C   UNL     1       0.221  -7.367   2.223  0.00  0.00    +0.003 A 
ATOM     37  C   UNL     1       1.331  -7.994   1.688  0.00  0.00    +0.000 A 
ATOM     38  C   UNL     1       1.614  -7.867   0.341  0.00  0.00    +0.000 A 
ATOM     39  C   UNL     1       0.784  -7.118  -0.472  0.00  0.00    +0.005 A 
ATOM     40  C   UNL     1      -0.323  -6.487   0.064  0.00  0.00    -0.027 A 
ENDBRANCH  33  40
ENDBRANCH   1  33
TORSDOF 6
