REMARK  Name = ZINC36360407
REMARK  7 active torsions:
REMARK  status: ('A' for Active; 'I' for Inactive)
REMARK    1  A    between atoms: C_1  and  C_2
REMARK    2  A    between atoms: C_2  and  C_3
REMARK    3  A    between atoms: C_2  and  C_4
REMARK    4  A    between atoms: N_6  and  C_7
REMARK    5  A    between atoms: C_16  and  C_17
REMARK    6  A    between atoms: C_17  and  C_19
REMARK    7  A    between atoms: C_17  and  N_22
REMARK                            x       y       z     vdW  Elec       q    Type
REMARK                         _______ _______ _______ _____ _____    ______ ____
ROOT
ATOM      1  C   UNL     1      -2.930  -2.389   0.108  0.00  0.00    +0.035 A 
ATOM      2  C   UNL     1      -4.034  -1.538   0.111  0.00  0.00    +0.024 A 
ATOM      3  C   UNL     1      -5.298  -2.044   0.207  0.00  0.00    +0.012 A 
ATOM      4  C   UNL     1      -5.489  -3.424   0.304  0.00  0.00    +0.002 A 
ATOM      5  C   UNL     1      -4.381  -4.290   0.302  0.00  0.00    +0.048 A 
ATOM      6  C   UNL     1      -3.099  -3.759   0.197  0.00  0.00    +0.049 A 
ATOM      7  N   UNL     1      -4.868  -5.574   0.407  0.00  0.00    -0.360 N 
ATOM      8  H   UNL     1      -4.324  -6.376   0.430  0.00  0.00    +0.165 HD
ATOM      9  C   UNL     1      -6.235  -5.548   0.476  0.00  0.00    +0.086 A 
ATOM     10  C   UNL     1      -6.672  -4.281   0.418  0.00  0.00    -0.025 A 
ENDROOT
BRANCH   1  13
ATOM     11  C   UNL     1      -1.351  -0.677   0.597  0.00  0.00    +0.220 C 
ATOM     12  O   UNL     1      -2.228  -0.041   1.143  0.00  0.00    -0.275 OA
ATOM     13  N   UNL     1      -1.640  -1.854   0.008  0.00  0.00    -0.285 N 
ATOM     14  H   UNL     1      -0.954  -2.330  -0.486  0.00  0.00    +0.155 HD
BRANCH  11  16
ATOM     15  C   UNL     1       0.115   1.191   1.311  0.00  0.00    +0.017 C 
ATOM     16  C   UNL     1       0.061  -0.151   0.579  0.00  0.00    +0.069 C 
ATOM     17  C   UNL     1       0.986  -1.150   1.276  0.00  0.00    +0.017 C 
ENDBRANCH  11  16
ENDBRANCH   1  13
BRANCH  10  18
ATOM     18  C   UNL     1      -8.108  -3.825   0.463  0.00  0.00    +0.080 C 
BRANCH  18  19
ATOM     19  N   UNL     1      -8.989  -4.944   0.104  0.00  0.00    +0.391 N 
ATOM     20  C   UNL     1     -10.402  -4.490   0.058  0.00  0.00    -0.077 C 
ATOM     21  C   UNL     1     -11.086  -5.549  -0.843  0.00  0.00    -0.020 C 
ATOM     22  C   UNL     1     -10.006  -5.846  -1.908  0.00  0.00    -0.020 C 
ATOM     23  C   UNL     1      -8.675  -5.422  -1.260  0.00  0.00    -0.077 C 
ATOM     24  H   UNL     1      -8.885  -5.696   0.768  0.00  0.00    -0.080 HD
ENDBRANCH  18  19
BRANCH  18  25
ATOM     25  C   UNL     1      -8.441  -3.350   1.854  0.00  0.00    +0.347 C 
ATOM     26  O   UNL     1      -8.274  -2.181   2.156  0.00  0.00    -0.248 OA
ATOM     27  O   UNL     1      -8.878  -4.136   2.678  0.00  0.00    -0.248 OA
ENDBRANCH  18  25
ENDBRANCH  10  18
TORSDOF 5
