REMARK  Name = ZINC00499708
REMARK  3 active torsions:
REMARK  status: ('A' for Active; 'I' for Inactive)
REMARK    1  A    between atoms: C_8  and  S_10
REMARK    2  A    between atoms: S_10  and  C_11
REMARK    3  A    between atoms: C_11  and  C_12
REMARK                            x       y       z     vdW  Elec       q    Type
REMARK                         _______ _______ _______ _____ _____    ______ ____
ROOT
ATOM      1  C   UNL     1       5.517  -3.068  -0.070  0.00  0.00    +0.137 C 
ENDROOT
BRANCH   1   2
ATOM      2  C   UNL     1       6.412  -4.280  -0.086  0.00  0.00    +0.089 A 
ATOM      3  C   UNL     1       6.887  -4.924   1.004  0.00  0.00    +0.137 A 
ATOM      4  N   UNL     1       7.655  -5.963   0.556  0.00  0.00    -0.290 N 
ATOM      5  C   UNL     1       8.370  -6.931   1.203  0.00  0.00    +0.094 A 
ATOM      6  C   UNL     1       9.056  -7.860   0.506  0.00  0.00    +0.018 A 
ATOM      7  C   UNL     1       9.045  -7.844  -0.899  0.00  0.00    +0.005 A 
ATOM      8  C   UNL     1       8.338  -6.887  -1.556  0.00  0.00    +0.047 A 
ATOM      9  C   UNL     1       7.625  -5.923  -0.815  0.00  0.00    +0.139 A 
ATOM     10  N   UNL     1       6.864  -4.901  -1.179  0.00  0.00    -0.230 NA
ATOM     11 CL   UNL     1       6.581  -4.508   2.662  0.00  0.00    -0.062 Cl
ENDBRANCH   1   2
BRANCH   1  12
ATOM     12  S   UNL     1       3.782  -3.598  -0.055  0.00  0.00    -0.061 S 
BRANCH  12  20
ATOM     13  C   UNL     1      -0.017   1.373   0.010  0.00  0.00    +0.002 A 
ATOM     14  C   UNL     1       1.170   2.091   0.002  0.00  0.00    +0.004 A 
ATOM     15  C   UNL     1       2.384   1.435  -0.013  0.00  0.00    +0.048 A 
ATOM     16  C   UNL     1       2.421   0.051  -0.021  0.00  0.00    +0.156 A 
ATOM     17  C   UNL     1       1.223  -0.680  -0.013  0.00  0.00    +0.110 A 
ATOM     18  C   UNL     1       0.002  -0.004   0.002  0.00  0.00    +0.031 A 
ATOM     19  N   UNL     1       1.569  -1.996  -0.024  0.00  0.00    -0.203 NA
ATOM     20  C   UNL     1       2.875  -2.087  -0.038  0.00  0.00    +0.258 A 
ATOM     21  O   UNL     1       3.423  -0.859  -0.036  0.00  0.00    -0.431 OA
ENDBRANCH  12  20
ENDBRANCH   1  12
TORSDOF 3
