REMARK  Name = ZINC19402855
REMARK  4 active torsions:
REMARK  status: ('A' for Active; 'I' for Inactive)
REMARK    1  A    between atoms: C_5  and  C_7
REMARK    2  A    between atoms: C_9  and  C_14
REMARK    3  A    between atoms: N_18  and  C_20
REMARK    4  A    between atoms: C_20  and  C_21
REMARK                            x       y       z     vdW  Elec       q    Type
REMARK                         _______ _______ _______ _____ _____    ______ ____
ROOT
ATOM      1  C   UNL     1      -0.356   2.200   4.958  0.00  0.00    +0.159 A 
ATOM      2  N   UNL     1      -1.009   1.829   3.865  0.00  0.00    -0.232 NA
ATOM      3  C   UNL     1      -0.485   2.017   2.664  0.00  0.00    +0.050 A 
ATOM      4  C   UNL     1       0.761   2.608   2.555  0.00  0.00    +0.093 A 
ATOM      5  C   UNL     1       1.417   2.998   3.722  0.00  0.00    +0.252 A 
ATOM      6  N   UNL     1       0.836   2.775   4.894  0.00  0.00    -0.306 N 
ATOM      7  O   UNL     1       2.637   3.586   3.661  0.00  0.00    -0.268 OA
ATOM      8  H   UNL     1       1.353   3.072   5.818  0.00  0.00    +0.170 HD
ENDROOT
BRANCH   1  13
ATOM      9  C   UNL     1      -0.895   2.132   8.672  0.00  0.00    +0.004 A 
ATOM     10  C   UNL     1      -2.141   1.523   8.707  0.00  0.00    +0.020 A 
ATOM     11  C   UNL     1      -2.752   1.160   7.520  0.00  0.00    +0.111 A 
ATOM     12  N   UNL     1      -2.170   1.391   6.362  0.00  0.00    -0.252 NA
ATOM     13  C   UNL     1      -0.977   1.966   6.285  0.00  0.00    +0.106 A 
ATOM     14  C   UNL     1      -0.304   2.357   7.441  0.00  0.00    +0.031 A 
ENDBRANCH   1  13
BRANCH   3  15
ATOM     15  C   UNL     1      -1.232   1.579   1.431  0.00  0.00    +0.020 C 
ATOM     16  C   UNL     1      -0.248   1.107   0.335  0.00  0.00    -0.011 C 
ATOM     17  C   UNL     1      -0.826   1.646  -0.987  0.00  0.00    -0.078 C 
ATOM     18  N   UNL     1      -2.082   2.353  -0.654  0.00  0.00    +0.380 N 
ATOM     19  C   UNL     1      -1.942   2.784   0.760  0.00  0.00    -0.069 C 
ATOM     20  H   UNL     1      -2.960   1.706  -0.800  0.00  0.00    -0.082 HD
BRANCH  18  21
ATOM     21  C   UNL     1      -2.285   3.509  -1.538  0.00  0.00    -0.075 C 
BRANCH  21  22
ATOM     22  C   UNL     1      -2.501   3.022  -2.973  0.00  0.00    -0.024 C 
ATOM     23  C   UNL     1      -2.604   4.227  -3.916  0.00  0.00    +0.006 C 
ATOM     24  C   UNL     1      -2.644   3.713  -5.356  0.00  0.00    +0.027 C 
ATOM     25  C   UNL     1      -3.663   2.619  -5.489  0.00  0.00    -0.031 C 
ATOM     26  C   UNL     1      -4.165   1.969  -4.489  0.00  0.00    -0.031 C 
ATOM     27  C   UNL     1      -3.805   2.225  -3.055  0.00  0.00    +0.028 C 
ENDBRANCH  21  22
ENDBRANCH  18  21
ENDBRANCH   3  15
TORSDOF 4
