REMARK  Name = ZINC04496848
REMARK  6 active torsions:
REMARK  status: ('A' for Active; 'I' for Inactive)
REMARK    1  A    between atoms: C_7  and  N_13
REMARK    2  A    between atoms: C_8  and  C_10
REMARK    3  A    between atoms: C_14  and  C_16
REMARK    4  A    between atoms: C_16  and  C_17
REMARK    5  A    between atoms: C_17  and  S_18
REMARK    6  A    between atoms: S_18  and  C_19
REMARK                            x       y       z     vdW  Elec       q    Type
REMARK                         _______ _______ _______ _____ _____    ______ ____
ROOT
ATOM      1  C   UNL     1      -2.151   3.655  -2.336  0.00  0.00    +0.001 A 
ATOM      2  C   UNL     1      -2.706   2.444  -1.945  0.00  0.00    +0.004 A 
ATOM      3  C   UNL     1      -2.103   1.675  -0.974  0.00  0.00    +0.047 A 
ATOM      4  C   UNL     1      -0.925   2.111  -0.376  0.00  0.00    +0.138 A 
ATOM      5  C   UNL     1      -0.368   3.338  -0.777  0.00  0.00    +0.042 A 
ATOM      6  C   UNL     1      -0.994   4.103  -1.762  0.00  0.00    +0.013 A 
ATOM      7  C   UNL     1       0.847   3.507   0.028  0.00  0.00    +0.092 A 
ATOM      8  C   UNL     1       0.924   2.400   0.827  0.00  0.00    +0.211 A 
ATOM      9  O   UNL     1      -0.131   1.591   0.580  0.00  0.00    -0.448 OA
ENDROOT
BRANCH   8  10
ATOM     10  C   UNL     1       1.980   2.135   1.802  0.00  0.00    +0.279 C 
ATOM     11  O   UNL     1       2.826   2.981   2.029  0.00  0.00    -0.267 OA
ATOM     12  N   UNL     1       2.017   0.954   2.451  0.00  0.00    -0.323 N 
ATOM     13  H   UNL     1       1.344   0.280   2.271  0.00  0.00    +0.145 HD
ATOM     14  H   UNL     1       2.718   0.779   3.098  0.00  0.00    +0.145 HD
ENDBRANCH   8  10
BRANCH   7  15
ATOM     15  N   UNL     1       1.738   4.574  -0.013  0.00  0.00    -0.282 N 
ATOM     16  C   UNL     1       1.315   5.790  -0.413  0.00  0.00    +0.218 C 
ATOM     17  O   UNL     1       0.144   5.969  -0.673  0.00  0.00    -0.275 OA
ATOM     18  H   UNL     1       2.663   4.444   0.246  0.00  0.00    +0.155 HD
BRANCH  16  19
ATOM     19  C   UNL     1       2.297   6.926  -0.538  0.00  0.00    +0.107 C 
BRANCH  19  20
ATOM     20  C   UNL     1       1.564   8.185  -1.006  0.00  0.00    +0.083 C 
BRANCH  20  21
ATOM     21  S   UNL     1       2.747   9.552  -1.156  0.00  0.00    -0.125 S 
BRANCH  21  22
ATOM     22  C   UNL     1       1.762  10.910  -1.695  0.00  0.00    +0.008 A 
ATOM     23  C   UNL     1       0.399  10.741  -1.903  0.00  0.00    +0.017 A 
ATOM     24  C   UNL     1      -0.372  11.809  -2.321  0.00  0.00    +0.039 A 
ATOM     25  C   UNL     1       0.215  13.043  -2.544  0.00  0.00    +0.123 A 
ATOM     26  C   UNL     1       1.575  13.212  -2.343  0.00  0.00    +0.039 A 
ATOM     27  C   UNL     1       2.349  12.149  -1.919  0.00  0.00    +0.017 A 
ATOM     28  F   UNL     1      -0.540  14.084  -2.957  0.00  0.00    -0.205 F 
ENDBRANCH  21  22
ENDBRANCH  20  21
ENDBRANCH  19  20
ENDBRANCH  16  19
ENDBRANCH   7  15
TORSDOF 6
