REMARK  Name = ZINC39685845
REMARK  13 active torsions:
REMARK  status: ('A' for Active; 'I' for Inactive)
REMARK    1  A    between atoms: C_1  and  C_2
REMARK    2  A    between atoms: C_2  and  C_3
REMARK    3  A    between atoms: C_2  and  C_4
REMARK    4  A    between atoms: C_4  and  C_6
REMARK    5  A    between atoms: C_4  and  N_13
REMARK    6  A    between atoms: N_8  and  C_9
REMARK    7  A    between atoms: C_9  and  C_10
REMARK    8  A    between atoms: C_9  and  C_11
REMARK    9  A    between atoms: C_9  and  C_12
REMARK   10  A    between atoms: C_14  and  C_16
REMARK   11  A    between atoms: C_27  and  C_29
REMARK   12  A    between atoms: C_33  and  O_34
REMARK   13  A    between atoms: O_34  and  C_35
REMARK                            x       y       z     vdW  Elec       q    Type
REMARK                         _______ _______ _______ _____ _____    ______ ____
ROOT
ATOM      1  C   UNL     1      -0.197  -3.861   1.747  0.00  0.00    +0.100 C 
ATOM      2  C   UNL     1       1.156  -4.028   1.020  0.00  0.00    +0.121 C 
ATOM      3  N   UNL     1       2.176  -3.763   2.062  0.00  0.00    -0.296 N 
ATOM      4  C   UNL     1       1.631  -4.404   3.283  0.00  0.00    +0.115 C 
ATOM      5  C   UNL     1       0.118  -4.112   3.231  0.00  0.00    -0.004 C 
ATOM      6  C   UNL     1      -0.670  -5.314   3.742  0.00  0.00    -0.010 C 
ATOM      7  C   UNL     1      -0.385  -5.508   5.234  0.00  0.00    -0.082 C 
ATOM      8  N   UNL     1      -0.769  -4.297   5.970  0.00  0.00    +0.379 N 
ATOM      9  C   UNL     1       0.059  -3.165   5.537  0.00  0.00    -0.082 C 
ATOM     10  C   UNL     1      -0.208  -2.872   4.058  0.00  0.00    -0.010 C 
ATOM     11  C   UNL     1       3.337  -3.091   1.930  0.00  0.00    +0.251 C 
ATOM     12  O   UNL     1       3.606  -2.542   0.878  0.00  0.00    -0.270 OA
ATOM     13  H   UNL     1      -1.740  -4.091   5.790  0.00  0.00    -0.086 HD
ATOM     14  H   UNL     1      -0.638  -4.450   6.958  0.00  0.00    -0.086 HD
ENDROOT
BRANCH  11  15
ATOM     15  C   UNL     1       4.279  -3.023   3.057  0.00  0.00    +0.087 A 
ATOM     16  C   UNL     1       4.411  -4.062   3.952  0.00  0.00    +0.063 A 
ATOM     17  S   UNL     1       5.577  -3.531   5.034  0.00  0.00    -0.081 S 
ATOM     18  C   UNL     1       5.933  -1.927   4.349  0.00  0.00    +0.120 A 
ATOM     19  C   UNL     1       5.116  -1.864   3.274  0.00  0.00    +0.158 A 
ATOM     20 CL   UNL     1       7.061  -0.737   4.919  0.00  0.00    -0.072 Cl
BRANCH  19  21
ATOM     21  O   UNL     1       5.079  -0.779   2.453  0.00  0.00    -0.492 OA
ATOM     22  C   UNL     1       4.154   0.258   2.789  0.00  0.00    +0.277 C 
ENDBRANCH  19  21
ENDBRANCH  11  15
BRANCH   1  24
ATOM     23  N   UNL     1      -2.054  -2.232   1.619  0.00  0.00    -0.303 N 
ATOM     24  C   UNL     1      -0.728  -2.464   1.552  0.00  0.00    +0.219 C 
ATOM     25  O   UNL     1       0.038  -1.548   1.336  0.00  0.00    -0.275 OA
ATOM     26  H   UNL     1      -2.666  -2.964   1.792  0.00  0.00    +0.149 HD
BRANCH  23  27
ATOM     27  C   UNL     1      -2.570  -0.874   1.429  0.00  0.00    +0.161 C 
BRANCH  27  28
ATOM     28  C   UNL     1      -3.901  -0.741   2.124  0.00  0.00    +0.234 C 
ATOM     29  O   UNL     1      -4.516  -1.734   2.451  0.00  0.00    -0.274 OA
ATOM     30  N   UNL     1      -4.408   0.481   2.381  0.00  0.00    -0.309 N 
ATOM     31  H   UNL     1      -3.888   1.274   2.178  0.00  0.00    +0.149 HD
BRANCH  30  32
ATOM     32  C   UNL     1      -5.744   0.611   2.969  0.00  0.00    +0.026 C 
ATOM     33  C   UNL     1      -5.775  -0.095   4.325  0.00  0.00    +0.031 C 
ATOM     34  C   UNL     1      -6.076   2.093   3.157  0.00  0.00    +0.031 C 
ATOM     35  C   UNL     1      -6.775  -0.028   2.037  0.00  0.00    +0.031 C 
ENDBRANCH  30  32
ENDBRANCH  27  28
BRANCH  27  37
ATOM     36  C   UNL     1      -1.382  -0.653  -0.757  0.00  0.00    +0.009 C 
ATOM     37  C   UNL     1      -2.745  -0.598  -0.065  0.00  0.00    +0.012 C 
ATOM     38  C   UNL     1      -3.669  -1.655  -0.674  0.00  0.00    +0.009 C 
ENDBRANCH  27  37
ENDBRANCH  23  27
ENDBRANCH   1  24
TORSDOF 7
