REMARK  Name = ZINC18144576
REMARK  5 active torsions:
REMARK  status: ('A' for Active; 'I' for Inactive)
REMARK    1  A    between atoms: C_1  and  C_2
REMARK    2  A    between atoms: C_6  and  N_9
REMARK    3  A    between atoms: C_7  and  C_8
REMARK    4  A    between atoms: N_9  and  C_10
REMARK    5  A    between atoms: N_20  and  C_23
REMARK                            x       y       z     vdW  Elec       q    Type
REMARK                         _______ _______ _______ _____ _____    ______ ____
ROOT
ATOM      1  C   UNL     1       2.508   1.458   0.614  0.00  0.00    +0.085 C 
ATOM      2  C   UNL     1       1.337   2.178   0.521  0.00  0.00    +0.059 C 
ATOM      3  C   UNL     1       1.358   3.638   0.294  0.00  0.00    +0.000 A 
ATOM      4  C   UNL     1       2.550   4.341   0.165  0.00  0.00    +0.009 A 
ATOM      5  C   UNL     1       2.517   5.705  -0.046  0.00  0.00    +0.001 A 
ATOM      6  C   UNL     1       1.305   6.376  -0.130  0.00  0.00    +0.001 A 
ATOM      7  C   UNL     1       0.113   5.696  -0.004  0.00  0.00    +0.014 A 
ATOM      8  C   UNL     1       0.124   4.317   0.210  0.00  0.00    +0.046 A 
ATOM      9  C   UNL     1      -1.123   3.554   0.349  0.00  0.00    +0.258 C 
ATOM     10  O   UNL     1      -2.189   4.134   0.278  0.00  0.00    -0.269 OA
ATOM     11  N   UNL     1      -1.105   2.226   0.550  0.00  0.00    -0.202 N 
ATOM     12  C   UNL     1       0.032   1.518   0.646  0.00  0.00    +0.259 C 
ATOM     13  O   UNL     1      -0.020   0.317   0.833  0.00  0.00    -0.269 OA
ENDROOT
BRANCH  11  14
ATOM     14  C   UNL     1      -2.326   1.551   0.670  0.00  0.00    +0.045 A 
ATOM     15  C   UNL     1      -2.743   0.684  -0.331  0.00  0.00    +0.024 A 
ATOM     16  C   UNL     1      -3.945   0.014  -0.207  0.00  0.00    +0.002 A 
ATOM     17  C   UNL     1      -4.739   0.216   0.907  0.00  0.00    +0.000 A 
ATOM     18  C   UNL     1      -4.329   1.084   1.903  0.00  0.00    +0.002 A 
ATOM     19  C   UNL     1      -3.125   1.751   1.788  0.00  0.00    +0.024 A 
ENDBRANCH  11  14
BRANCH   1  20
ATOM     20  N   UNL     1       3.626   1.893  -0.025  0.00  0.00    -0.320 N 
ATOM     21  H   UNL     1       3.570   2.756  -0.705  0.00  0.00    +0.152 HD
BRANCH  20  27
ATOM     22  C   UNL     1       8.437   1.530  -0.964  0.00  0.00    +0.044 C 
ATOM     23  C   UNL     1       7.196   1.049  -0.258  0.00  0.00    -0.046 A 
ATOM     24  C   UNL     1       7.264  -0.035   0.599  0.00  0.00    +0.004 A 
ATOM     25  C   UNL     1       6.127  -0.480   1.248  0.00  0.00    +0.002 A 
ATOM     26  C   UNL     1       4.920   0.161   1.048  0.00  0.00    +0.023 A 
ATOM     27  C   UNL     1       4.847   1.246   0.185  0.00  0.00    +0.034 A 
ATOM     28  C   UNL     1       5.991   1.691  -0.467  0.00  0.00    -0.026 A 
ATOM     29  C   UNL     1       5.918   2.872  -1.400  0.00  0.00    +0.046 C 
ENDBRANCH  20  27
ENDBRANCH   1  20
TORSDOF 3
