REMARK  Name = ZINC35955450
REMARK  5 active torsions:
REMARK  status: ('A' for Active; 'I' for Inactive)
REMARK    1  A    between atoms: C_4  and  C_7
REMARK    2  A    between atoms: N_9  and  C_10
REMARK    3  A    between atoms: C_16  and  N_18
REMARK    4  A    between atoms: C_19  and  C_21
REMARK    5  A    between atoms: C_28  and  C_30
REMARK                            x       y       z     vdW  Elec       q    Type
REMARK                         _______ _______ _______ _____ _____    ______ ____
ROOT
ATOM      1  N   UNL     1       6.120  -3.425   3.948  0.00  0.00    -0.310 N 
ATOM      2  C   UNL     1       5.208  -4.418   3.952  0.00  0.00    +0.218 C 
ATOM      3  O   UNL     1       5.183  -5.222   3.044  0.00  0.00    -0.275 OA
ATOM      4  H   UNL     1       6.140  -2.783   4.674  0.00  0.00    +0.149 HD
ENDROOT
BRANCH   2   5
ATOM      5  C   UNL     1       4.219  -4.529   5.084  0.00  0.00    +0.092 C 
ATOM      6  C   UNL     1       3.376  -3.254   5.152  0.00  0.00    +0.016 C 
ATOM      7  C   UNL     1       2.393  -3.352   6.321  0.00  0.00    +0.020 C 
ATOM      8  C   UNL     1       1.454  -4.541   6.096  0.00  0.00    +0.108 C 
ATOM      9  N   UNL     1       2.264  -5.749   5.885  0.00  0.00    -0.301 N 
ATOM     10  C   UNL     1       3.302  -5.732   4.845  0.00  0.00    +0.120 C 
ATOM     11  C   UNL     1       2.059  -6.852   6.632  0.00  0.00    +0.219 C 
ATOM     12  O   UNL     1       1.255  -6.829   7.540  0.00  0.00    -0.275 OA
BRANCH  11  13
ATOM     13  C   UNL     1       2.828  -8.114   6.338  0.00  0.00    +0.075 C 
ATOM     14  C   UNL     1       2.153  -8.868   5.190  0.00  0.00    +0.013 C 
ATOM     15  C   UNL     1       2.934 -10.149   4.892  0.00  0.00    +0.001 C 
ATOM     16  C   UNL     1       2.956 -11.035   6.140  0.00  0.00    +0.000 C 
ATOM     17  C   UNL     1       3.631 -10.281   7.288  0.00  0.00    +0.001 C 
ATOM     18  C   UNL     1       2.850  -9.000   7.586  0.00  0.00    +0.013 C 
ENDBRANCH  11  13
ENDBRANCH   2   5
BRANCH   1  24
ATOM     19  C   UNL     1       7.553  -1.867   2.723  0.00  0.00    +0.093 C 
ATOM     20  C   UNL     1       8.556  -1.755   1.574  0.00  0.00    +0.024 C 
ATOM     21  C   UNL     1       9.758  -2.659   1.856  0.00  0.00    +0.002 C 
ATOM     22  C   UNL     1       9.286  -4.109   1.981  0.00  0.00    +0.002 C 
ATOM     23  C   UNL     1       8.283  -4.222   3.130  0.00  0.00    +0.024 C 
ATOM     24  C   UNL     1       7.081  -3.318   2.848  0.00  0.00    +0.093 C 
BRANCH  19  27
ATOM     25  C   UNL     1       6.446   0.302   2.791  0.00  0.00    +0.244 C 
ATOM     26  O   UNL     1       7.441   0.760   3.320  0.00  0.00    -0.270 OA
ATOM     27  N   UNL     1       6.402  -1.002   2.453  0.00  0.00    -0.307 N 
ATOM     28  H   UNL     1       5.609  -1.367   2.031  0.00  0.00    +0.149 HD
BRANCH  25  32
ATOM     29  C   UNL     1       3.111   2.813   2.007  0.00  0.00    +0.000 A 
ATOM     30  C   UNL     1       4.241   3.337   2.610  0.00  0.00    +0.001 A 
ATOM     31  C   UNL     1       5.328   2.527   2.867  0.00  0.00    +0.013 A 
ATOM     32  C   UNL     1       5.285   1.176   2.518  0.00  0.00    +0.037 A 
ATOM     33  C   UNL     1       4.142   0.654   1.911  0.00  0.00    +0.013 A 
ATOM     34  C   UNL     1       3.062   1.475   1.659  0.00  0.00    +0.001 A 
ENDBRANCH  25  32
ENDBRANCH  19  27
ENDBRANCH   1  24
TORSDOF 5
