REMARK  Name = ZINC39225719
REMARK  19 active torsions:
REMARK  status: ('A' for Active; 'I' for Inactive)
REMARK    1  A    between atoms: C_1  and  C_2
REMARK    2  A    between atoms: C_2  and  C_3
REMARK    3  A    between atoms: C_2  and  C_4
REMARK    4  A    between atoms: C_4  and  N_5
REMARK    5  A    between atoms: N_14  and  C_23
REMARK    6  A    between atoms: C_17  and  C_19
REMARK    7  A    between atoms: C_19  and  C_20
REMARK    8  A    between atoms: C_20  and  S_21
REMARK    9  A    between atoms: S_21  and  C_22
REMARK   10  A    between atoms: C_23  and  C_24
REMARK   11  A    between atoms: N_26  and  C_27
REMARK   12  A    between atoms: C_27  and  C_29
REMARK   13  A    between atoms: C_27  and  C_33
REMARK   14  A    between atoms: C_29  and  C_30
REMARK   15  A    between atoms: C_33  and  O_35
REMARK   16  A    between atoms: O_35  and  C_36
REMARK   17  A    between atoms: C_36  and  C_37
REMARK   18  A    between atoms: C_36  and  C_38
REMARK   19  A    between atoms: C_36  and  C_39
REMARK                            x       y       z     vdW  Elec       q    Type
REMARK                         _______ _______ _______ _____ _____    ______ ____
ROOT
ATOM      1  N   UNL     1       0.323   0.129   1.960  0.00  0.00    +0.394 N 
ATOM      2  C   UNL     1      -0.960  -0.577   1.968  0.00  0.00    -0.067 C 
ATOM      3  C   UNL     1      -1.768  -0.089   3.178  0.00  0.00    +0.077 C 
ATOM      4  C   UNL     1      -0.943  -0.360   4.411  0.00  0.00    +0.213 C 
ATOM      5  O   UNL     1      -1.489  -0.475   5.488  0.00  0.00    -0.276 OA
ATOM      6  N   UNL     1       0.391  -0.475   4.326  0.00  0.00    -0.302 N 
ATOM      7  C   UNL     1       1.151  -0.216   3.107  0.00  0.00    +0.041 C 
ATOM      8  C   UNL     1       2.144   0.919   3.377  0.00  0.00    +0.111 C 
ATOM      9  N   UNL     1       2.844   0.709   4.636  0.00  0.00    -0.291 N 
ATOM     10  C   UNL     1       2.393  -0.056   5.631  0.00  0.00    +0.236 C 
ATOM     11  O   UNL     1       3.019  -0.081   6.670  0.00  0.00    -0.274 OA
ATOM     12  C   UNL     1       1.146  -0.887   5.525  0.00  0.00    +0.161 C 
ATOM     13  H   UNL     1       0.149   1.123   1.970  0.00  0.00    -0.079 HD
ENDROOT
BRANCH   1  14
ATOM     14  C   UNL     1       1.048  -0.214   0.729  0.00  0.00    -0.073 C 
BRANCH  14  16
ATOM     15  C   UNL     1       0.191   1.820  -0.444  0.00  0.00    +0.005 C 
ATOM     16  C   UNL     1       0.262   0.292  -0.483  0.00  0.00    -0.034 C 
ATOM     17  C   UNL     1       0.964  -0.153  -1.768  0.00  0.00    +0.005 C 
ENDBRANCH  14  16
ENDBRANCH   1  14
BRANCH  12  18
ATOM     18  C   UNL     1       1.524  -2.365   5.407  0.00  0.00    +0.042 C 
BRANCH  18  19
ATOM     19  C   UNL     1       0.255  -3.219   5.416  0.00  0.00    +0.071 C 
BRANCH  19  20
ATOM     20  S   UNL     1       0.704  -4.971   5.277  0.00  0.00    -0.164 S 
ATOM     21  C   UNL     1      -0.891  -5.836   5.301  0.00  0.00    +0.084 C 
ENDBRANCH  19  20
ENDBRANCH  18  19
ENDBRANCH  12  18
BRANCH   9  22
ATOM     22  C   UNL     1       4.132   1.383   4.822  0.00  0.00    +0.203 C 
BRANCH  22  23
ATOM     23  C   UNL     1       3.905   2.736   5.444  0.00  0.00    +0.231 C 
ATOM     24  O   UNL     1       2.779   3.102   5.707  0.00  0.00    -0.274 OA
ATOM     25  N   UNL     1       4.954   3.540   5.710  0.00  0.00    -0.301 N 
ATOM     26  H   UNL     1       5.846   3.280   5.432  0.00  0.00    +0.150 HD
BRANCH  25  27
ATOM     27  C   UNL     1       4.746   4.806   6.418  0.00  0.00    +0.191 C 
BRANCH  27  28
ATOM     28  C   UNL     1       4.432   5.892   5.422  0.00  0.00    +0.329 C 
ATOM     29  O   UNL     1       4.387   5.636   4.242  0.00  0.00    -0.249 OA
BRANCH  28  30
ATOM     30  O   UNL     1       4.203   7.145   5.846  0.00  0.00    -0.458 OA
BRANCH  30  31
ATOM     31  C   UNL     1       3.911   8.125   4.848  0.00  0.00    +0.105 C 
ATOM     32  C   UNL     1       2.652   7.713   4.082  0.00  0.00    +0.055 C 
ATOM     33  C   UNL     1       3.681   9.482   5.516  0.00  0.00    +0.055 C 
ATOM     34  C   UNL     1       5.089   8.229   3.876  0.00  0.00    +0.055 C 
ENDBRANCH  30  31
ENDBRANCH  28  30
ENDBRANCH  27  28
BRANCH  27  35
ATOM     35  C   UNL     1       6.015   5.172   7.190  0.00  0.00    +0.129 C 
BRANCH  35  36
ATOM     36  C   UNL     1       6.253   4.156   8.277  0.00  0.00    +0.213 C 
ATOM     37  O   UNL     1       5.530   3.186   8.369  0.00  0.00    -0.276 OA
ATOM     38  N   UNL     1       7.269   4.324   9.146  0.00  0.00    -0.329 N 
ATOM     39  H   UNL     1       7.848   5.099   9.072  0.00  0.00    +0.145 HD
ATOM     40  H   UNL     1       7.423   3.669   9.845  0.00  0.00    +0.145 HD
ENDBRANCH  35  36
ENDBRANCH  27  35
ENDBRANCH  25  27
ENDBRANCH  22  23
ENDBRANCH   9  22
TORSDOF 13
