REMARK  Name = ZINC12006617
REMARK  9 active torsions:
REMARK  status: ('A' for Active; 'I' for Inactive)
REMARK    1  A    between atoms: C_1  and  C_2
REMARK    2  A    between atoms: C_2  and  C_3
REMARK    3  A    between atoms: C_12  and  N_21
REMARK    4  A    between atoms: C_14  and  C_16
REMARK    5  A    between atoms: C_22  and  C_24
REMARK    6  A    between atoms: C_24  and  C_25
REMARK    7  A    between atoms: C_24  and  C_27
REMARK    8  A    between atoms: C_25  and  C_26
REMARK    9  A    between atoms: C_27  and  C_28
REMARK                            x       y       z     vdW  Elec       q    Type
REMARK                         _______ _______ _______ _____ _____    ______ ____
ROOT
ATOM      1  C   UNL     1      -3.885   5.174   0.073  0.00  0.00    +0.050 A 
ATOM      2  C   UNL     1      -3.439   6.463   0.104  0.00  0.00    +0.093 A 
ATOM      3  C   UNL     1      -2.054   6.700   0.188  0.00  0.00    +0.253 A 
ATOM      4  O   UNL     1      -1.618   7.839   0.219  0.00  0.00    -0.268 OA
ATOM      5  N   UNL     1      -1.217   5.641   0.239  0.00  0.00    -0.291 N 
ATOM      6  H   UNL     1      -0.259   5.781   0.301  0.00  0.00    +0.172 HD
ATOM      7  C   UNL     1      -1.721   4.379   0.199  0.00  0.00    +0.234 A 
ATOM      8  N   UNL     1      -3.017   4.165   0.121  0.00  0.00    -0.217 NA
ATOM      9  N   UNL     1      -0.858   3.302   0.247  0.00  0.00    -0.184 N 
ATOM     10  C   UNL     1      -1.216   1.984   0.215  0.00  0.00    +0.132 A 
ATOM     11  C   UNL     1      -0.079   1.246   0.286  0.00  0.00    +0.077 A 
ATOM     12  C   UNL     1       1.012   2.140   0.355  0.00  0.00    +0.130 A 
ATOM     13  N   UNL     1       0.539   3.369   0.331  0.00  0.00    -0.159 NA
ENDROOT
BRANCH  12  14
ATOM     14  C   UNL     1       2.438   1.761   0.440  0.00  0.00    +0.155 A 
ATOM     15  C   UNL     1       3.489   2.621   0.501  0.00  0.00    +0.051 A 
ATOM     16  C   UNL     1       4.655   1.832   0.574  0.00  0.00    +0.042 A 
ATOM     17  C   UNL     1       4.262   0.544   0.545  0.00  0.00    +0.196 A 
ATOM     18  O   UNL     1       2.922   0.504   0.464  0.00  0.00    -0.461 OA
ENDBRANCH  12  14
BRANCH  10  19
ATOM     19  N   UNL     1      -2.514   1.486   0.127  0.00  0.00    -0.270 N 
ATOM     20  C   UNL     1      -2.726   0.155   0.108  0.00  0.00    +0.221 C 
ATOM     21  O   UNL     1      -1.784  -0.608   0.072  0.00  0.00    -0.275 OA
ATOM     22  H   UNL     1      -3.265   2.098   0.081  0.00  0.00    +0.156 HD
BRANCH  20  23
ATOM     23  C   UNL     1      -4.133  -0.384   0.131  0.00  0.00    +0.075 C 
BRANCH  23  24
ATOM     24  C   UNL     1      -4.598  -0.657  -1.301  0.00  0.00    +0.009 C 
ATOM     25  C   UNL     1      -6.066  -1.086  -1.288  0.00  0.00    +0.004 C 
ENDBRANCH  23  24
BRANCH  23  26
ATOM     26  C   UNL     1      -4.167  -1.685   0.935  0.00  0.00    +0.009 C 
ATOM     27  C   UNL     1      -3.835  -1.388   2.399  0.00  0.00    +0.004 C 
ENDBRANCH  23  26
ENDBRANCH  20  23
ENDBRANCH  10  19
BRANCH   1  29
ATOM     28  C   UNL     1      -5.754   4.678  -1.480  0.00  0.00    +0.010 C 
ATOM     29  C   UNL     1      -5.363   4.892  -0.016  0.00  0.00    +0.052 C 
ENDBRANCH   1  29
TORSDOF 6
