REMARK  Name = ZINC32517235
REMARK  5 active torsions:
REMARK  status: ('A' for Active; 'I' for Inactive)
REMARK    1  A    between atoms: C_1  and  C_2
REMARK    2  A    between atoms: C_5  and  N_22
REMARK    3  A    between atoms: C_7  and  N_8
REMARK    4  A    between atoms: C_9  and  C_11
REMARK    5  A    between atoms: C_18  and  C_21
REMARK                            x       y       z     vdW  Elec       q    Type
REMARK                         _______ _______ _______ _____ _____    ______ ____
ROOT
ATOM      1  N   UNL     1      -0.848   2.395   5.950  0.00  0.00    -0.281 N 
ATOM      2  C   UNL     1      -1.812   2.640   5.040  0.00  0.00    +0.255 C 
ATOM      3  O   UNL     1      -2.873   3.121   5.392  0.00  0.00    -0.269 OA
ATOM      4  H   UNL     1       0.074   1.878   5.648  0.00  0.00    +0.155 HD
ENDROOT
BRANCH   2   5
ATOM      5  C   UNL     1      -1.581   2.329   3.627  0.00  0.00    +0.075 A 
ATOM      6  C   UNL     1      -2.427   2.501   2.547  0.00  0.00    +0.024 A 
ATOM      7  C   UNL     1      -1.973   2.123   1.293  0.00  0.00    -0.036 A 
ATOM      8  C   UNL     1      -0.710   1.607   1.227  0.00  0.00    -0.006 A 
ATOM      9  S   UNL     1      -0.136   1.627   2.850  0.00  0.00    -0.088 S 
ATOM     10  C   UNL     1       0.006   1.129   0.001  0.00  0.00    +0.043 C 
ATOM     11  C   UNL     1      -0.746   1.649  -1.233  0.00  0.00    +0.009 C 
ATOM     12  C   UNL     1      -2.239   1.361  -1.056  0.00  0.00    -0.009 C 
ATOM     13  C   UNL     1      -2.820   2.266   0.031  0.00  0.00    +0.039 C 
ATOM     14  C   UNL     1      -2.967   1.623  -2.377  0.00  0.00    +0.008 C 
ENDBRANCH   2   5
BRANCH   1  21
ATOM     15  C   UNL     1       0.589   1.004   7.974  0.00  0.00    +0.045 C 
ATOM     16  C   UNL     1      -0.340   2.146   8.297  0.00  0.00    -0.029 A 
ATOM     17  C   UNL     1      -0.514   2.546   9.608  0.00  0.00    +0.007 A 
ATOM     18  C   UNL     1      -1.365   3.594   9.905  0.00  0.00    +0.033 A 
ATOM     19  C   UNL     1      -2.046   4.245   8.893  0.00  0.00    +0.128 A 
ATOM     20  C   UNL     1      -1.873   3.853   7.580  0.00  0.00    +0.056 A 
ATOM     21  C   UNL     1      -1.022   2.797   7.278  0.00  0.00    +0.039 A 
BRANCH  19  22
ATOM     22  N   UNL     1      -2.957   5.366   9.216  0.00  0.00    +0.056 N 
ATOM     23  O   UNL     1      -3.106   5.715  10.373  0.00  0.00    -0.126 OA
ATOM     24  O   UNL     1      -3.557   5.940   8.324  0.00  0.00    -0.126 OA
ENDBRANCH  19  22
ENDBRANCH   1  21
TORSDOF 3
