REMARK  Name = ZINC12879219
REMARK  14 active torsions:
REMARK  status: ('A' for Active; 'I' for Inactive)
REMARK    1  A    between atoms: C_1  and  C_2
REMARK    2  A    between atoms: C_2  and  C_3
REMARK    3  A    between atoms: C_3  and  C_4
REMARK    4  A    between atoms: C_4  and  N_5
REMARK    5  A    between atoms: C_6  and  N_36
REMARK    6  A    between atoms: C_7  and  N_14
REMARK    7  A    between atoms: N_14  and  C_15
REMARK    8  A    between atoms: C_15  and  C_16
REMARK    9  A    between atoms: C_16  and  C_17
REMARK   10  A    between atoms: C_16  and  C_18
REMARK   11  A    between atoms: C_19  and  C_21
REMARK   12  A    between atoms: N_26  and  C_28
REMARK   13  A    between atoms: C_31  and  C_34
REMARK   14  A    between atoms: C_34  and  C_35
REMARK                            x       y       z     vdW  Elec       q    Type
REMARK                         _______ _______ _______ _____ _____    ______ ____
ROOT
ATOM      1  N   UNL     1       5.151  -3.415   3.262  0.00  0.00    -0.264 N 
ATOM      2  C   UNL     1       6.009  -3.118   2.264  0.00  0.00    +0.225 C 
ATOM      3  O   UNL     1       7.205  -3.122   2.471  0.00  0.00    -0.275 OA
ENDROOT
BRANCH   1   6
ATOM      4  N   UNL     1       1.643  -2.338   3.456  0.00  0.00    -0.280 N 
ATOM      5  C   UNL     1       2.997  -2.389   3.692  0.00  0.00    +0.127 A 
ATOM      6  C   UNL     1       3.759  -3.338   3.042  0.00  0.00    +0.140 A 
ATOM      7  C   UNL     1       3.124  -4.228   2.155  0.00  0.00    +0.277 A 
ATOM      8  O   UNL     1       3.773  -5.077   1.567  0.00  0.00    -0.266 OA
ATOM      9  N   UNL     1       1.794  -4.136   1.960  0.00  0.00    -0.273 N 
ATOM     10  H   UNL     1       1.356  -4.748   1.349  0.00  0.00    +0.173 HD
ATOM     11  C   UNL     1       1.067  -3.207   2.606  0.00  0.00    +0.331 A 
ATOM     12  O   UNL     1      -0.133  -3.149   2.415  0.00  0.00    -0.246 OA
BRANCH   5  13
ATOM     13  N   UNL     1       3.585  -1.504   4.564  0.00  0.00    -0.343 N 
ATOM     14  H   UNL     1       3.057  -0.797   4.967  0.00  0.00    +0.144 HD
ATOM     15  H   UNL     1       4.528  -1.586   4.777  0.00  0.00    +0.144 HD
ENDBRANCH   5  13
BRANCH   4  16
ATOM     16  C   UNL     1       0.822  -1.335   4.139  0.00  0.00    +0.128 C 
BRANCH  16  17
ATOM     17  C   UNL     1       0.319  -1.907   5.466  0.00  0.00    +0.021 C 
BRANCH  17  19
ATOM     18  C   UNL     1      -1.042  -1.431   7.507  0.00  0.00    +0.004 C 
ATOM     19  C   UNL     1      -0.539  -0.859   6.180  0.00  0.00    -0.002 C 
ENDBRANCH  17  19
ENDBRANCH  16  17
ENDBRANCH   4  16
ENDBRANCH   1   6
BRANCH   2  20
ATOM     20  C   UNL     1       5.483  -2.780   0.893  0.00  0.00    +0.102 C 
ATOM     21  C   UNL     1       4.828  -1.379   0.881  0.00  0.00    +0.110 C 
ATOM     22  C   UNL     1       5.943  -0.452   0.448  0.00  0.00    +0.221 C 
ATOM     23  O   UNL     1       5.933   0.753   0.577  0.00  0.00    -0.275 OA
ATOM     24  N   UNL     1       6.946  -1.160  -0.100  0.00  0.00    -0.271 N 
ATOM     25  C   UNL     1       6.640  -2.596  -0.114  0.00  0.00    +0.127 C 
BRANCH  24  26
ATOM     26  C   UNL     1       8.129  -0.600  -0.594  0.00  0.00    +0.036 A 
ATOM     27  C   UNL     1       8.382   0.755  -0.424  0.00  0.00    +0.024 A 
ATOM     28  C   UNL     1       9.551   1.304  -0.912  0.00  0.00    +0.005 A 
ATOM     29  C   UNL     1      10.470   0.507  -1.570  0.00  0.00    -0.048 A 
ATOM     30  C   UNL     1      10.221  -0.843  -1.741  0.00  0.00    +0.005 A 
ATOM     31  C   UNL     1       9.056  -1.399  -1.250  0.00  0.00    +0.024 A 
BRANCH  29  32
ATOM     32  C   UNL     1      11.744   1.110  -2.102  0.00  0.00    +0.032 C 
ATOM     33  C   UNL     1      12.831   1.035  -1.028  0.00  0.00    +0.009 C 
ENDBRANCH  29  32
ENDBRANCH  24  26
ENDBRANCH   2  20
BRANCH   1  34
ATOM     34  C   UNL     1       5.663  -3.818   4.573  0.00  0.00    +0.117 C 
BRANCH  34  35
ATOM     35  C   UNL     1       5.967  -5.318   4.564  0.00  0.00    +0.001 C 
ATOM     36  C   UNL     1       6.665  -5.706   5.868  0.00  0.00    +0.009 C 
ATOM     37  C   UNL     1       4.659  -6.102   4.432  0.00  0.00    +0.009 C 
ENDBRANCH  34  35
ENDBRANCH   1  34
TORSDOF 10
