REMARK  Name = ZINC12036545
REMARK  12 active torsions:
REMARK  status: ('A' for Active; 'I' for Inactive)
REMARK    1  A    between atoms: C_1  and  C_2
REMARK    2  A    between atoms: C_7  and  C_8
REMARK    3  A    between atoms: C_8  and  C_9
REMARK    4  A    between atoms: C_9  and  C_21
REMARK    5  A    between atoms: N_12  and  C_16
REMARK    6  A    between atoms: C_16  and  C_17
REMARK    7  A    between atoms: C_17  and  C_18
REMARK    8  A    between atoms: C_18  and  N_80
REMARK    9  A    between atoms: C_19  and  N_80
REMARK   10  A    between atoms: C_20  and  N_80
REMARK   11  A    between atoms: C_27  and  C_29
REMARK   12  A    between atoms: C_29  and  C_35
REMARK                            x       y       z     vdW  Elec       q    Type
REMARK                         _______ _______ _______ _____ _____    ______ ____
ROOT
ATOM      1  C   UNL     1      -0.233  -0.284  -0.321  0.00  0.00    +0.119 C 
ATOM      2  C   UNL     1       0.296  -1.057   0.871  0.00  0.00    +0.247 C 
ATOM      3  O   UNL     1      -0.134  -1.040   2.004  0.00  0.00    -0.273 OA
ATOM      4  N   UNL     1       1.344  -1.767   0.409  0.00  0.00    -0.224 N 
ATOM      5  C   UNL     1       1.549  -1.553  -0.896  0.00  0.00    +0.309 C 
ATOM      6  O   UNL     1       2.436  -2.082  -1.536  0.00  0.00    -0.252 OA
ATOM      7  N   UNL     1       0.660  -0.686  -1.422  0.00  0.00    -0.284 N 
ATOM      8  H   UNL     1       0.615  -0.386  -2.343  0.00  0.00    +0.151 HD
ENDROOT
BRANCH   1   9
ATOM      9  C   UNL     1      -0.136   1.222  -0.072  0.00  0.00    +0.025 C 
ATOM     10  C   UNL     1      -0.612   1.976  -1.316  0.00  0.00    +0.025 C 
ATOM     11  C   UNL     1      -0.546   3.483  -1.051  0.00  0.00    +0.108 C 
ATOM     12  N   UNL     1       0.815   3.829  -0.620  0.00  0.00    -0.301 N 
ATOM     13  C   UNL     1       1.404   3.100   0.511  0.00  0.00    +0.108 C 
ATOM     14  C   UNL     1       1.317   1.597   0.229  0.00  0.00    +0.025 C 
ATOM     15  C   UNL     1       1.510   4.796  -1.251  0.00  0.00    +0.221 C 
ATOM     16  O   UNL     1       2.606   5.120  -0.843  0.00  0.00    -0.275 OA
BRANCH  15  17
ATOM     17  C   UNL     1       0.926   5.476  -2.463  0.00  0.00    +0.044 C 
ATOM     18  C   UNL     1       1.925   6.502  -3.003  0.00  0.00    +0.016 C 
ATOM     19  C   UNL     1       2.217   7.546  -1.923  0.00  0.00    +0.001 C 
ATOM     20  C   UNL     1       0.917   8.255  -1.534  0.00  0.00    +0.000 C 
ATOM     21  C   UNL     1      -0.081   7.229  -0.995  0.00  0.00    +0.001 C 
ATOM     22  C   UNL     1      -0.373   6.184  -2.074  0.00  0.00    +0.016 C 
ATOM     23  C   UNL     1       0.634   4.431  -3.542  0.00  0.00    +0.021 C 
ENDBRANCH  15  17
ENDBRANCH   1   9
BRANCH   1  24
ATOM     24  C   UNL     1      -1.677  -0.686  -0.625  0.00  0.00    +0.071 C 
BRANCH  24  31
ATOM     25  C   UNL     1      -1.280  -1.612  -3.333  0.00  0.00    +0.044 C 
ATOM     26  C   UNL     1      -1.544  -2.603  -2.229  0.00  0.00    -0.047 A 
ATOM     27  C   UNL     1      -1.596  -3.955  -2.512  0.00  0.00    +0.003 A 
ATOM     28  C   UNL     1      -1.837  -4.865  -1.499  0.00  0.00    +0.000 A 
ATOM     29  C   UNL     1      -2.028  -4.422  -0.204  0.00  0.00    +0.000 A 
ATOM     30  C   UNL     1      -1.971  -3.070   0.080  0.00  0.00    +0.004 A 
ATOM     31  C   UNL     1      -1.734  -2.160  -0.934  0.00  0.00    -0.042 A 
ENDBRANCH  24  31
ENDBRANCH   1  24
BRANCH   4  32
ATOM     32  C   UNL     1       2.159  -2.662   1.234  0.00  0.00    +0.116 C 
BRANCH  32  33
ATOM     33  C   UNL     1       1.561  -4.070   1.204  0.00  0.00    +0.001 C 
BRANCH  33  34
ATOM     34  C   UNL     1       2.412  -5.005   2.065  0.00  0.00    -0.078 C 
BRANCH  34  37
ATOM     35  C   UNL     1       1.930  -6.939   0.691  0.00  0.00    -0.097 C 
ATOM     36  C   UNL     1       2.481  -7.224   3.031  0.00  0.00    -0.097 C 
ATOM     37  N   UNL     1       1.809  -6.354   2.043  0.00  0.00    +0.376 N 
ATOM     38  H   UNL     1       0.815  -6.279   2.286  0.00  0.00    -0.083 HD
ENDBRANCH  34  37
ENDBRANCH  33  34
ENDBRANCH  32  33
ENDBRANCH   4  32
TORSDOF 8
