REMARK  Name = ZINC09814442
REMARK  9 active torsions:
REMARK  status: ('A' for Active; 'I' for Inactive)
REMARK    1  A    between atoms: C_1  and  C_2
REMARK    2  A    between atoms: C_5  and  C_29
REMARK    3  A    between atoms: C_6  and  C_8
REMARK    4  A    between atoms: C_8  and  C_9
REMARK    5  A    between atoms: C_15  and  C_17
REMARK    6  A    between atoms: C_20  and  S_23
REMARK    7  A    between atoms: S_23  and  C_26
REMARK    8  A    between atoms: C_26  and  C_27
REMARK    9  A    between atoms: C_26  and  C_28
REMARK                            x       y       z     vdW  Elec       q    Type
REMARK                         _______ _______ _______ _____ _____    ______ ____
ROOT
ATOM      1  C   UNL     1       2.933   4.094  -1.420  0.00  0.00    +0.225 C 
ATOM      2  O   UNL     1       2.288   3.627  -2.334  0.00  0.00    -0.275 OA
ATOM      3  N   UNL     1       4.080   4.755  -1.673  0.00  0.00    -0.238 N 
ATOM      4  C   UNL     1       4.523   4.900  -2.978  0.00  0.00    +0.314 A 
ATOM      5  N   UNL     1       3.927   4.447  -4.054  0.00  0.00    -0.092 NA
ATOM      6  N   UNL     1       4.617   4.764  -5.092  0.00  0.00    -0.106 NA
ATOM      7  C   UNL     1       5.682   5.433  -4.719  0.00  0.00    +0.250 A 
ATOM      8  O   UNL     1       5.641   5.537  -3.373  0.00  0.00    -0.405 OA
ATOM      9  H   UNL     1       4.596   5.129  -0.941  0.00  0.00    +0.159 HD
ENDROOT
BRANCH   7  10
ATOM     10  C   UNL     1       6.730   5.976  -5.607  0.00  0.00    +0.039 A 
ATOM     11  C   UNL     1       7.811   6.676  -5.069  0.00  0.00    +0.015 A 
ATOM     12  C   UNL     1       8.790   7.176  -5.904  0.00  0.00    +0.028 A 
ATOM     13  C   UNL     1       8.695   6.995  -7.272  0.00  0.00    +0.088 A 
ATOM     14  C   UNL     1       7.623   6.307  -7.812  0.00  0.00    +0.028 A 
ATOM     15  C   UNL     1       6.641   5.797  -6.989  0.00  0.00    +0.015 A 
BRANCH  13  16
ATOM     16  S   UNL     1       9.945   7.642  -8.331  0.00  0.00    -0.001 S 
ATOM     17  O   UNL     1      11.110   7.707  -7.520  0.00  0.00    -0.169 OA
ATOM     18  O   UNL     1       9.910   6.812  -9.484  0.00  0.00    -0.169 OA
BRANCH  16  19
ATOM     19  C   UNL     1       9.381   9.315  -8.749  0.00  0.00    +0.130 C 
ATOM     20  C   UNL     1       9.241  10.141  -7.469  0.00  0.00    +0.032 C 
ATOM     21  C   UNL     1      10.401   9.980  -9.676  0.00  0.00    +0.032 C 
ENDBRANCH  16  19
ENDBRANCH  13  16
ENDBRANCH   7  10
BRANCH   1  22
ATOM     22  C   UNL     1       2.451   3.937  -0.001  0.00  0.00    +0.131 C 
BRANCH  22  28
ATOM     23  C   UNL     1      -2.553   3.869   0.046  0.00  0.00    +0.044 C 
ATOM     24  C   UNL     1      -1.238   3.133   0.030  0.00  0.00    -0.050 A 
ATOM     25  C   UNL     1      -1.219   1.750   0.017  0.00  0.00    +0.003 A 
ATOM     26  C   UNL     1      -0.013   1.076   0.008  0.00  0.00    +0.004 A 
ATOM     27  C   UNL     1       1.175   1.783   0.000  0.00  0.00    -0.047 A 
ATOM     28  C   UNL     1       1.157   3.165   0.008  0.00  0.00    -0.035 A 
ATOM     29  C   UNL     1      -0.050   3.840   0.023  0.00  0.00    +0.007 A 
ATOM     30  C   UNL     1       2.490   1.048  -0.016  0.00  0.00    +0.044 C 
ENDBRANCH  22  28
ENDBRANCH   1  22
TORSDOF 5
