REMARK  Name = ZINC39939482
REMARK  10 active torsions:
REMARK  status: ('A' for Active; 'I' for Inactive)
REMARK    1  A    between atoms: C_1  and  C_2
REMARK    2  A    between atoms: C_2  and  C_3
REMARK    3  A    between atoms: C_2  and  N_4
REMARK    4  A    between atoms: C_5  and  C_7
REMARK    5  A    between atoms: C_7  and  N_8
REMARK    6  A    between atoms: C_14  and  C_16
REMARK    7  A    between atoms: C_16  and  S_17
REMARK    8  A    between atoms: S_17  and  C_18
REMARK    9  A    between atoms: C_22  and  C_27
REMARK   10  A    between atoms: N_23  and  C_24
REMARK                            x       y       z     vdW  Elec       q    Type
REMARK                         _______ _______ _______ _____ _____    ______ ____
ROOT
ATOM      1  C   UNL     1      -7.394  -9.957  -1.446  0.00  0.00    +0.237 C 
ATOM      2  N   UNL     1      -7.390  -9.635  -2.883  0.00  0.00    -0.237 N 
ATOM      3  N   UNL     1      -8.456  -8.753  -3.095  0.00  0.00    -0.169 NA
ATOM      4  C   UNL     1      -9.095  -8.504  -1.983  0.00  0.00    +0.147 C 
ATOM      5  N   UNL     1      -8.529  -9.193  -0.903  0.00  0.00    -0.282 N 
ATOM      6  H   UNL     1      -6.771  -9.969  -3.551  0.00  0.00    +0.171 HD
ENDROOT
BRANCH   4   7
ATOM      7  C   UNL     1     -10.207  -7.654  -1.883  0.00  0.00    +0.022 C 
ATOM      8  C   UNL     1     -10.880  -7.019  -2.927  0.00  0.00    +0.006 A 
ATOM      9  C   UNL     1     -10.685  -7.016  -4.324  0.00  0.00    +0.010 A 
ATOM     10  C   UNL     1     -11.513  -6.290  -5.119  0.00  0.00    +0.001 A 
ATOM     11  C   UNL     1     -12.562  -5.537  -4.587  0.00  0.00    +0.002 A 
ATOM     12  C   UNL     1     -12.807  -5.493  -3.254  0.00  0.00    +0.026 A 
ATOM     13  C   UNL     1     -11.984  -6.227  -2.361  0.00  0.00    +0.043 A 
ATOM     14  N   UNL     1     -12.014  -6.349  -1.048  0.00  0.00    -0.380 N 
ATOM     15  C   UNL     1     -10.932  -7.241  -0.621  0.00  0.00    +0.152 C 
ATOM     16  H   UNL     1     -12.653  -5.919  -0.459  0.00  0.00    +0.160 HD
ENDBRANCH   4   7
BRANCH   5  17
ATOM     17  C   UNL     1      -8.975  -9.160   0.492  0.00  0.00    +0.078 C 
ATOM     18  C   UNL     1      -8.143  -9.931   1.518  0.00  0.00    +0.024 C 
ATOM     19  C   UNL     1      -9.513 -10.461   1.092  0.00  0.00    +0.024 C 
ENDBRANCH   5  17
BRANCH   1  20
ATOM     20  S   UNL     1      -5.842  -9.424  -0.673  0.00  0.00    -0.109 S 
BRANCH  20  21
ATOM     21  C   UNL     1      -5.753  -7.650  -1.044  0.00  0.00    +0.168 C 
BRANCH  21  28
ATOM     22  N   UNL     1      -4.164  -3.033  -0.051  0.00  0.00    -0.291 NA
ATOM     23  C   UNL     1      -3.376  -3.945   0.789  0.00  0.00    +0.104 C 
ATOM     24  C   UNL     1      -2.991  -5.183  -0.029  0.00  0.00    +0.123 C 
ATOM     25  N   UNL     1      -4.215  -5.765  -0.601  0.00  0.00    -0.298 N 
ATOM     26  C   UNL     1      -5.126  -4.879  -1.341  0.00  0.00    +0.123 C 
ATOM     27  C   UNL     1      -5.427  -3.654  -0.471  0.00  0.00    +0.104 C 
ATOM     28  C   UNL     1      -4.494  -7.075  -0.450  0.00  0.00    +0.226 C 
ATOM     29  O   UNL     1      -3.730  -7.790   0.163  0.00  0.00    -0.275 OA
BRANCH  22  30
ATOM     30  C   UNL     1      -4.407  -1.760   0.640  0.00  0.00    +0.180 C 
BRANCH  30  32
ATOM     31  N   UNL     1      -3.077   0.161   1.453  0.00  0.00    -0.312 N 
ATOM     32  C   UNL     1      -3.099  -1.038   0.837  0.00  0.00    +0.227 C 
ATOM     33  O   UNL     1      -2.066  -1.535   0.441  0.00  0.00    -0.274 OA
ATOM     34  H   UNL     1      -3.904   0.559   1.770  0.00  0.00    +0.149 HD
BRANCH  31  36
ATOM     35  C   UNL     1      -2.066   2.366   1.765  0.00  0.00    +0.027 C 
ATOM     36  C   UNL     1      -1.806   0.863   1.645  0.00  0.00    +0.067 C 
ATOM     37  C   UNL     1      -1.132   0.358   2.922  0.00  0.00    +0.027 C 
ENDBRANCH  31  36
ENDBRANCH  30  32
ENDBRANCH  22  30
ENDBRANCH  21  28
ENDBRANCH  20  21
ENDBRANCH   1  20
TORSDOF 8
