REMARK  Name = ZINC39687312
REMARK  8 active torsions:
REMARK  status: ('A' for Active; 'I' for Inactive)
REMARK    1  A    between atoms: C_1  and  C_2
REMARK    2  A    between atoms: C_7  and  C_8
REMARK    3  A    between atoms: C_8  and  C_9
REMARK    4  A    between atoms: C_13  and  C_22
REMARK    5  A    between atoms: N_24  and  C_25
REMARK    6  A    between atoms: C_25  and  C_27
REMARK    7  A    between atoms: C_25  and  C_34
REMARK    8  A    between atoms: C_27  and  C_28
REMARK                            x       y       z     vdW  Elec       q    Type
REMARK                         _______ _______ _______ _____ _____    ______ ____
ROOT
ATOM      1  C   UNL     1      -0.792  -0.227   3.269  0.00  0.00    +0.220 C 
ATOM      2  O   UNL     1      -1.662  -0.793   2.643  0.00  0.00    -0.275 OA
ATOM      3  N   UNL     1      -1.108   0.484   4.370  0.00  0.00    -0.300 N 
ATOM      4  C   UNL     1      -0.193   1.243   5.255  0.00  0.00    +0.121 C 
ATOM      5  C   UNL     1      -0.974   2.527   5.614  0.00  0.00    +0.100 C 
ATOM      6  C   UNL     1      -2.454   2.152   5.426  0.00  0.00    -0.004 C 
ATOM      7  C   UNL     1      -2.450   0.688   4.966  0.00  0.00    +0.115 C 
ATOM      8  C   UNL     1      -3.091   3.034   4.356  0.00  0.00    -0.010 C 
ATOM      9  C   UNL     1      -4.575   2.681   4.228  0.00  0.00    -0.082 C 
ATOM     10  N   UNL     1      -5.242   2.886   5.520  0.00  0.00    +0.379 N 
ATOM     11  C   UNL     1      -4.686   1.968   6.522  0.00  0.00    -0.082 C 
ATOM     12  C   UNL     1      -3.206   2.290   6.746  0.00  0.00    -0.010 C 
ATOM     13  H   UNL     1      -5.100   3.838   5.823  0.00  0.00    -0.086 HD
ATOM     14  H   UNL     1      -6.230   2.712   5.418  0.00  0.00    -0.086 HD
ENDROOT
BRANCH   5  15
ATOM     15  C   UNL     1      -0.707   2.921   7.044  0.00  0.00    +0.219 C 
ATOM     16  O   UNL     1      -0.525   2.066   7.884  0.00  0.00    -0.275 OA
ATOM     17  N   UNL     1      -0.671   4.223   7.388  0.00  0.00    -0.303 N 
ATOM     18  H   UNL     1      -0.817   4.907   6.716  0.00  0.00    +0.149 HD
BRANCH  17  19
ATOM     19  C   UNL     1      -0.412   4.606   8.778  0.00  0.00    +0.163 C 
BRANCH  19  20
ATOM     20  C   UNL     1      -1.703   4.586   9.555  0.00  0.00    +0.236 C 
ATOM     21  O   UNL     1      -2.763   4.681   8.972  0.00  0.00    -0.274 OA
ATOM     22  N   UNL     1      -1.681   4.462  10.896  0.00  0.00    -0.300 N 
ATOM     23  C   UNL     1      -0.415   4.242  11.607  0.00  0.00    +0.108 C 
ATOM     24  C   UNL     1      -0.271   5.307  12.699  0.00  0.00    +0.019 C 
ATOM     25  C   UNL     1      -1.509   5.281  13.598  0.00  0.00    +0.003 C 
ATOM     26  C   UNL     1      -2.752   5.606  12.767  0.00  0.00    +0.019 C 
ATOM     27  C   UNL     1      -2.923   4.551  11.677  0.00  0.00    +0.108 C 
ENDBRANCH  19  20
BRANCH  19  28
ATOM     28  C   UNL     1       0.184   6.015   8.817  0.00  0.00    +0.067 C 
BRANCH  28  29
ATOM     29  C   UNL     1       1.536   6.007   8.150  0.00  0.00    -0.045 A 
ATOM     30  C   UNL     1       2.672   5.751   8.895  0.00  0.00    +0.004 A 
ATOM     31  C   UNL     1       3.912   5.743   8.284  0.00  0.00    +0.000 A 
ATOM     32  C   UNL     1       4.015   5.992   6.928  0.00  0.00    +0.000 A 
ATOM     33  C   UNL     1       2.879   6.248   6.183  0.00  0.00    +0.000 A 
ATOM     34  C   UNL     1       1.639   6.251   6.794  0.00  0.00    +0.004 A 
ENDBRANCH  28  29
ENDBRANCH  19  28
ENDBRANCH  17  19
ENDBRANCH   5  15
BRANCH   1  35
ATOM     35  C   UNL     1       0.643  -0.317   2.817  0.00  0.00    +0.131 C 
BRANCH  35  42
ATOM     36  C   UNL     1       0.191   0.878   0.226  0.00  0.00    +0.044 C 
ATOM     37  C   UNL     1       0.509  -0.591   0.333  0.00  0.00    -0.047 A 
ATOM     38  C   UNL     1       0.590  -1.366  -0.809  0.00  0.00    +0.003 A 
ATOM     39  C   UNL     1       0.881  -2.714  -0.711  0.00  0.00    +0.000 A 
ATOM     40  C   UNL     1       1.092  -3.287   0.529  0.00  0.00    +0.000 A 
ATOM     41  C   UNL     1       1.012  -2.512   1.671  0.00  0.00    +0.004 A 
ATOM     42  C   UNL     1       0.725  -1.163   1.573  0.00  0.00    -0.036 A 
ENDBRANCH  35  42
ENDBRANCH   1  35
TORSDOF 7
