REMARK  Name = ZINC23044047
REMARK  9 active torsions:
REMARK  status: ('A' for Active; 'I' for Inactive)
REMARK    1  A    between atoms: C_1  and  C_2
REMARK    2  A    between atoms: C_2  and  C_3
REMARK    3  A    between atoms: C_3  and  N_4
REMARK    4  A    between atoms: C_8  and  S_27
REMARK    5  A    between atoms: C_12  and  S_13
REMARK    6  A    between atoms: S_13  and  C_14
REMARK    7  A    between atoms: C_14  and  C_15
REMARK    8  A    between atoms: C_15  and  C_17
REMARK    9  A    between atoms: S_27  and  N_30
REMARK                            x       y       z     vdW  Elec       q    Type
REMARK                         _______ _______ _______ _____ _____    ______ ____
ROOT
ATOM      1  N   UNL     1       1.263   1.788  -0.000  0.00  0.00    -0.319 N 
ATOM      2  C   UNL     1       2.113   0.694  -0.014  0.00  0.00    +0.070 A 
ATOM      3  C   UNL     1       3.492   0.548  -0.029  0.00  0.00    +0.030 A 
ATOM      4  C   UNL     1       4.049  -0.714  -0.042  0.00  0.00    +0.030 A 
ATOM      5  C   UNL     1       3.239  -1.840  -0.041  0.00  0.00    +0.107 A 
ATOM      6  C   UNL     1       1.868  -1.714  -0.025  0.00  0.00    +0.058 A 
ATOM      7  C   UNL     1       1.288  -0.443  -0.013  0.00  0.00    +0.092 A 
ATOM      8  N   UNL     1       0.002  -0.004   0.002  0.00  0.00    -0.222 NA
ATOM      9  C   UNL     1      -0.016   1.306   0.009  0.00  0.00    +0.170 A 
ENDROOT
BRANCH   5  10
ATOM     10  S   UNL     1       3.970  -3.443  -0.057  0.00  0.00    +0.056 S 
ATOM     11  O   UNL     1       3.000  -4.326  -0.604  0.00  0.00    -0.153 OA
ATOM     12  O   UNL     1       5.266  -3.293  -0.620  0.00  0.00    -0.153 OA
BRANCH  10  13
ATOM     13  N   UNL     1       4.188  -3.898   1.520  0.00  0.00    -0.204 NA
ATOM     14  H   UNL     1       4.644  -4.898   1.554  0.00  0.00    +0.144 HD
ATOM     15  H   UNL     1       3.215  -3.921   2.033  0.00  0.00    +0.144 HD
ENDBRANCH  10  13
ENDBRANCH   5  10
BRANCH   1  16
ATOM     16  C   UNL     1       1.661   3.197   0.003  0.00  0.00    +0.124 C 
BRANCH  16  18
ATOM     17  C   UNL     1       2.229   5.153   1.450  0.00  0.00    +0.005 C 
ATOM     18  C   UNL     1       1.814   3.681   1.446  0.00  0.00    +0.018 C 
ENDBRANCH  16  18
ENDBRANCH   1  16
BRANCH   9  19
ATOM     19  S   UNL     1      -1.471   2.299   0.022  0.00  0.00    -0.080 S 
BRANCH  19  20
ATOM     20  C   UNL     1      -2.735   1.004   0.022  0.00  0.00    +0.152 C 
BRANCH  20  21
ATOM     21  C   UNL     1      -4.103   1.637   0.032  0.00  0.00    +0.150 C 
ATOM     22  O   UNL     1      -4.212   2.839   0.039  0.00  0.00    -0.296 OA
BRANCH  21  23
ATOM     23  C   UNL     1      -5.335   0.769   0.034  0.00  0.00    +0.031 C 
ATOM     24  C   UNL     1      -5.343  -0.108  -1.220  0.00  0.00    +0.018 C 
ATOM     25  C   UNL     1      -6.594  -0.990  -1.218  0.00  0.00    -0.010 C 
ATOM     26  C   UNL     1      -7.841  -0.104  -1.207  0.00  0.00    +0.007 C 
ATOM     27  C   UNL     1      -7.833   0.773   0.047  0.00  0.00    -0.010 C 
ATOM     28  C   UNL     1      -6.583   1.654   0.045  0.00  0.00    +0.018 C 
ATOM     29  C   UNL     1      -7.828  -0.117   1.292  0.00  0.00    +0.007 C 
ATOM     30  C   UNL     1      -6.581  -1.002   1.281  0.00  0.00    -0.010 C 
ATOM     31  C   UNL     1      -6.588  -1.879   0.027  0.00  0.00    +0.007 C 
ATOM     32  C   UNL     1      -5.330  -0.121   1.279  0.00  0.00    +0.018 C 
ENDBRANCH  21  23
ENDBRANCH  20  21
ENDBRANCH  19  20
ENDBRANCH   9  19
TORSDOF 8
