REMARK  Name = ZINC01365600
REMARK  4 active torsions:
REMARK  status: ('A' for Active; 'I' for Inactive)
REMARK    1  A    between atoms: C_1  and  C_2
REMARK    2  A    between atoms: C_8  and  N_10
REMARK    3  A    between atoms: C_11  and  C_13
REMARK    4  A    between atoms: N_21  and  C_22
REMARK                            x       y       z     vdW  Elec       q    Type
REMARK                         _______ _______ _______ _____ _____    ______ ____
ROOT
ATOM      1  C   UNL     1       0.031   0.582   4.839  0.00  0.00    +0.078 C 
ATOM      2  C   UNL     1      -0.547   1.977   4.588  0.00  0.00    +0.032 C 
ATOM      3  C   UNL     1      -1.290   2.450   5.841  0.00  0.00    +0.110 C 
ATOM      4  N   UNL     1      -0.377   2.373   6.990  0.00  0.00    -0.286 N 
ATOM      5  C   UNL     1       0.303   1.101   7.267  0.00  0.00    +0.110 C 
ATOM      6  C   UNL     1       1.028   0.642   5.998  0.00  0.00    +0.032 C 
ATOM      7  C   UNL     1      -0.167   3.449   7.774  0.00  0.00    +0.302 C 
ATOM      8  O   UNL     1      -0.660   4.521   7.480  0.00  0.00    -0.253 OA
ATOM      9  N   UNL     1       0.589   3.337   8.884  0.00  0.00    -0.296 N 
ATOM     10  H   UNL     1       1.041   2.501   9.080  0.00  0.00    +0.151 HD
ENDROOT
BRANCH   9  11
ATOM     11  C   UNL     1       0.728   4.476   9.794  0.00  0.00    +0.074 C 
ATOM     12  C   UNL     1       1.851   5.390   9.299  0.00  0.00    +0.022 C 
ATOM     13  C   UNL     1       1.996   6.581  10.249  0.00  0.00    +0.002 C 
ATOM     14  C   UNL     1       2.332   6.074  11.653  0.00  0.00    +0.000 C 
ATOM     15  C   UNL     1       1.209   5.160  12.148  0.00  0.00    +0.002 C 
ATOM     16  C   UNL     1       1.064   3.970  11.198  0.00  0.00    +0.022 C 
ENDBRANCH   9  11
BRANCH   1  18
ATOM     17  N   UNL     1       0.049  -0.033   2.443  0.00  0.00    -0.312 N 
ATOM     18  C   UNL     1       0.734   0.099   3.596  0.00  0.00    +0.216 C 
ATOM     19  O   UNL     1       1.916  -0.170   3.634  0.00  0.00    -0.276 OA
ATOM     20  H   UNL     1      -0.896   0.182   2.413  0.00  0.00    +0.149 HD
BRANCH  17  27
ATOM     21  C   UNL     1      -0.038   1.533   0.008  0.00  0.00    +0.009 C 
ATOM     22  C   UNL     1      -0.013   0.003  -0.001  0.00  0.00    +0.006 C 
ATOM     23  C   UNL     1       0.700  -0.487  -1.263  0.00  0.00    +0.005 C 
ATOM     24  C   UNL     1       0.725  -2.017  -1.273  0.00  0.00    +0.000 C 
ATOM     25  C   UNL     1       1.470  -2.523  -0.036  0.00  0.00    +0.002 C 
ATOM     26  C   UNL     1       0.757  -2.033   1.226  0.00  0.00    +0.022 C 
ATOM     27  C   UNL     1       0.732  -0.503   1.235  0.00  0.00    +0.076 C 
ENDBRANCH  17  27
ENDBRANCH   1  18
TORSDOF 3
