REMARK  Name = ZINC44062695
REMARK  3 active torsions:
REMARK  status: ('A' for Active; 'I' for Inactive)
REMARK    1  A    between atoms: C_1  and  C_2
REMARK    2  A    between atoms: C_17  and  O_21
REMARK    3  A    between atoms: C_19  and  O_20
REMARK                            x       y       z     vdW  Elec       q    Type
REMARK                         _______ _______ _______ _____ _____    ______ ____
ROOT
ATOM      1  C   UNL     1      -0.019   1.528   0.010  0.00  0.00    +0.052 C 
ATOM      2  C   UNL     1       0.002  -0.004   0.002  0.00  0.00    +0.174 C 
ATOM      3  C   UNL     1      -1.435  -0.529   0.012  0.00  0.00    +0.045 C 
ATOM      4  C   UNL     1      -1.707  -1.310  -1.274  0.00  0.00    +0.011 C 
ATOM      5  C   UNL     1      -2.673  -2.460  -0.980  0.00  0.00    +0.074 C 
ATOM      6  C   UNL     1      -1.907  -3.628  -0.413  0.00  0.00    +0.133 C 
ATOM      7  O   UNL     1      -0.995  -4.112  -1.040  0.00  0.00    -0.297 OA
ATOM      8  C   UNL     1      -2.284  -4.192   0.933  0.00  0.00    +0.074 C 
ATOM      9  C   UNL     1      -1.195  -5.153   1.413  0.00  0.00    +0.012 C 
ATOM     10  C   UNL     1       0.037  -4.358   1.853  0.00  0.00    +0.027 C 
ATOM     11  C   UNL     1       1.247  -4.856   1.110  0.00  0.00    -0.026 C 
ATOM     12  C   UNL     1       2.452  -4.384   1.297  0.00  0.00    +0.008 C 
ATOM     13  C   UNL     1       2.881  -3.307   2.188  0.00  0.00    +0.030 A 
ATOM     14  C   UNL     1       2.327  -2.013   2.109  0.00  0.00    +0.073 A 
ATOM     15  C   UNL     1       2.722  -1.035   3.026  0.00  0.00    +0.061 A 
ATOM     16  C   UNL     1       3.696  -1.307   3.970  0.00  0.00    +0.121 A 
ATOM     17  C   UNL     1       4.294  -2.560   4.006  0.00  0.00    +0.091 A 
ATOM     18  C   UNL     1       3.897  -3.546   3.123  0.00  0.00    +0.128 A 
ATOM     19  C   UNL     1       1.369  -1.634   1.053  0.00  0.00    +0.340 C 
ATOM     20  O   UNL     1       1.183  -2.356   0.096  0.00  0.00    -0.245 OA
ATOM     21  O   UNL     1       0.692  -0.473   1.161  0.00  0.00    -0.458 OA
ENDROOT
BRANCH  18  22
ATOM     22  O   UNL     1       4.497  -4.766   3.165  0.00  0.00    -0.506 OA
ATOM     23  H   UNL     1       5.274  -4.842   2.594  0.00  0.00    +0.292 HD
ENDBRANCH  18  22
BRANCH  16  24
ATOM     24  O   UNL     1       4.068  -0.351   4.859  0.00  0.00    -0.507 OA
ATOM     25  H   UNL     1       3.554  -0.353   5.678  0.00  0.00    +0.292 HD
ENDBRANCH  16  24
TORSDOF 2
