REMARK  Name = ZINC23549996
REMARK  3 active torsions:
REMARK  status: ('A' for Active; 'I' for Inactive)
REMARK    1  A    between atoms: C_4  and  C_7
REMARK    2  A    between atoms: C_20  and  C_24
REMARK    3  A    between atoms: C_27  and  N_30
REMARK                            x       y       z     vdW  Elec       q    Type
REMARK                         _______ _______ _______ _____ _____    ______ ____
ROOT
ATOM      1  C   UNL     1      -1.197  -0.746   0.115  0.00  0.00    +0.005 C 
ATOM      2  C   UNL     1      -1.120  -2.119  -0.213  0.00  0.00    +0.006 A 
ATOM      3  C   UNL     1      -2.290  -2.867  -0.424  0.00  0.00    +0.025 A 
ATOM      4  C   UNL     1      -2.200  -4.190  -0.741  0.00  0.00    +0.019 A 
ATOM      5  C   UNL     1      -0.959  -4.811  -0.858  0.00  0.00    +0.017 A 
ATOM      6  C   UNL     1       0.195  -4.116  -0.660  0.00  0.00    +0.025 A 
ATOM      7  C   UNL     1       0.144  -2.749  -0.332  0.00  0.00    +0.042 A 
ATOM      8  N   UNL     1       1.278  -2.065  -0.138  0.00  0.00    -0.281 N 
ATOM      9  C   UNL     1       1.282  -0.776   0.166  0.00  0.00    +0.250 C 
ATOM     10  O   UNL     1       2.345  -0.193   0.329  0.00  0.00    -0.270 OA
ATOM     11  C   UNL     1       0.013  -0.042   0.316  0.00  0.00    +0.063 C 
ATOM     12  C   UNL     1       0.006   1.315   0.643  0.00  0.00    +0.033 C 
ATOM     13  C   UNL     1       1.225   2.215   0.745  0.00  0.00    +0.077 C 
ATOM     14  C   UNL     1       0.660   3.447   1.492  0.00  0.00    +0.108 C 
ATOM     15  N   UNL     1      -0.784   3.360   1.171  0.00  0.00    -0.235 NA
ATOM     16  N   UNL     1      -1.077   2.054   0.915  0.00  0.00    -0.283 N 
ATOM     17 BR   UNL     1      -3.778  -5.193  -1.023  0.00  0.00    -0.050 Br
ATOM     18  H   UNL     1      -1.014   3.940   0.378  0.00  0.00    +0.145 HD
ATOM     19  H   UNL     1      -2.121   1.708   0.946  0.00  0.00    +0.166 HD
ATOM     20  H   UNL     1       2.249  -2.574  -0.230  0.00  0.00    +0.155 HD
ENDROOT
BRANCH   1  24
ATOM     21  C   UNL     1      -4.949   1.205   0.489  0.00  0.00    +0.000 A 
ATOM     22  C   UNL     1      -4.261   1.259  -0.711  0.00  0.00    +0.001 A 
ATOM     23  C   UNL     1      -3.042   0.628  -0.840  0.00  0.00    +0.008 A 
ATOM     24  C   UNL     1      -2.501  -0.067   0.245  0.00  0.00    -0.016 A 
ATOM     25  C   UNL     1      -3.204  -0.121   1.452  0.00  0.00    +0.008 A 
ATOM     26  C   UNL     1      -4.419   0.519   1.568  0.00  0.00    +0.001 A 
ENDBRANCH   1  24
BRANCH  14  27
ATOM     27  C   UNL     1       1.255   4.723   0.954  0.00  0.00    -0.028 A 
ATOM     28  C   UNL     1       0.770   5.272  -0.218  0.00  0.00    +0.007 A 
ATOM     29  C   UNL     1       1.314   6.444  -0.709  0.00  0.00    +0.033 A 
ATOM     30  C   UNL     1       2.348   7.064  -0.032  0.00  0.00    +0.126 A 
ATOM     31  C   UNL     1       2.836   6.512   1.138  0.00  0.00    +0.033 A 
ATOM     32  C   UNL     1       2.290   5.342   1.631  0.00  0.00    +0.007 A 
BRANCH  30  33
ATOM     33  N   UNL     1       2.932   8.317  -0.559  0.00  0.00    +0.056 N 
ATOM     34  O   UNL     1       3.842   8.863   0.037  0.00  0.00    -0.126 OA
ATOM     35  O   UNL     1       2.501   8.803  -1.590  0.00  0.00    -0.126 OA
ENDBRANCH  30  33
ENDBRANCH  14  27
TORSDOF 3
