REMARK  Name = ZINC58836813
REMARK  5 active torsions:
REMARK  status: ('A' for Active; 'I' for Inactive)
REMARK    1  A    between atoms: C_1  and  C_2
REMARK    2  A    between atoms: C_2  and  C_24
REMARK    3  A    between atoms: N_3  and  N_4
REMARK    4  A    between atoms: C_8  and  C_13
REMARK    5  A    between atoms: N_15  and  C_16
REMARK                            x       y       z     vdW  Elec       q    Type
REMARK                         _______ _______ _______ _____ _____    ______ ____
ROOT
ATOM      1  N   UNL     1       0.541  -0.231   2.450  0.00  0.00    -0.137 N 
ATOM      2  C   UNL     1       0.998  -0.788   3.561  0.00  0.00    +0.243 C 
ATOM      3  O   UNL     1       1.590  -1.837   3.419  0.00  0.00    -0.273 OA
ATOM      4  C   UNL     1       0.881  -0.298   4.963  0.00  0.00    +0.122 C 
ATOM      5  C   UNL     1       0.775   1.226   5.044  0.00  0.00    +0.149 C 
ATOM      6  S   UNL     1      -0.560   1.755   3.920  0.00  0.00    -0.076 S 
ATOM      7  C   UNL     1      -0.029   1.033   2.389  0.00  0.00    +0.177 C 
ATOM      8  N   UNL     1      -0.170   1.660   1.256  0.00  0.00    -0.278 NA
ATOM      9  H   UNL     1      -0.636   2.510   1.227  0.00  0.00    +0.189 HD
ENDROOT
BRANCH   5  10
ATOM     10  C   UNL     1       0.448   1.640   6.456  0.00  0.00    +0.231 C 
ATOM     11  O   UNL     1      -0.200   0.903   7.169  0.00  0.00    -0.274 OA
ATOM     12  N   UNL     1       0.875   2.829   6.925  0.00  0.00    -0.283 N 
ATOM     13  H   UNL     1       1.326   3.451   6.332  0.00  0.00    +0.155 HD
BRANCH  12  14
ATOM     14  C   UNL     1       0.669   3.166   8.268  0.00  0.00    +0.053 A 
ATOM     15  C   UNL     1       0.412   2.172   9.203  0.00  0.00    +0.044 A 
ATOM     16  C   UNL     1       0.209   2.509  10.528  0.00  0.00    +0.043 A 
ATOM     17  C   UNL     1       0.263   3.834  10.924  0.00  0.00    +0.021 A 
ATOM     18  C   UNL     1       0.518   4.825   9.995  0.00  0.00    +0.023 A 
ATOM     19  C   UNL     1       0.728   4.495   8.669  0.00  0.00    +0.062 A 
ATOM     20 CL   UNL     1       1.056   5.740   7.505  0.00  0.00    -0.082 Cl
ATOM     21 CL   UNL     1      -0.113   1.267  11.698  0.00  0.00    -0.083 Cl
ENDBRANCH  12  14
ENDBRANCH   5  10
BRANCH   1  24
ATOM     22  C   UNL     1      -1.774  -1.199   1.311  0.00  0.00    +0.068 C 
ATOM     23  C   UNL     1      -0.426  -1.382   0.660  0.00  0.00    +0.064 C 
ATOM     24  N   UNL     1       0.645  -0.961   1.259  0.00  0.00    -0.175 NA
BRANCH  23  25
ATOM     25  C   UNL     1      -0.326  -2.039  -0.656  0.00  0.00    -0.003 A 
ATOM     26  C   UNL     1      -1.478  -2.487  -1.306  0.00  0.00    +0.010 A 
ATOM     27  C   UNL     1      -1.377  -3.101  -2.538  0.00  0.00    +0.001 A 
ATOM     28  C   UNL     1      -0.138  -3.272  -3.129  0.00  0.00    +0.000 A 
ATOM     29  C   UNL     1       1.008  -2.830  -2.491  0.00  0.00    +0.001 A 
ATOM     30  C   UNL     1       0.921  -2.209  -1.262  0.00  0.00    +0.010 A 
ENDBRANCH  23  25
ENDBRANCH   1  24
TORSDOF 4
