REMARK  Name = ZINC24759564
REMARK  9 active torsions:
REMARK  status: ('A' for Active; 'I' for Inactive)
REMARK    1  A    between atoms: C_1  and  C_2
REMARK    2  A    between atoms: C_2  and  N_3
REMARK    3  A    between atoms: N_3  and  C_4
REMARK    4  A    between atoms: N_3  and  C_6
REMARK    5  A    between atoms: C_4  and  C_5
REMARK    6  A    between atoms: C_9  and  C_12
REMARK    7  A    between atoms: N_14  and  C_18
REMARK    8  A    between atoms: C_18  and  N_19
REMARK    9  A    between atoms: C_23  and  C_25
REMARK                            x       y       z     vdW  Elec       q    Type
REMARK                         _______ _______ _______ _____ _____    ______ ____
ROOT
ATOM      1  C   UNL     1      -1.386  -2.837   4.957  0.00  0.00    +0.247 A 
ATOM      2  N   UNL     1      -0.470  -2.337   4.178  0.00  0.00    -0.131 NA
ATOM      3  N   UNL     1      -1.040  -2.156   2.909  0.00  0.00    -0.240 N 
ATOM      4  C   UNL     1      -2.323  -2.568   2.994  0.00  0.00    +0.265 A 
ATOM      5  S   UNL     1      -3.475  -2.558   1.728  0.00  0.00    +0.011 S 
ATOM      6  O   UNL     1      -2.529  -2.990   4.253  0.00  0.00    -0.412 OA
ENDROOT
BRANCH   1  10
ATOM      7  C   UNL     1      -0.863  -3.827   9.056  0.00  0.00    +0.030 A 
ATOM      8  C   UNL     1      -2.094  -4.033   8.444  0.00  0.00    +0.024 A 
ATOM      9  C   UNL     1      -2.267  -3.712   7.115  0.00  0.00    +0.015 A 
ATOM     10  C   UNL     1      -1.204  -3.181   6.383  0.00  0.00    +0.039 A 
ATOM     11  C   UNL     1       0.033  -2.981   6.999  0.00  0.00    +0.015 A 
ATOM     12  C   UNL     1       0.198  -3.298   8.329  0.00  0.00    +0.024 A 
BRANCH   7  13
ATOM     13  N   UNL     1      -0.691  -4.153  10.402  0.00  0.00    -0.330 N 
BRANCH  13  15
ATOM     14  C   UNL     1       0.650  -2.530  11.647  0.00  0.00    +0.024 C 
ATOM     15  C   UNL     1       0.606  -3.937  11.048  0.00  0.00    +0.102 C 
ENDBRANCH  13  15
BRANCH  13  16
ATOM     16  C   UNL     1      -1.807  -4.711  11.169  0.00  0.00    +0.102 C 
ATOM     17  C   UNL     1      -1.788  -6.237  11.061  0.00  0.00    +0.024 C 
ENDBRANCH  13  16
ENDBRANCH   7  13
ENDBRANCH   1  10
BRANCH   3  18
ATOM     18  C   UNL     1      -0.373  -1.617   1.721  0.00  0.00    +0.074 C 
BRANCH  18  19
ATOM     19  N   UNL     1       0.243  -2.716   0.965  0.00  0.00    +0.397 N 
ATOM     20  C   UNL     1      -0.780  -3.491   0.230  0.00  0.00    -0.075 C 
ATOM     21  C   UNL     1      -0.072  -3.946  -1.071  0.00  0.00    -0.020 C 
ATOM     22  C   UNL     1       0.804  -2.709  -1.399  0.00  0.00    -0.012 C 
ATOM     23  C   UNL     1       1.229  -2.203  -0.004  0.00  0.00    -0.034 C 
ATOM     24  H   UNL     1       0.747  -3.363   1.698  0.00  0.00    -0.078 HD
BRANCH  23  25
ATOM     25  C   UNL     1       1.232  -0.697   0.016  0.00  0.00    -0.043 A 
ATOM     26  C   UNL     1       0.109   0.013  -0.382  0.00  0.00    +0.005 A 
ATOM     27  C   UNL     1       0.157   1.398  -0.346  0.00  0.00    +0.020 A 
ATOM     28  C   UNL     1       1.314   2.021   0.082  0.00  0.00    +0.111 A 
ATOM     29  N   UNL     1       2.363   1.314   0.454  0.00  0.00    -0.263 NA
ATOM     30  C   UNL     1       2.353  -0.005   0.433  0.00  0.00    +0.112 A 
ENDBRANCH  23  25
ENDBRANCH  18  19
ENDBRANCH   3  18
TORSDOF 7
