REMARK  Name = ZINC61225330
REMARK  5 active torsions:
REMARK  status: ('A' for Active; 'I' for Inactive)
REMARK    1  A    between atoms: C_1  and  C_2
REMARK    2  A    between atoms: C_2  and  N_3
REMARK    3  A    between atoms: N_3  and  C_4
REMARK    4  A    between atoms: C_4  and  C_5
REMARK    5  A    between atoms: C_14  and  C_16
REMARK                            x       y       z     vdW  Elec       q    Type
REMARK                         _______ _______ _______ _____ _____    ______ ____
ROOT
ATOM      1  N   UNL     1       0.692  -0.452  -1.214  0.00  0.00    -0.292 N 
ATOM      2  C   UNL     1      -0.025  -0.801  -2.300  0.00  0.00    +0.263 C 
ATOM      3  O   UNL     1       0.530  -1.300  -3.259  0.00  0.00    -0.268 OA
ENDROOT
BRANCH   2   4
ATOM      4  C   UNL     1      -1.490  -0.575  -2.327  0.00  0.00    +0.106 A 
ATOM      5  C   UNL     1      -2.308  -1.524  -1.807  0.00  0.00    +0.082 A 
ATOM      6  C   UNL     1      -3.716  -1.331  -1.820  0.00  0.00    +0.190 A 
ATOM      7  O   UNL     1      -4.470  -2.170  -1.359  0.00  0.00    -0.287 OA
ATOM      8  C   UNL     1      -4.234  -0.085  -2.409  0.00  0.00    +0.045 A 
ATOM      9  C   UNL     1      -5.603   0.180  -2.459  0.00  0.00    +0.014 A 
ATOM     10  C   UNL     1      -6.047   1.348  -3.013  0.00  0.00    +0.001 A 
ATOM     11  C   UNL     1      -5.146   2.273  -3.526  0.00  0.00    +0.002 A 
ATOM     12  C   UNL     1      -3.791   2.032  -3.486  0.00  0.00    +0.026 A 
ATOM     13  C   UNL     1      -3.316   0.848  -2.926  0.00  0.00    +0.051 A 
ATOM     14  N   UNL     1      -1.969   0.583  -2.868  0.00  0.00    -0.350 N 
ATOM     15  H   UNL     1      -1.343   1.233  -3.223  0.00  0.00    +0.166 HD
ENDBRANCH   2   4
BRANCH   1  17
ATOM     16  C   UNL     1      -0.012   1.584  -0.056  0.00  0.00    +0.024 C 
ATOM     17  C   UNL     1       0.011   0.055  -0.019  0.00  0.00    +0.105 C 
ENDBRANCH   1  17
BRANCH   1  18
ATOM     18  C   UNL     1       2.151  -0.579  -1.226  0.00  0.00    +0.143 C 
BRANCH  18  19
ATOM     19  C   UNL     1       2.540  -1.949  -0.731  0.00  0.00    -0.026 A 
ATOM     20  C   UNL     1       2.759  -2.158   0.618  0.00  0.00    +0.009 A 
ATOM     21  C   UNL     1       3.115  -3.413   1.076  0.00  0.00    +0.050 A 
ATOM     22  C   UNL     1       3.255  -4.463   0.184  0.00  0.00    +0.166 A 
ATOM     23  C   UNL     1       3.034  -4.252  -1.175  0.00  0.00    +0.167 A 
ATOM     24  C   UNL     1       2.672  -2.994  -1.627  0.00  0.00    +0.054 A 
ATOM     25  O   UNL     1       3.233  -5.429  -1.837  0.00  0.00    -0.453 OA
ATOM     26  C   UNL     1       3.973  -6.263  -0.926  0.00  0.00    +0.466 C 
ATOM     27  O   UNL     1       3.591  -5.773   0.373  0.00  0.00    -0.453 OA
ENDBRANCH  18  19
ENDBRANCH   1  18
TORSDOF 4
