REMARK  Name = ZINC14459527
REMARK  4 active torsions:
REMARK  status: ('A' for Active; 'I' for Inactive)
REMARK    1  A    between atoms: C_1  and  O_2
REMARK    2  A    between atoms: O_2  and  C_3
REMARK    3  A    between atoms: C_7  and  C_10
REMARK    4  A    between atoms: C_8  and  O_9
REMARK                            x       y       z     vdW  Elec       q    Type
REMARK                         _______ _______ _______ _____ _____    ______ ____
ROOT
ATOM      1  C   UNL     1       1.479   4.485  -0.042  0.00  0.00    +0.109 C 
ATOM      2  C   UNL     1       0.679   3.322  -0.599  0.00  0.00    +0.029 C 
ATOM      3  C   UNL     1      -0.757   3.310  -0.024  0.00  0.00    +0.033 C 
ATOM      4  C   UNL     1      -1.130   1.839  -0.082  0.00  0.00    -0.030 C 
ATOM      5  C   UNL     1      -0.054   1.094  -0.115  0.00  0.00    -0.023 C 
ATOM      6  C   UNL     1       1.196   1.965  -0.088  0.00  0.00    +0.049 C 
ATOM      7  C   UNL     1       1.669   2.031   1.339  0.00  0.00    -0.019 A 
ATOM      8  C   UNL     1       2.003   0.842   1.972  0.00  0.00    +0.006 A 
ATOM      9  C   UNL     1       2.440   0.844   3.281  0.00  0.00    +0.000 A 
ATOM     10  C   UNL     1       2.550   2.033   3.978  0.00  0.00    +0.002 A 
ATOM     11  C   UNL     1       2.222   3.222   3.357  0.00  0.00    +0.023 A 
ATOM     12  C   UNL     1       1.783   3.220   2.038  0.00  0.00    +0.031 A 
ATOM     13  N   UNL     1       1.462   4.436   1.424  0.00  0.00    -0.336 N 
ATOM     14  H   UNL     1       1.237   5.219   1.950  0.00  0.00    +0.147 HD
ENDROOT
BRANCH   1  19
ATOM     15  C   UNL     1       4.531   4.711  -2.270  0.00  0.00    +0.162 A 
ATOM     16  C   UNL     1       5.519   4.233  -1.425  0.00  0.00    +0.049 A 
ATOM     17  C   UNL     1       5.198   3.839  -0.140  0.00  0.00    +0.004 A 
ATOM     18  C   UNL     1       3.893   3.925   0.308  0.00  0.00    +0.009 A 
ATOM     19  C   UNL     1       2.901   4.397  -0.532  0.00  0.00    +0.018 A 
ATOM     20  C   UNL     1       3.216   4.794  -1.822  0.00  0.00    +0.163 A 
BRANCH  15  22
ATOM     21  C   UNL     1       6.215   4.987  -3.927  0.00  0.00    +0.277 C 
ATOM     22  O   UNL     1       4.845   5.099  -3.535  0.00  0.00    -0.491 OA
ENDBRANCH  15  22
BRANCH  20  23
ATOM     23  O   UNL     1       2.243   5.262  -2.647  0.00  0.00    -0.503 OA
ATOM     24  H   UNL     1       2.111   6.219  -2.597  0.00  0.00    +0.292 HD
ENDBRANCH  20  23
ENDBRANCH   1  19
TORSDOF 3
