REMARK  Name = ZINC09382019
REMARK  8 active torsions:
REMARK  status: ('A' for Active; 'I' for Inactive)
REMARK    1  A    between atoms: C_1  and  O_2
REMARK    2  A    between atoms: O_2  and  C_3
REMARK    3  A    between atoms: C_6  and  N_9
REMARK    4  A    between atoms: C_10  and  C_24
REMARK    5  A    between atoms: C_13  and  S_14
REMARK    6  A    between atoms: S_14  and  C_15
REMARK    7  A    between atoms: C_15  and  C_16
REMARK    8  A    between atoms: C_24  and  C_25
REMARK                            x       y       z     vdW  Elec       q    Type
REMARK                         _______ _______ _______ _____ _____    ______ ____
ROOT
ATOM      1  N   UNL     1      -3.645   3.630   2.326  0.00  0.00    -0.274 N 
ATOM      2  C   UNL     1      -2.891   4.383   1.466  0.00  0.00    +0.144 A 
ATOM      3  N   UNL     1      -2.543   5.466   2.102  0.00  0.00    -0.133 NA
ATOM      4  N   UNL     1      -3.017   5.449   3.297  0.00  0.00    -0.122 NA
ATOM      5  C   UNL     1      -3.700   4.344   3.491  0.00  0.00    +0.196 A 
ENDROOT
BRANCH   1   9
ATOM      6  C   UNL     1      -5.405  -0.073   1.554  0.00  0.00    +0.120 A 
ATOM      7  C   UNL     1      -4.401   0.033   2.505  0.00  0.00    +0.047 A 
ATOM      8  C   UNL     1      -3.818   1.258   2.761  0.00  0.00    +0.030 A 
ATOM      9  C   UNL     1      -4.237   2.384   2.066  0.00  0.00    +0.050 A 
ATOM     10  C   UNL     1      -5.246   2.279   1.118  0.00  0.00    +0.030 A 
ATOM     11  C   UNL     1      -5.824   1.052   0.859  0.00  0.00    +0.047 A 
BRANCH   6  13
ATOM     12  C   UNL     1      -7.006  -1.316   0.310  0.00  0.00    +0.277 C 
ATOM     13  O   UNL     1      -5.979  -1.280   1.303  0.00  0.00    -0.495 OA
ENDBRANCH   6  13
ENDBRANCH   1   9
BRANCH   5  14
ATOM     14  S   UNL     1      -4.534   3.874   4.970  0.00  0.00    -0.081 S 
BRANCH  14  15
ATOM     15  C   UNL     1      -4.154   5.304   6.013  0.00  0.00    +0.114 C 
BRANCH  15  16
ATOM     16  C   UNL     1      -4.785   5.118   7.369  0.00  0.00    -0.019 A 
ATOM     17  C   UNL     1      -4.081   4.487   8.378  0.00  0.00    +0.007 A 
ATOM     18  C   UNL     1      -4.658   4.316   9.622  0.00  0.00    +0.020 A 
ATOM     19  C   UNL     1      -5.941   4.778   9.858  0.00  0.00    +0.042 A 
ATOM     20  C   UNL     1      -6.646   5.410   8.850  0.00  0.00    +0.040 A 
ATOM     21  C   UNL     1      -6.065   5.584   7.606  0.00  0.00    +0.046 A 
ATOM     22 CL   UNL     1      -6.946   6.383   6.341  0.00  0.00    -0.083 Cl
ATOM     23 CL   UNL     1      -6.666   4.563  11.421  0.00  0.00    -0.083 Cl
ENDBRANCH  15  16
ENDBRANCH  14  15
ENDBRANCH   5  14
BRANCH   2  24
ATOM     24  C   UNL     1      -2.534   4.028   0.045  0.00  0.00    +0.130 C 
BRANCH  24  25
ATOM     25  C   UNL     1      -1.236   3.261   0.030  0.00  0.00    +0.033 A 
ATOM     26  C   UNL     1      -1.246   1.911   0.018  0.00  0.00    +0.091 A 
ATOM     27  C   UNL     1      -0.014   1.214   0.009  0.00  0.00    +0.254 A 
ATOM     28  O   UNL     1       0.002  -0.004   0.002  0.00  0.00    -0.268 OA
ATOM     29  N   UNL     1       1.140   1.910   0.001  0.00  0.00    -0.275 N 
ATOM     30  H   UNL     1       2.014   1.424  -0.010  0.00  0.00    +0.173 HD
ATOM     31  C   UNL     1       1.121   3.256   0.009  0.00  0.00    +0.327 A 
ATOM     32  O   UNL     1       2.170   3.870   0.003  0.00  0.00    -0.247 OA
ATOM     33  N   UNL     1      -0.043   3.930   0.023  0.00  0.00    -0.311 N 
ATOM     34  H   UNL     1      -0.035   4.931   0.028  0.00  0.00    +0.170 HD
ENDBRANCH  24  25
ENDBRANCH   2  24
TORSDOF 7
