REMARK  Name = ZINC09421272
REMARK  4 active torsions:
REMARK  status: ('A' for Active; 'I' for Inactive)
REMARK    1  A    between atoms: C_6  and  N_7
REMARK    2  A    between atoms: C_8  and  C_10
REMARK    3  A    between atoms: C_10  and  S_11
REMARK    4  A    between atoms: S_11  and  C_12
REMARK                            x       y       z     vdW  Elec       q    Type
REMARK                         _______ _______ _______ _____ _____    ______ ____
ROOT
ATOM      1  C   UNL     1      -2.479  -2.828  -0.204  0.00  0.00    +0.172 C 
ENDROOT
BRANCH   1   3
ATOM      2  N   UNL     1      -1.200  -0.722   0.010  0.00  0.00    -0.285 N 
ATOM      3  C   UNL     1      -1.183  -2.065  -0.099  0.00  0.00    +0.227 C 
ATOM      4  O   UNL     1      -0.126  -2.659  -0.113  0.00  0.00    -0.275 OA
ATOM      5  H   UNL     1      -2.044  -0.252   0.098  0.00  0.00    +0.155 HD
BRANCH   2  11
ATOM      6  C   UNL     1       1.072  -0.453  -0.766  0.00  0.00    +0.025 A 
ATOM      7  C   UNL     1       2.256   0.257  -0.778  0.00  0.00    +0.022 A 
ATOM      8  C   UNL     1       2.377   1.416  -0.032  0.00  0.00    +0.041 A 
ATOM      9  C   UNL     1       1.312   1.866   0.729  0.00  0.00    +0.022 A 
ATOM     10  C   UNL     1       0.126   1.159   0.745  0.00  0.00    +0.025 A 
ATOM     11  C   UNL     1       0.002  -0.004  -0.004  0.00  0.00    +0.033 A 
ATOM     12 CL   UNL     1       3.867   2.306  -0.048  0.00  0.00    -0.084 Cl
ENDBRANCH   2  11
ENDBRANCH   1   3
BRANCH   1  13
ATOM     13  S   UNL     1      -2.126  -4.602  -0.337  0.00  0.00    -0.094 S 
BRANCH  13  14
ATOM     14  C   UNL     1      -3.719  -5.347  -0.450  0.00  0.00    +0.128 A 
ATOM     15  C   UNL     1      -3.853  -6.733  -0.562  0.00  0.00    +0.117 A 
ATOM     16  C   UNL     1      -5.144  -7.279  -0.649  0.00  0.00    +0.183 A 
ATOM     17  N   UNL     1      -4.997  -8.614  -0.747  0.00  0.00    -0.216 NA
ATOM     18  C   UNL     1      -3.729  -8.921  -0.727  0.00  0.00    +0.199 A 
ATOM     19  N   UNL     1      -2.982  -7.800  -0.614  0.00  0.00    -0.341 N 
ATOM     20  H   UNL     1      -2.013  -7.755  -0.578  0.00  0.00    +0.167 HD
ATOM     21  N   UNL     1      -6.194  -6.452  -0.622  0.00  0.00    -0.196 NA
ATOM     22  C   UNL     1      -6.019  -5.152  -0.516  0.00  0.00    +0.226 A 
ATOM     23  N   UNL     1      -4.821  -4.601  -0.425  0.00  0.00    -0.209 NA
ATOM     24 CL   UNL     1      -7.416  -4.121  -0.485  0.00  0.00    -0.041 Cl
ENDBRANCH  13  14
ENDBRANCH   1  13
TORSDOF 4
