REMARK  Name = ZINC36207500
REMARK  16 active torsions:
REMARK  status: ('A' for Active; 'I' for Inactive)
REMARK    1  A    between atoms: C_1  and  C_2
REMARK    2  A    between atoms: C_8  and  C_17
REMARK    3  A    between atoms: C_12  and  C_13
REMARK    4  A    between atoms: C_13  and  O_15
REMARK    5  A    between atoms: O_15  and  C_16
REMARK    6  A    between atoms: C_17  and  N_18
REMARK    7  A    between atoms: N_18  and  C_19
REMARK    8  A    between atoms: N_18  and  C_23
REMARK    9  A    between atoms: C_19  and  C_20
REMARK   10  A    between atoms: C_20  and  O_21
REMARK   11  A    between atoms: O_21  and  C_22
REMARK   12  A    between atoms: C_23  and  C_24
REMARK   13  A    between atoms: C_24  and  C_26
REMARK   14  A    between atoms: C_24  and  O_34
REMARK   15  A    between atoms: C_26  and  O_27
REMARK   16  A    between atoms: O_27  and  C_28
REMARK                            x       y       z     vdW  Elec       q    Type
REMARK                         _______ _______ _______ _____ _____    ______ ____
ROOT
ATOM      1  N   UNL     1       0.118  -4.663  -3.987  0.00  0.00    +0.388 N 
ATOM      2  H   UNL     1       0.807  -4.942  -3.303  0.00  0.00    -0.081 HD
ENDROOT
BRANCH   1   3
ATOM      3  C   UNL     1       0.212  -3.215  -4.214  0.00  0.00    -0.003 C 
BRANCH   3  11
ATOM      4  C   UNL     1      -0.276   0.768   1.093  0.00  0.00    +0.046 C 
ATOM      5  C   UNL     1      -0.309  -0.715   0.827  0.00  0.00    -0.015 A 
ATOM      6  C   UNL     1      -0.167  -1.196  -0.476  0.00  0.00    +0.076 A 
ATOM      7  C   UNL     1       0.025  -0.442  -1.736  0.00  0.00    +0.260 A 
ATOM      8  O   UNL     1       0.079   0.775  -1.733  0.00  0.00    -0.267 OA
ATOM      9  N   UNL     1       0.138  -1.137  -2.885  0.00  0.00    -0.312 N 
ATOM     10  H   UNL     1       0.264  -0.658  -3.719  0.00  0.00    +0.170 HD
ATOM     11  C   UNL     1       0.079  -2.491  -2.899  0.00  0.00    +0.094 A 
ATOM     12  N   UNL     1      -0.089  -3.186  -1.807  0.00  0.00    -0.229 NA
ATOM     13  C   UNL     1      -0.211  -2.602  -0.622  0.00  0.00    +0.116 A 
ATOM     14  S   UNL     1      -0.446  -3.177   1.040  0.00  0.00    -0.062 S 
ATOM     15  C   UNL     1      -0.472  -1.592   1.861  0.00  0.00    +0.102 A 
BRANCH  15  16
ATOM     16  C   UNL     1      -0.631  -1.304   3.288  0.00  0.00    +0.346 C 
ATOM     17  O   UNL     1      -0.628  -0.153   3.679  0.00  0.00    -0.244 OA
BRANCH  16  18
ATOM     18  O   UNL     1      -0.781  -2.316   4.167  0.00  0.00    -0.464 OA
ATOM     19  C   UNL     1      -0.931  -1.961   5.544  0.00  0.00    +0.280 C 
ENDBRANCH  16  18
ENDBRANCH  15  16
ENDBRANCH   3  11
ENDBRANCH   1   3
BRANCH   1  20
ATOM     20  C   UNL     1      -1.224  -4.996  -3.493  0.00  0.00    -0.050 C 
BRANCH  20  21
ATOM     21  C   UNL     1      -1.274  -6.476  -3.109  0.00  0.00    +0.141 C 
BRANCH  21  22
ATOM     22  O   UNL     1      -0.368  -6.719  -2.031  0.00  0.00    -0.385 OA
ATOM     23  C   UNL     1      -0.337  -8.079  -1.593  0.00  0.00    +0.193 C 
ENDBRANCH  21  22
ENDBRANCH  20  21
ENDBRANCH   1  20
BRANCH   1  24
ATOM     24  C   UNL     1       0.366  -5.374  -5.249  0.00  0.00    -0.043 C 
BRANCH  24  25
ATOM     25  C   UNL     1       1.813  -5.141  -5.689  0.00  0.00    +0.135 C 
BRANCH  25  26
ATOM     26  O   UNL     1       2.702  -5.636  -4.686  0.00  0.00    -0.390 OA
ATOM     27  H   UNL     1       2.660  -6.594  -4.560  0.00  0.00    +0.210 HD
ENDBRANCH  25  26
BRANCH  25  28
ATOM     28  C   UNL     1       2.070  -5.877  -7.006  0.00  0.00    +0.258 C 
BRANCH  28  29
ATOM     29  O   UNL     1       3.383  -5.566  -7.477  0.00  0.00    -0.489 OA
BRANCH  29  30
ATOM     30  C   UNL     1       3.772  -6.143  -8.644  0.00  0.00    +0.121 A 
ATOM     31  C   UNL     1       2.906  -6.985  -9.325  0.00  0.00    +0.045 A 
ATOM     32  C   UNL     1       3.304  -7.570 -10.512  0.00  0.00    +0.004 A 
ATOM     33  C   UNL     1       4.564  -7.316 -11.021  0.00  0.00    +0.000 A 
ATOM     34  C   UNL     1       5.429  -6.476 -10.344  0.00  0.00    +0.004 A 
ATOM     35  C   UNL     1       5.034  -5.885  -9.160  0.00  0.00    +0.045 A 
ENDBRANCH  29  30
ENDBRANCH  28  29
ENDBRANCH  25  28
ENDBRANCH  24  25
ENDBRANCH   1  24
TORSDOF 13
