REMARK  Name = ZINC67387690
REMARK  5 active torsions:
REMARK  status: ('A' for Active; 'I' for Inactive)
REMARK    1  A    between atoms: C_4  and  C_7
REMARK    2  A    between atoms: C_7  and  C_8
REMARK    3  A    between atoms: N_10  and  N_11
REMARK    4  A    between atoms: N_14  and  C_15
REMARK    5  A    between atoms: C_21  and  C_23
REMARK                            x       y       z     vdW  Elec       q    Type
REMARK                         _______ _______ _______ _____ _____    ______ ____
ROOT
ATOM      1  N   UNL     1       3.721  -4.016  -3.438  0.00  0.00    -0.218 N 
ATOM      2  C   UNL     1       4.322  -4.676  -4.447  0.00  0.00    +0.316 C 
ATOM      3  O   UNL     1       4.427  -5.886  -4.406  0.00  0.00    -0.251 OA
ATOM      4  N   UNL     1       4.809  -3.993  -5.503  0.00  0.00    -0.295 N 
ATOM      5  H   UNL     1       3.371  -4.508  -2.678  0.00  0.00    +0.174 HD
ATOM      6  H   UNL     1       4.726  -3.027  -5.536  0.00  0.00    +0.151 HD
ENDROOT
BRANCH   4   7
ATOM      7  C   UNL     1       5.463  -4.710  -6.600  0.00  0.00    +0.086 C 
ATOM      8  C   UNL     1       4.405  -5.200  -7.591  0.00  0.00    +0.023 C 
ATOM      9  C   UNL     1       3.637  -4.001  -8.151  0.00  0.00    +0.002 C 
ATOM     10  C   UNL     1       4.609  -3.061  -8.867  0.00  0.00    +0.001 C 
ATOM     11  C   UNL     1       5.667  -2.571  -7.875  0.00  0.00    +0.014 C 
ATOM     12  C   UNL     1       6.435  -3.769  -7.315  0.00  0.00    +0.113 C 
BRANCH  12  13
ATOM     13  C   UNL     1       7.493  -3.279  -6.324  0.00  0.00    +0.395 C 
ATOM     14  F   UNL     1       8.196  -4.375  -5.812  0.00  0.00    -0.170 F 
ATOM     15  F   UNL     1       8.382  -2.420  -6.978  0.00  0.00    -0.170 F 
ATOM     16  F   UNL     1       6.868  -2.595  -5.276  0.00  0.00    -0.170 F 
ENDBRANCH  12  13
ENDBRANCH   4   7
BRANCH   1  19
ATOM     17  C   UNL     1       2.999  -1.962  -2.475  0.00  0.00    +0.229 C 
ATOM     18  O   UNL     1       2.561  -2.576  -1.526  0.00  0.00    -0.274 OA
ATOM     19  N   UNL     1       3.601  -2.621  -3.485  0.00  0.00    -0.233 N 
ATOM     20  H   UNL     1       3.951  -2.130  -4.245  0.00  0.00    +0.173 HD
BRANCH  17  21
ATOM     21  C   UNL     1       2.870  -0.461  -2.526  0.00  0.00    +0.101 C 
BRANCH  21  25
ATOM     22  C   UNL     1      -0.019   1.526   0.010  0.00  0.00    +0.000 C 
ATOM     23  C   UNL     1       1.417   2.055  -0.000  0.00  0.00    +0.000 C 
ATOM     24  C   UNL     1       2.133   1.562  -1.259  0.00  0.00    +0.004 C 
ATOM     25  C   UNL     1       2.154   0.032  -1.268  0.00  0.00    -0.002 C 
ATOM     26  C   UNL     1       0.718  -0.497  -1.257  0.00  0.00    +0.004 C 
ATOM     27  C   UNL     1       0.002  -0.004   0.002  0.00  0.00    +0.000 C 
ENDBRANCH  21  25
ENDBRANCH  17  21
ENDBRANCH   1  19
TORSDOF 5
