REMARK  Name = ZINC16432823
REMARK  16 active torsions:
REMARK  status: ('A' for Active; 'I' for Inactive)
REMARK    1  A    between atoms: C_1  and  C_2
REMARK    2  A    between atoms: C_2  and  C_3
REMARK    3  A    between atoms: C_3  and  C_4
REMARK    4  A    between atoms: C_4  and  N_5
REMARK    5  A    between atoms: N_5  and  C_6
REMARK    6  A    between atoms: C_6  and  C_7
REMARK    7  A    between atoms: N_9  and  C_10
REMARK    8  A    between atoms: C_12  and  C_22
REMARK    9  A    between atoms: N_14  and  C_15
REMARK   10  A    between atoms: C_20  and  C_21
REMARK   11  A    between atoms: C_22  and  C_23
REMARK   12  A    between atoms: C_22  and  C_24
REMARK   13  A    between atoms: C_22  and  C_25
REMARK   14  A    between atoms: N_28  and  C_29
REMARK   15  A    between atoms: C_34  and  C_35
REMARK   16  A    between atoms: C_35  and  C_36
REMARK                            x       y       z     vdW  Elec       q    Type
REMARK                         _______ _______ _______ _____ _____    ______ ____
ROOT
ATOM      1  C   UNL     1       5.255   1.634   0.366  0.00  0.00    +0.236 C 
ATOM      2  O   UNL     1       6.138   2.460   0.461  0.00  0.00    -0.274 OA
ATOM      3  N   UNL     1       3.976   2.029   0.211  0.00  0.00    -0.269 N 
ATOM      4  H   UNL     1       3.270   1.369   0.135  0.00  0.00    +0.156 HD
ENDROOT
BRANCH   3   5
ATOM      5  C   UNL     1       3.667   3.388   0.160  0.00  0.00    +0.129 A 
ATOM      6  C   UNL     1       4.559   4.417   0.146  0.00  0.00    +0.069 A 
ATOM      7  C   UNL     1       3.836   5.611   0.091  0.00  0.00    +0.071 A 
ATOM      8  N   UNL     1       2.559   5.323   0.067  0.00  0.00    -0.169 NA
ATOM      9  N   UNL     1       2.420   3.930   0.114  0.00  0.00    -0.218 N 
BRANCH   9  10
ATOM     10  C   UNL     1       1.211   3.220   0.110  0.00  0.00    +0.070 A 
ATOM     11  C   UNL     1       1.026   2.166  -0.775  0.00  0.00    +0.028 A 
ATOM     12  C   UNL     1      -0.166   1.469  -0.777  0.00  0.00    +0.002 A 
ATOM     13  C   UNL     1      -1.177   1.823   0.097  0.00  0.00    +0.000 A 
ATOM     14  C   UNL     1      -0.995   2.869   0.983  0.00  0.00    +0.005 A 
ATOM     15  C   UNL     1       0.196   3.570   0.990  0.00  0.00    -0.025 A 
ATOM     16  C   UNL     1       0.392   4.713   1.952  0.00  0.00    +0.046 C 
ENDBRANCH   9  10
BRANCH   7  17
ATOM     17  C   UNL     1       4.426   6.997   0.059  0.00  0.00    +0.006 C 
ATOM     18  C   UNL     1       5.000   7.275  -1.332  0.00  0.00    +0.017 C 
ATOM     19  C   UNL     1       3.336   8.023   0.375  0.00  0.00    +0.017 C 
ATOM     20  C   UNL     1       5.541   7.101   1.101  0.00  0.00    +0.017 C 
ENDBRANCH   7  17
ENDBRANCH   3   5
BRANCH   1  21
ATOM     21  C   UNL     1       5.588   0.165   0.421  0.00  0.00    +0.205 C 
BRANCH  21  22
ATOM     22  N   UNL     1       7.034  -0.001   0.594  0.00  0.00    -0.277 N 
ATOM     23  C   UNL     1       7.562  -0.065   1.832  0.00  0.00    +0.307 C 
ATOM     24  O   UNL     1       6.838   0.015   2.806  0.00  0.00    -0.252 OA
ATOM     25  N   UNL     1       8.891  -0.218   1.991  0.00  0.00    -0.269 N 
ATOM     26  H   UNL     1       9.475  -0.221   1.216  0.00  0.00    +0.156 HD
BRANCH  25  27
ATOM     27  C   UNL     1       9.430  -0.374   3.273  0.00  0.00    +0.038 A 
ATOM     28  C   UNL     1       8.860   0.289   4.352  0.00  0.00    +0.023 A 
ATOM     29  C   UNL     1       9.391   0.130   5.617  0.00  0.00    +0.002 A 
ATOM     30  C   UNL     1      10.495  -0.682   5.808  0.00  0.00    +0.000 A 
ATOM     31  C   UNL     1      11.067  -1.339   4.735  0.00  0.00    +0.005 A 
ATOM     32  C   UNL     1      10.538  -1.188   3.468  0.00  0.00    -0.026 A 
BRANCH  32  33
ATOM     33  C   UNL     1      11.162  -1.905   2.299  0.00  0.00    +0.033 C 
ATOM     34  C   UNL     1      12.154  -0.972   1.600  0.00  0.00    +0.009 C 
ENDBRANCH  32  33
ENDBRANCH  25  27
BRANCH  22  35
ATOM     35  C   UNL     1       7.905  -0.098  -0.580  0.00  0.00    +0.110 C 
BRANCH  35  36
ATOM     36  C   UNL     1       8.373   1.301  -0.985  0.00  0.00    +0.019 C 
BRANCH  36  38
ATOM     37  C   UNL     1       9.751   2.599  -2.615  0.00  0.00    +0.004 C 
ATOM     38  C   UNL     1       9.283   1.200  -2.210  0.00  0.00    -0.002 C 
ENDBRANCH  36  38
ENDBRANCH  35  36
ENDBRANCH  22  35
ENDBRANCH  21  22
ENDBRANCH   1  21
TORSDOF 10
