REMARK  Name = ZINC24274485
REMARK  8 active torsions:
REMARK  status: ('A' for Active; 'I' for Inactive)
REMARK    1  A    between atoms: C_1  and  C_2
REMARK    2  A    between atoms: C_2  and  O_3
REMARK    3  A    between atoms: O_3  and  C_4
REMARK    4  A    between atoms: C_4  and  C_6
REMARK    5  A    between atoms: C_7  and  C_27
REMARK    6  A    between atoms: N_8  and  C_24
REMARK    7  A    between atoms: C_12  and  C_14
REMARK    8  A    between atoms: C_18  and  N_20
REMARK                            x       y       z     vdW  Elec       q    Type
REMARK                         _______ _______ _______ _____ _____    ______ ____
ROOT
ATOM      1  C   UNL     1       6.300   2.278   0.080  0.00  0.00    +0.078 C 
ATOM      2  C   UNL     1       7.101   2.419   1.158  0.00  0.00    +0.022 C 
ATOM      3  N   UNL     1       6.871   3.394   2.084  0.00  0.00    -0.283 N 
ATOM      4  C   UNL     1       5.862   4.271   2.005  0.00  0.00    +0.138 C 
ATOM      5  S   UNL     1       5.688   5.447   3.237  0.00  0.00    -0.018 S 
ATOM      6  N   UNL     1       4.978   4.256   0.989  0.00  0.00    -0.315 N 
ATOM      7  C   UNL     1       5.138   3.241  -0.066  0.00  0.00    +0.141 C 
ATOM      8  C   UNL     1       8.268   1.482   1.342  0.00  0.00    +0.061 C 
ATOM      9  H   UNL     1       4.152   4.980   0.934  0.00  0.00    +0.149 HD
ENDROOT
BRANCH   7  10
ATOM     10  C   UNL     1       3.869   2.431  -0.127  0.00  0.00    -0.020 A 
ATOM     11  C   UNL     1       3.261   2.009   1.041  0.00  0.00    +0.009 A 
ATOM     12  C   UNL     1       2.095   1.271   0.988  0.00  0.00    +0.053 A 
ATOM     13  C   UNL     1       1.539   0.944  -0.240  0.00  0.00    +0.209 A 
ATOM     14  C   UNL     1       2.150   1.368  -1.411  0.00  0.00    +0.173 A 
ATOM     15  C   UNL     1       3.313   2.110  -1.352  0.00  0.00    +0.042 A 
ATOM     16  O   UNL     1       0.394   0.214  -0.296  0.00  0.00    -0.285 OA
BRANCH  14  17
ATOM     17  N   UNL     1       1.555   1.026  -2.723  0.00  0.00    +0.060 N 
ATOM     18  O   UNL     1       2.092   1.398  -3.751  0.00  0.00    -0.126 OA
ATOM     19  O   UNL     1       0.529   0.371  -2.774  0.00  0.00    -0.126 OA
ENDBRANCH  14  17
ENDBRANCH   7  10
BRANCH   3  20
ATOM     20  C   UNL     1       7.781   3.489   3.229  0.00  0.00    +0.080 C 
ATOM     21  C   UNL     1       8.348   4.869   3.568  0.00  0.00    +0.025 C 
ATOM     22  C   UNL     1       9.250   3.803   2.940  0.00  0.00    +0.025 C 
ENDBRANCH   3  20
BRANCH   1  23
ATOM     23  C   UNL     1       6.536   1.267  -0.881  0.00  0.00    +0.339 C 
ATOM     24  O   UNL     1       7.524   0.562  -0.791  0.00  0.00    -0.245 OA
BRANCH  23  25
ATOM     25  O   UNL     1       5.667   1.085  -1.896  0.00  0.00    -0.462 OA
BRANCH  25  27
ATOM     26  C   UNL     1       4.878  -0.010  -3.901  0.00  0.00    +0.048 C 
ATOM     27  C   UNL     1       5.968   0.045  -2.830  0.00  0.00    +0.229 C 
ENDBRANCH  25  27
ENDBRANCH  23  25
ENDBRANCH   1  23
TORSDOF 6
