REMARK  Name = ZINC44084103
REMARK  8 active torsions:
REMARK  status: ('A' for Active; 'I' for Inactive)
REMARK    1  A    between atoms: C_1  and  C_2
REMARK    2  A    between atoms: C_2  and  C_4
REMARK    3  A    between atoms: C_2  and  N_13
REMARK    4  A    between atoms: N_16  and  C_17
REMARK    5  A    between atoms: C_21  and  N_23
REMARK    6  A    between atoms: C_24  and  C_26
REMARK    7  A    between atoms: C_26  and  C_27
REMARK    8  A    between atoms: C_26  and  C_28
REMARK                            x       y       z     vdW  Elec       q    Type
REMARK                         _______ _______ _______ _____ _____    ______ ____
ROOT
ATOM      1  N   UNL     1      -1.441  -0.398  -0.002  0.00  0.00    -0.290 N 
ATOM      2  C   UNL     1      -2.105  -0.531   1.163  0.00  0.00    +0.304 C 
ATOM      3  O   UNL     1      -1.618  -0.105   2.193  0.00  0.00    -0.252 OA
ATOM      4  N   UNL     1      -3.308  -1.138   1.188  0.00  0.00    -0.269 N 
ATOM      5  H   UNL     1      -1.829  -0.738  -0.823  0.00  0.00    +0.151 HD
ATOM      6  H   UNL     1      -3.731  -1.411   0.358  0.00  0.00    +0.156 HD
ENDROOT
BRANCH   4   7
ATOM      7  C   UNL     1      -3.949  -1.373   2.409  0.00  0.00    +0.037 A 
ATOM      8  C   UNL     1      -5.335  -1.330   2.487  0.00  0.00    +0.023 A 
ATOM      9  C   UNL     1      -5.969  -1.562   3.693  0.00  0.00    +0.004 A 
ATOM     10  C   UNL     1      -5.226  -1.837   4.825  0.00  0.00    +0.023 A 
ATOM     11  C   UNL     1      -3.839  -1.881   4.754  0.00  0.00    +0.035 A 
ATOM     12  C   UNL     1      -3.200  -1.655   3.543  0.00  0.00    +0.046 A 
BRANCH  11  13
ATOM     13  N   UNL     1      -3.087  -2.159   5.901  0.00  0.00    -0.285 N 
ATOM     14  C   UNL     1      -3.553  -3.031   6.816  0.00  0.00    +0.220 C 
ATOM     15  O   UNL     1      -4.660  -3.511   6.689  0.00  0.00    -0.275 OA
ATOM     16  H   UNL     1      -2.231  -1.724   6.037  0.00  0.00    +0.155 HD
BRANCH  14  17
ATOM     17  C   UNL     1      -2.699  -3.411   7.999  0.00  0.00    +0.069 C 
ATOM     18  C   UNL     1      -3.457  -4.408   8.877  0.00  0.00    +0.017 C 
ATOM     19  C   UNL     1      -1.400  -4.051   7.505  0.00  0.00    +0.017 C 
ENDBRANCH  14  17
ENDBRANCH  11  13
ENDBRANCH   4   7
BRANCH   1  21
ATOM     20  C   UNL     1      -0.326   1.775  -0.134  0.00  0.00    +0.036 C 
ATOM     21  C   UNL     1      -0.133   0.261  -0.028  0.00  0.00    +0.137 C 
BRANCH  21  22
ATOM     22  C   UNL     1       0.653  -0.229  -1.217  0.00  0.00    +0.126 A 
ATOM     23  C   UNL     1       1.964  -0.506  -1.209  0.00  0.00    +0.055 A 
ATOM     24  C   UNL     1       2.297  -0.947  -2.569  0.00  0.00    +0.020 A 
ATOM     25  C   UNL     1       3.469  -1.367  -3.197  0.00  0.00    +0.011 A 
ATOM     26  C   UNL     1       3.440  -1.720  -4.518  0.00  0.00    +0.001 A 
ATOM     27  C   UNL     1       2.253  -1.661  -5.235  0.00  0.00    +0.004 A 
ATOM     28  C   UNL     1       1.085  -1.249  -4.630  0.00  0.00    +0.047 A 
ATOM     29  C   UNL     1       1.093  -0.886  -3.289  0.00  0.00    +0.135 A 
ATOM     30  O   UNL     1       0.139  -0.457  -2.438  0.00  0.00    -0.458 OA
ENDBRANCH  21  22
ENDBRANCH   1  21
TORSDOF 5
