REMARK  Name = ZINC67167756
REMARK  4 active torsions:
REMARK  status: ('A' for Active; 'I' for Inactive)
REMARK    1  A    between atoms: C_3  and  N_25
REMARK    2  A    between atoms: C_4  and  N_8
REMARK    3  A    between atoms: C_9  and  C_11
REMARK    4  A    between atoms: N_19  and  C_22
REMARK                            x       y       z     vdW  Elec       q    Type
REMARK                         _______ _______ _______ _____ _____    ______ ____
ROOT
ATOM      1  N   UNL     1       3.626  -0.661  -0.038  0.00  0.00    -0.278 N 
ATOM      2  C   UNL     1       3.682  -1.949   0.354  0.00  0.00    +0.248 C 
ATOM      3  O   UNL     1       2.660  -2.544   0.635  0.00  0.00    -0.270 OA
ATOM      4  H   UNL     1       4.432  -0.207  -0.329  0.00  0.00    +0.155 HD
ENDROOT
BRANCH   2   5
ATOM      5  C   UNL     1       4.988  -2.639   0.443  0.00  0.00    +0.038 A 
ATOM      6  C   UNL     1       6.160  -1.953   0.126  0.00  0.00    +0.014 A 
ATOM      7  C   UNL     1       7.386  -2.591   0.206  0.00  0.00    +0.014 A 
ATOM      8  C   UNL     1       7.450  -3.918   0.603  0.00  0.00    +0.049 A 
ATOM      9  C   UNL     1       6.269  -4.617   0.924  0.00  0.00    +0.050 A 
ATOM     10  C   UNL     1       5.044  -3.976   0.849  0.00  0.00    +0.027 A 
ATOM     11  C   UNL     1       6.695  -5.982   1.299  0.00  0.00    +0.254 C 
ATOM     12  O   UNL     1       5.959  -6.885   1.642  0.00  0.00    -0.270 OA
ATOM     13  N   UNL     1       8.034  -6.056   1.198  0.00  0.00    -0.231 N 
ATOM     14  C   UNL     1       8.555  -4.884   0.794  0.00  0.00    +0.254 C 
ATOM     15  O   UNL     1       9.735  -4.656   0.615  0.00  0.00    -0.270 OA
BRANCH  13  16
ATOM     16  C   UNL     1       8.822  -7.257   1.489  0.00  0.00    +0.085 C 
ATOM     17  C   UNL     1      10.345  -7.113   1.518  0.00  0.00    +0.025 C 
ATOM     18  C   UNL     1       9.667  -7.840   0.355  0.00  0.00    +0.025 C 
ENDBRANCH  13  16
ENDBRANCH   2   5
BRANCH   1  22
ATOM     19  C   UNL     1      -0.018   1.375   0.004  0.00  0.00    +0.005 A 
ATOM     20  C   UNL     1       0.431   0.797  -1.168  0.00  0.00    +0.025 A 
ATOM     21  C   UNL     1       1.641   0.119  -1.188  0.00  0.00    +0.054 A 
ATOM     22  C   UNL     1       2.402   0.023  -0.024  0.00  0.00    +0.091 A 
ATOM     23  C   UNL     1       1.944   0.608   1.149  0.00  0.00    +0.146 A 
ATOM     24  C   UNL     1       0.735   1.282   1.160  0.00  0.00    +0.040 A 
ATOM     25  F   UNL     1       2.678   0.518   2.280  0.00  0.00    -0.203 F 
BRANCH  21  26
ATOM     26  N   UNL     1       2.096  -0.468  -2.374  0.00  0.00    -0.328 N 
ATOM     27  C   UNL     1       1.806  -1.839  -2.817  0.00  0.00    +0.105 C 
ATOM     28  C   UNL     1       2.536  -2.050  -4.161  0.00  0.00    +0.020 C 
ATOM     29  C   UNL     1       3.656  -0.978  -4.120  0.00  0.00    +0.020 C 
ATOM     30  C   UNL     1       2.941   0.188  -3.388  0.00  0.00    +0.105 C 
ENDBRANCH  21  26
ENDBRANCH   1  22
TORSDOF 4
