REMARK  Name = ZINC56953484
REMARK  4 active torsions:
REMARK  status: ('A' for Active; 'I' for Inactive)
REMARK    1  A    between atoms: C_1  and  C_2
REMARK    2  A    between atoms: N_14  and  C_15
REMARK    3  A    between atoms: C_15  and  C_16
REMARK    4  A    between atoms: C_21  and  N_22
REMARK                            x       y       z     vdW  Elec       q    Type
REMARK                         _______ _______ _______ _____ _____    ______ ____
ROOT
ATOM      1  C   UNL     1      -0.026   1.527   0.018  0.00  0.00    +0.033 C 
ATOM      2  C   UNL     1      -0.004  -0.003   0.007  0.00  0.00    +0.105 C 
ATOM      3  C   UNL     1      -1.425  -0.542   0.168  0.00  0.00    -0.017 A 
ATOM      4  C   UNL     1      -2.509  -0.069  -0.571  0.00  0.00    +0.013 A 
ATOM      5  C   UNL     1      -3.739  -0.597  -0.379  0.00  0.00    +0.046 A 
ATOM      6  S   UNL     1      -3.423  -1.818   0.886  0.00  0.00    -0.101 S 
ATOM      7  C   UNL     1      -1.682  -1.532   1.065  0.00  0.00    -0.004 A 
ATOM      8  C   UNL     1      -0.719  -2.210   1.985  0.00  0.00    +0.062 C 
ATOM      9  C   UNL     1       0.711  -1.918   1.504  0.00  0.00    +0.115 C 
ATOM     10  N   UNL     1       0.795  -0.497   1.137  0.00  0.00    -0.278 N 
ATOM     11  C   UNL     1       1.593   0.341   1.828  0.00  0.00    +0.303 C 
ATOM     12  O   UNL     1       1.591   1.530   1.574  0.00  0.00    -0.253 OA
ATOM     13  N   UNL     1       2.393  -0.139   2.800  0.00  0.00    -0.295 N 
ATOM     14  H   UNL     1       2.451  -1.095   2.953  0.00  0.00    +0.151 HD
ENDROOT
BRANCH  13  15
ATOM     15  C   UNL     1       3.177   0.783   3.626  0.00  0.00    +0.143 C 
BRANCH  15  16
ATOM     16  C   UNL     1       3.981  -0.001   4.630  0.00  0.00    -0.009 A 
ATOM     17  C   UNL     1       3.536  -0.120   5.932  0.00  0.00    +0.007 A 
ATOM     18  C   UNL     1       4.273  -0.839   6.854  0.00  0.00    +0.000 A 
ATOM     19  C   UNL     1       5.459  -1.442   6.476  0.00  0.00    +0.002 A 
ATOM     20  C   UNL     1       5.910  -1.328   5.176  0.00  0.00    +0.023 A 
ATOM     21  C   UNL     1       5.169  -0.610   4.246  0.00  0.00    +0.034 A 
BRANCH  21  22
ATOM     22  N   UNL     1       5.620  -0.497   2.929  0.00  0.00    -0.330 N 
ATOM     23  C   UNL     1       6.503   0.559   2.413  0.00  0.00    +0.105 C 
ATOM     24  C   UNL     1       6.708   0.291   0.907  0.00  0.00    +0.020 C 
ATOM     25  C   UNL     1       5.474  -0.575   0.538  0.00  0.00    +0.020 C 
ATOM     26  C   UNL     1       5.293  -1.420   1.826  0.00  0.00    +0.105 C 
ENDBRANCH  21  22
ENDBRANCH  15  16
ENDBRANCH  13  15
TORSDOF 3
