REMARK  Name = ZINC00644710
REMARK  11 active torsions:
REMARK  status: ('A' for Active; 'I' for Inactive)
REMARK    1  A    between atoms: C_1  and  C_2
REMARK    2  A    between atoms: C_2  and  C_3
REMARK    3  A    between atoms: C_2  and  C_4
REMARK    4  A    between atoms: C_2  and  N_5
REMARK    5  A    between atoms: N_5  and  C_6
REMARK    6  A    between atoms: C_6  and  C_7
REMARK    7  A    between atoms: C_13  and  C_15
REMARK    8  A    between atoms: C_15  and  C_16
REMARK    9  A    between atoms: C_16  and  C_17
REMARK   10  A    between atoms: C_23  and  C_24
REMARK   11  A    between atoms: C_23  and  O_30
REMARK                            x       y       z     vdW  Elec       q    Type
REMARK                         _______ _______ _______ _____ _____    ______ ____
ROOT
ATOM      1  C   UNL     1      -1.107  -1.337   2.271  0.00  0.00    +0.096 C 
ENDROOT
BRANCH   1   3
ATOM      2  N   UNL     1       0.389   0.613   1.990  0.00  0.00    -0.292 N 
ATOM      3  C   UNL     1       0.237  -0.666   2.389  0.00  0.00    +0.216 C 
ATOM      4  O   UNL     1       1.182  -1.276   2.842  0.00  0.00    -0.276 OA
BRANCH   2   6
ATOM      5  C   UNL     1      -0.300   2.697   0.912  0.00  0.00    +0.031 C 
ATOM      6  C   UNL     1      -0.772   1.379   1.529  0.00  0.00    +0.029 C 
ATOM      7  C   UNL     1      -1.694   1.671   2.714  0.00  0.00    +0.031 C 
ATOM      8  C   UNL     1      -1.533   0.568   0.478  0.00  0.00    +0.031 C 
ENDBRANCH   2   6
BRANCH   2   9
ATOM      9  C   UNL     1       1.714   1.236   2.018  0.00  0.00    +0.143 C 
BRANCH   9  10
ATOM     10  C   UNL     1       1.985   1.777   3.398  0.00  0.00    -0.030 A 
ATOM     11  C   UNL     1       1.652   3.083   3.707  0.00  0.00    +0.005 A 
ATOM     12  C   UNL     1       1.897   3.578   4.974  0.00  0.00    +0.000 A 
ATOM     13  C   UNL     1       2.484   2.770   5.930  0.00  0.00    +0.000 A 
ATOM     14  C   UNL     1       2.822   1.466   5.620  0.00  0.00    +0.000 A 
ATOM     15  C   UNL     1       2.573   0.970   4.354  0.00  0.00    +0.005 A 
ENDBRANCH   9  10
ENDBRANCH   2   9
ENDBRANCH   1   3
BRANCH   1  16
ATOM     16  C   UNL     1      -1.072  -2.680   3.005  0.00  0.00    +0.016 C 
BRANCH  16  17
ATOM     17  C   UNL     1      -2.437  -3.362   2.885  0.00  0.00    +0.026 C 
ATOM     18  C   UNL     1      -3.489  -2.527   3.618  0.00  0.00    +0.007 C 
ATOM     19  C   UNL     1      -4.854  -3.209   3.499  0.00  0.00    +0.000 C 
ATOM     20  C   UNL     1      -4.783  -4.604   4.124  0.00  0.00    +0.003 C 
ATOM     21  C   UNL     1      -3.731  -5.438   3.391  0.00  0.00    +0.040 C 
ATOM     22  C   UNL     1      -2.366  -4.756   3.510  0.00  0.00    +0.094 C 
BRANCH  22  23
ATOM     23  C   UNL     1      -1.329  -5.578   2.788  0.00  0.00    -0.016 A 
ATOM     24  C   UNL     1      -1.075  -5.348   1.449  0.00  0.00    +0.006 A 
ATOM     25  C   UNL     1      -0.120  -6.099   0.788  0.00  0.00    +0.000 A 
ATOM     26  C   UNL     1       0.573  -7.086   1.464  0.00  0.00    +0.000 A 
ATOM     27  C   UNL     1       0.314  -7.319   2.802  0.00  0.00    +0.000 A 
ATOM     28  C   UNL     1      -0.637  -6.565   3.464  0.00  0.00    +0.006 A 
ENDBRANCH  22  23
BRANCH  22  29
ATOM     29  O   UNL     1      -2.009  -4.644   4.889  0.00  0.00    -0.384 OA
ATOM     30  H   UNL     1      -1.946  -5.491   5.350  0.00  0.00    +0.211 HD
ENDBRANCH  22  29
ENDBRANCH  16  17
ENDBRANCH   1  16
TORSDOF 8
