REMARK  Name = ZINC39947197
REMARK  8 active torsions:
REMARK  status: ('A' for Active; 'I' for Inactive)
REMARK    1  A    between atoms: C_1  and  C_2
REMARK    2  A    between atoms: C_2  and  C_4
REMARK    3  A    between atoms: C_2  and  N_13
REMARK    4  A    between atoms: C_14  and  C_16
REMARK    5  A    between atoms: C_16  and  S_17
REMARK    6  A    between atoms: S_17  and  C_18
REMARK    7  A    between atoms: C_22  and  C_27
REMARK    8  A    between atoms: N_23  and  C_24
REMARK                            x       y       z     vdW  Elec       q    Type
REMARK                         _______ _______ _______ _____ _____    ______ ____
ROOT
ATOM      1  C   UNL     1       0.535  -1.720  -6.303  0.00  0.00    +0.237 C 
ATOM      2  N   UNL     1       1.161  -2.960  -5.814  0.00  0.00    -0.237 N 
ATOM      3  N   UNL     1       2.534  -2.832  -6.053  0.00  0.00    -0.169 NA
ATOM      4  C   UNL     1       2.814  -1.688  -6.618  0.00  0.00    +0.147 C 
ATOM      5  N   UNL     1       1.658  -0.922  -6.820  0.00  0.00    -0.282 N 
ATOM      6  H   UNL     1       0.711  -3.716  -5.405  0.00  0.00    +0.171 HD
ENDROOT
BRANCH   4   7
ATOM      7  C   UNL     1       4.107  -1.277  -6.976  0.00  0.00    +0.022 C 
ATOM      8  C   UNL     1       5.282  -2.024  -6.896  0.00  0.00    +0.006 A 
ATOM      9  C   UNL     1       5.546  -3.341  -6.461  0.00  0.00    +0.010 A 
ATOM     10  C   UNL     1       6.817  -3.818  -6.494  0.00  0.00    +0.001 A 
ATOM     11  C   UNL     1       7.880  -3.037  -6.950  0.00  0.00    +0.002 A 
ATOM     12  C   UNL     1       7.699  -1.764  -7.382  0.00  0.00    +0.026 A 
ATOM     13  C   UNL     1       6.399  -1.196  -7.377  0.00  0.00    +0.043 A 
ATOM     14  N   UNL     1       5.967  -0.004  -7.740  0.00  0.00    -0.380 N 
ATOM     15  C   UNL     1       4.517   0.067  -7.538  0.00  0.00    +0.152 C 
ATOM     16  H   UNL     1       6.521   0.712  -8.089  0.00  0.00    +0.160 HD
ENDBRANCH   4   7
BRANCH   5  17
ATOM     17  C   UNL     1       1.581   0.409  -7.426  0.00  0.00    +0.078 C 
ATOM     18  C   UNL     1       0.212   1.090  -7.463  0.00  0.00    +0.024 C 
ATOM     19  C   UNL     1       0.827   0.540  -8.751  0.00  0.00    +0.024 C 
ENDBRANCH   5  17
BRANCH   1  20
ATOM     20  S   UNL     1      -0.290  -0.847  -4.944  0.00  0.00    -0.109 S 
BRANCH  20  21
ATOM     21  C   UNL     1       1.027  -0.591  -3.723  0.00  0.00    +0.168 C 
BRANCH  21  23
ATOM     22  N   UNL     1       1.270   0.436  -1.486  0.00  0.00    -0.308 N 
ATOM     23  C   UNL     1       0.468   0.135  -2.526  0.00  0.00    +0.223 C 
ATOM     24  O   UNL     1      -0.703   0.448  -2.499  0.00  0.00    -0.275 OA
ATOM     25  H   UNL     1       2.207   0.186  -1.507  0.00  0.00    +0.149 HD
BRANCH  22  27
ATOM     26  C   UNL     1       0.748   2.649  -0.585  0.00  0.00    +0.033 C 
ATOM     27  C   UNL     1       0.727   1.141  -0.322  0.00  0.00    +0.100 C 
BRANCH  27  28
ATOM     28  C   UNL     1       1.567   0.831   0.890  0.00  0.00    -0.024 A 
ATOM     29  C   UNL     1       2.943   0.764   0.777  0.00  0.00    +0.009 A 
ATOM     30  C   UNL     1       3.718   0.481   1.887  0.00  0.00    +0.050 A 
ATOM     31  C   UNL     1       3.116   0.262   3.115  0.00  0.00    +0.166 A 
ATOM     32  C   UNL     1       1.729   0.330   3.229  0.00  0.00    +0.167 A 
ATOM     33  C   UNL     1       0.960   0.620   2.114  0.00  0.00    +0.055 A 
ATOM     34  O   UNL     1       1.385   0.079   4.526  0.00  0.00    -0.453 OA
ATOM     35  C   UNL     1       2.541  -0.543   5.117  0.00  0.00    +0.466 C 
ATOM     36  O   UNL     1       3.640  -0.030   4.341  0.00  0.00    -0.453 OA
ENDBRANCH  27  28
ENDBRANCH  22  27
ENDBRANCH  21  23
ENDBRANCH  20  21
ENDBRANCH   1  20
TORSDOF 7
