REMARK  Name = ZINC20551877
REMARK  5 active torsions:
REMARK  status: ('A' for Active; 'I' for Inactive)
REMARK    1  A    between atoms: C_1  and  C_2
REMARK    2  A    between atoms: N_7  and  S_8
REMARK    3  A    between atoms: S_8  and  C_11
REMARK    4  A    between atoms: C_14  and  C_17
REMARK    5  A    between atoms: C_17  and  N_19
REMARK                            x       y       z     vdW  Elec       q    Type
REMARK                         _______ _______ _______ _____ _____    ______ ____
ROOT
ATOM      1  S   UNL     1       1.222  -2.445  -0.022  0.00  0.00    +0.101 S 
ATOM      2  O   UNL     1       2.476  -2.843   0.515  0.00  0.00    -0.146 OA
ATOM      3  O   UNL     1      -0.015  -2.864   0.539  0.00  0.00    -0.146 OA
ENDROOT
BRANCH   1  10
ATOM      4  C   UNL     1       3.756  -2.913  -5.794  0.00  0.00    +0.064 C 
ATOM      5  C   UNL     1       3.564  -2.571  -4.339  0.00  0.00    +0.022 A 
ATOM      6  C   UNL     1       4.515  -1.890  -3.656  0.00  0.00    +0.069 A 
ATOM      7  S   UNL     1       3.755  -1.785  -2.042  0.00  0.00    -0.057 S 
ATOM      8  C   UNL     1       2.289  -2.634  -2.427  0.00  0.00    +0.192 A 
ATOM      9  N   UNL     1       2.468  -2.933  -3.699  0.00  0.00    -0.336 N 
ATOM     10  N   UNL     1       1.212  -2.926  -1.606  0.00  0.00    -0.103 NA
ATOM     11  H   UNL     1       1.683  -3.495  -4.228  0.00  0.00    +0.168 HD
ENDBRANCH   1  10
BRANCH   1  12
ATOM     12  C   UNL     1       1.208  -0.683  -0.013  0.00  0.00    +0.113 A 
ATOM     13  C   UNL     1       0.002  -0.004   0.002  0.00  0.00    +0.030 A 
ATOM     14  C   UNL     1      -0.017   1.375   0.010  0.00  0.00    +0.012 A 
ATOM     15  C   UNL     1       1.185   2.087   0.002  0.00  0.00    +0.003 A 
ATOM     16  C   UNL     1       2.398   1.395  -0.014  0.00  0.00    +0.012 A 
ATOM     17  C   UNL     1       2.402   0.016  -0.021  0.00  0.00    +0.030 A 
BRANCH  15  18
ATOM     18  C   UNL     1       1.173   3.563   0.009  0.00  0.00    +0.077 C 
ATOM     19  S   UNL     1      -0.041   4.404   0.876  0.00  0.00    -0.035 S 
BRANCH  18  20
ATOM     20  N   UNL     1       2.117   4.248  -0.665  0.00  0.00    -0.352 N 
ATOM     21  H   UNL     1       2.108   5.348  -0.660  0.00  0.00    +0.143 HD
ATOM     22  H   UNL     1       2.897   3.707  -1.222  0.00  0.00    +0.143 HD
ENDBRANCH  18  20
ENDBRANCH  15  18
ENDBRANCH   1  12
TORSDOF 4
