REMARK  Name = ZINC62498188
REMARK  8 active torsions:
REMARK  status: ('A' for Active; 'I' for Inactive)
REMARK    1  A    between atoms: C_1  and  C_2
REMARK    2  A    between atoms: C_4  and  C_24
REMARK    3  A    between atoms: C_6  and  C_8
REMARK    4  A    between atoms: C_8  and  C_9
REMARK    5  A    between atoms: N_12  and  C_21
REMARK    6  A    between atoms: C_15  and  O_20
REMARK    7  A    between atoms: C_21  and  C_22
REMARK    8  A    between atoms: C_22  and  O_23
REMARK                            x       y       z     vdW  Elec       q    Type
REMARK                         _______ _______ _______ _____ _____    ______ ____
ROOT
ATOM      1  C   UNL     1       1.502  -3.083   2.922  0.00  0.00    +0.195 C 
ATOM      2  C   UNL     1       1.524  -3.958   4.183  0.00  0.00    +0.150 C 
ATOM      3  N   UNL     1       2.931  -4.119   4.588  0.00  0.00    -0.321 N 
ATOM      4  C   UNL     1       3.761  -2.989   4.527  0.00  0.00    +0.076 A 
ATOM      5  C   UNL     1       4.996  -3.001   5.156  0.00  0.00    +0.072 A 
ATOM      6  C   UNL     1       5.814  -1.883   5.090  0.00  0.00    +0.119 A 
ATOM      7  C   UNL     1       5.396  -0.758   4.395  0.00  0.00    +0.049 A 
ATOM      8  C   UNL     1       4.163  -0.746   3.769  0.00  0.00    +0.051 A 
ATOM      9  C   UNL     1       3.340  -1.859   3.832  0.00  0.00    +0.142 A 
ATOM     10  O   UNL     1       2.127  -1.831   3.215  0.00  0.00    -0.485 OA
ENDROOT
BRANCH   6  11
ATOM     11  O   UNL     1       7.026  -1.890   5.707  0.00  0.00    -0.507 OA
ATOM     12  H   UNL     1       7.750  -2.209   5.149  0.00  0.00    +0.292 HD
ENDBRANCH   6  11
BRANCH   1  13
ATOM     13  C   UNL     1       0.054  -2.844   2.489  0.00  0.00    +0.081 C 
BRANCH  13  19
ATOM     14  C   UNL     1      -0.018   1.503   0.010  0.00  0.00    +0.044 C 
ATOM     15  C   UNL     1       0.002  -0.004   0.002  0.00  0.00    -0.050 A 
ATOM     16  C   UNL     1       0.006  -0.689  -1.199  0.00  0.00    +0.006 A 
ATOM     17  C   UNL     1       0.025  -2.071  -1.206  0.00  0.00    -0.050 A 
ATOM     18  C   UNL     1       0.040  -2.768  -0.013  0.00  0.00    +0.007 A 
ATOM     19  C   UNL     1       0.037  -2.084   1.188  0.00  0.00    -0.043 A 
ATOM     20  C   UNL     1       0.023  -0.702   1.195  0.00  0.00    +0.007 A 
ATOM     21  C   UNL     1       0.027  -2.817  -2.516  0.00  0.00    +0.044 C 
ENDBRANCH  13  19
ENDBRANCH   1  13
BRANCH   3  22
ATOM     22  C   UNL     1       3.446  -5.414   5.041  0.00  0.00    +0.133 C 
BRANCH  22  23
ATOM     23  C   UNL     1       3.978  -6.199   3.840  0.00  0.00    +0.174 C 
BRANCH  23  24
ATOM     24  O   UNL     1       5.105  -5.516   3.287  0.00  0.00    -0.393 OA
ATOM     25  H   UNL     1       5.495  -5.958   2.520  0.00  0.00    +0.209 HD
ENDBRANCH  23  24
ENDBRANCH  22  23
ENDBRANCH   3  22
TORSDOF 6
