REMARK  Name = ZINC13142499
REMARK  9 active torsions:
REMARK  status: ('A' for Active; 'I' for Inactive)
REMARK    1  A    between atoms: C_1  and  C_2
REMARK    2  A    between atoms: C_2  and  C_3
REMARK    3  A    between atoms: C_3  and  C_4
REMARK    4  A    between atoms: C_4  and  O_5
REMARK    5  A    between atoms: O_5  and  C_6
REMARK    6  A    between atoms: C_6  and  C_8
REMARK    7  A    between atoms: C_9  and  N_29
REMARK    8  A    between atoms: C_25  and  C_27
REMARK    9  A    between atoms: C_25  and  C_28
REMARK                            x       y       z     vdW  Elec       q    Type
REMARK                         _______ _______ _______ _____ _____    ______ ____
ROOT
ATOM      1  C   UNL     1       2.311  -4.353  -3.691  0.00  0.00    +0.119 A 
ATOM      2  C   UNL     1       2.377  -5.677  -4.076  0.00  0.00    +0.055 A 
ATOM      3  C   UNL     1       3.023  -5.997  -5.338  0.00  0.00    +0.031 A 
ATOM      4  C   UNL     1       3.211  -7.272  -5.937  0.00  0.00    -0.025 A 
ATOM      5  C   UNL     1       3.840  -7.363  -7.135  0.00  0.00    +0.020 A 
ATOM      6  C   UNL     1       4.309  -6.204  -7.769  0.00  0.00    +0.105 A 
ATOM      7  N   UNL     1       4.138  -5.016  -7.211  0.00  0.00    -0.337 N 
ATOM      8  C   UNL     1       3.527  -4.888  -6.053  0.00  0.00    +0.089 A 
ATOM      9  S   UNL     1       3.116  -3.496  -5.030  0.00  0.00    -0.062 S 
ATOM     10  N   UNL     1       4.957  -6.302  -8.991  0.00  0.00    -0.312 N 
ATOM     11  C   UNL     1       4.207  -6.217 -10.255  0.00  0.00    +0.134 C 
ATOM     12  C   UNL     1       4.894  -5.184 -11.156  0.00  0.00    +0.178 C 
ATOM     13  O   UNL     1       6.284  -5.503 -11.262  0.00  0.00    -0.377 OA
ATOM     14  C   UNL     1       6.993  -5.449 -10.022  0.00  0.00    +0.178 C 
ATOM     15  C   UNL     1       6.415  -6.489  -9.063  0.00  0.00    +0.134 C 
ATOM     16  C   UNL     1       4.047  -8.691  -7.817  0.00  0.00    +0.199 C 
ATOM     17  O   UNL     1       3.857  -9.758  -6.888  0.00  0.00    -0.369 OA
ATOM     18  C   UNL     1       2.619  -9.671  -6.174  0.00  0.00    +0.068 C 
ATOM     19  C   UNL     1       2.702  -8.487  -5.208  0.00  0.00    +0.070 C 
ATOM     20  C   UNL     1       2.385 -10.962  -5.388  0.00  0.00    +0.041 C 
ATOM     21  C   UNL     1       1.469  -9.452  -7.160  0.00  0.00    +0.041 C 
ATOM     22  H   UNL     1       4.470  -4.225  -7.665  0.00  0.00    +0.168 HD
ENDROOT
BRANCH   2  23
ATOM     23  N   UNL     1       1.841  -6.677  -3.278  0.00  0.00    -0.356 N 
ATOM     24  H   UNL     1       1.107  -6.476  -2.676  0.00  0.00    +0.142 HD
ATOM     25  H   UNL     1       2.200  -7.577  -3.321  0.00  0.00    +0.142 HD
ENDBRANCH   2  23
BRANCH   1  26
ATOM     26  C   UNL     1       1.738  -3.808  -2.521  0.00  0.00    +0.348 C 
ATOM     27  O   UNL     1       1.222  -4.542  -1.698  0.00  0.00    -0.244 OA
BRANCH  26  28
ATOM     28  O   UNL     1       1.763  -2.474  -2.315  0.00  0.00    -0.461 OA
BRANCH  28  29
ATOM     29  C   UNL     1       1.165  -1.992  -1.110  0.00  0.00    +0.232 C 
BRANCH  29  30
ATOM     30  C   UNL     1       1.288  -0.469  -1.053  0.00  0.00    +0.041 C 
BRANCH  30  32
ATOM     31  C   UNL     1       0.772   1.571   0.294  0.00  0.00    +0.004 C 
ATOM     32  C   UNL     1       0.648   0.047   0.237  0.00  0.00    -0.000 C 
ENDBRANCH  30  32
ENDBRANCH  29  30
ENDBRANCH  28  29
ENDBRANCH  26  28
ENDBRANCH   1  26
TORSDOF 6
