REMARK  Name = ZINC64746346
REMARK  7 active torsions:
REMARK  status: ('A' for Active; 'I' for Inactive)
REMARK    1  A    between atoms: C_1  and  C_2
REMARK    2  A    between atoms: C_2  and  C_4
REMARK    3  A    between atoms: C_2  and  N_10
REMARK    4  A    between atoms: C_4  and  C_5
REMARK    5  A    between atoms: C_11  and  C_13
REMARK    6  A    between atoms: C_15  and  C_18
REMARK    7  A    between atoms: C_21  and  N_24
REMARK                            x       y       z     vdW  Elec       q    Type
REMARK                         _______ _______ _______ _____ _____    ______ ____
ROOT
ATOM      1  C   UNL     1       2.772  -1.081   2.379  0.00  0.00    +0.314 A 
ATOM      2  N   UNL     1       4.068  -1.223   2.493  0.00  0.00    -0.183 NA
ATOM      3  C   UNL     1       4.372  -1.702   3.709  0.00  0.00    +0.203 A 
ATOM      4  N   UNL     1       3.261  -1.871   4.387  0.00  0.00    -0.055 NA
ATOM      5  O   UNL     1       2.201  -1.465   3.534  0.00  0.00    -0.328 OA
ENDROOT
BRANCH   3   6
ATOM      6  C   UNL     1       5.739  -1.992   4.205  0.00  0.00    +0.023 A 
ATOM      7  C   UNL     1       6.843  -1.764   3.385  0.00  0.00    +0.013 A 
ATOM      8  C   UNL     1       8.113  -2.035   3.848  0.00  0.00    +0.024 A 
ATOM      9  C   UNL     1       8.293  -2.536   5.132  0.00  0.00    +0.030 A 
ATOM     10  C   UNL     1       7.193  -2.765   5.952  0.00  0.00    +0.024 A 
ATOM     11  C   UNL     1       5.923  -2.489   5.495  0.00  0.00    +0.013 A 
BRANCH   9  12
ATOM     12  N   UNL     1       9.578  -2.809   5.599  0.00  0.00    -0.330 N 
ATOM     13  C   UNL     1       9.797  -3.223   6.992  0.00  0.00    +0.105 C 
ATOM     14  C   UNL     1      10.592  -4.533   6.998  0.00  0.00    +0.019 C 
ATOM     15  C   UNL     1      11.877  -4.348   6.188  0.00  0.00    +0.003 C 
ATOM     16  C   UNL     1      11.525  -4.004   4.739  0.00  0.00    +0.019 C 
ATOM     17  C   UNL     1      10.739  -2.694   4.706  0.00  0.00    +0.105 C 
ENDBRANCH   9  12
ENDBRANCH   3   6
BRANCH   1  19
ATOM     18  N   UNL     1       0.712  -0.474   1.195  0.00  0.00    -0.304 N 
ATOM     19  C   UNL     1       2.055  -0.578   1.182  0.00  0.00    +0.302 C 
ATOM     20  O   UNL     1       2.680  -0.259   0.190  0.00  0.00    -0.265 OA
ATOM     21  H   UNL     1       0.213  -0.729   1.987  0.00  0.00    +0.149 HD
BRANCH  18  23
ATOM     22  C   UNL     1      -0.024   1.553   0.040  0.00  0.00    +0.028 C 
ATOM     23  C   UNL     1       0.004   0.023   0.012  0.00  0.00    +0.078 C 
BRANCH  23  24
ATOM     24  C   UNL     1      -1.429  -0.513   0.012  0.00  0.00    +0.096 C 
BRANCH  24  25
ATOM     25  C   UNL     1      -1.404  -2.012  -0.139  0.00  0.00    +0.107 A 
ATOM     26  C   UNL     1      -1.355  -2.904   0.867  0.00  0.00    +0.045 A 
ATOM     27  C   UNL     1      -1.348  -4.188   0.276  0.00  0.00    +0.041 A 
ATOM     28  C   UNL     1      -1.393  -4.005  -1.056  0.00  0.00    +0.195 A 
ATOM     29  O   UNL     1      -1.432  -2.685  -1.301  0.00  0.00    -0.468 OA
ENDBRANCH  24  25
ENDBRANCH  23  24
ENDBRANCH  18  23
ENDBRANCH   1  19
TORSDOF 6
