REMARK  Name = ZINC14279850
REMARK  8 active torsions:
REMARK  status: ('A' for Active; 'I' for Inactive)
REMARK    1  A    between atoms: C_1  and  C_2
REMARK    2  A    between atoms: C_4  and  C_30
REMARK    3  A    between atoms: C_6  and  S_8
REMARK    4  A    between atoms: S_8  and  C_9
REMARK    5  A    between atoms: C_9  and  C_10
REMARK    6  A    between atoms: C_13  and  C_16
REMARK    7  A    between atoms: N_18  and  N_19
REMARK    8  A    between atoms: C_20  and  C_22
REMARK                            x       y       z     vdW  Elec       q    Type
REMARK                         _______ _______ _______ _____ _____    ______ ____
ROOT
ATOM      1  C   UNL     1       1.208  -0.682  -0.013  0.00  0.00    -0.037 A 
ATOM      2  C   UNL     1       0.002  -0.004   0.002  0.00  0.00    +0.005 A 
ATOM      3  C   UNL     1      -0.017   1.375   0.010  0.00  0.00    +0.013 A 
ATOM      4  C   UNL     1       1.184   2.087   0.002  0.00  0.00    +0.038 A 
ATOM      5  C   UNL     1       2.397   1.396  -0.012  0.00  0.00    +0.013 A 
ATOM      6  C   UNL     1       2.402   0.016  -0.020  0.00  0.00    +0.005 A 
ENDROOT
BRANCH   4   7
ATOM      7  C   UNL     1       1.172   3.565   0.009  0.00  0.00    +0.260 C 
ATOM      8  O   UNL     1       0.114   4.164   0.022  0.00  0.00    -0.269 OA
ATOM      9  N   UNL     1       2.333   4.249   0.002  0.00  0.00    -0.230 N 
ATOM     10  H   UNL     1       3.177   3.771  -0.008  0.00  0.00    +0.173 HD
BRANCH   9  11
ATOM     11  N   UNL     1       2.321   5.650   0.009  0.00  0.00    -0.230 N 
ATOM     12  C   UNL     1       3.483   6.333   0.002  0.00  0.00    +0.263 C 
ATOM     13  O   UNL     1       4.541   5.735  -0.011  0.00  0.00    -0.269 OA
ATOM     14  H   UNL     1       1.477   6.128   0.020  0.00  0.00    +0.173 HD
BRANCH  12  15
ATOM     15  C   UNL     1       3.470   7.810   0.009  0.00  0.00    +0.073 A 
ATOM     16  C   UNL     1       2.256   8.501   0.024  0.00  0.00    +0.017 A 
ATOM     17  C   UNL     1       2.251   9.879   0.031  0.00  0.00    +0.021 A 
ATOM     18  C   UNL     1       3.446  10.581   0.024  0.00  0.00    +0.044 A 
ATOM     19  C   UNL     1       4.653   9.905   0.008  0.00  0.00    +0.059 A 
ATOM     20  C   UNL     1       4.674   8.523   0.007  0.00  0.00    +0.137 A 
ATOM     21  F   UNL     1       5.852   7.862  -0.001  0.00  0.00    -0.205 F 
ATOM     22 CL   UNL     1       3.428  12.317   0.032  0.00  0.00    -0.083 Cl
ENDBRANCH  12  15
ENDBRANCH   9  11
ENDBRANCH   4   7
BRANCH   1  23
ATOM     23  C   UNL     1       1.221  -2.189  -0.021  0.00  0.00    +0.112 C 
BRANCH  23  24
ATOM     24  S   UNL     1       1.209  -2.784  -1.731  0.00  0.00    -0.081 S 
BRANCH  24  30
ATOM     25  C   UNL     1       1.274  -6.786   1.458  0.00  0.00    +0.066 C 
ATOM     26  C   UNL     1       1.256  -6.277   0.039  0.00  0.00    +0.043 A 
ATOM     27  C   UNL     1       1.254  -7.166  -1.024  0.00  0.00    +0.046 A 
ATOM     28  C   UNL     1       1.237  -6.657  -2.314  0.00  0.00    +0.043 A 
ATOM     29  N   UNL     1       1.224  -5.346  -2.490  0.00  0.00    -0.227 NA
ATOM     30  C   UNL     1       1.227  -4.523  -1.451  0.00  0.00    +0.189 A 
ATOM     31  N   UNL     1       1.248  -4.978  -0.206  0.00  0.00    -0.227 NA
ATOM     32  C   UNL     1       1.233  -7.586  -3.500  0.00  0.00    +0.066 C 
ENDBRANCH  24  30
ENDBRANCH  23  24
ENDBRANCH   1  23
TORSDOF 6
