REMARK  Name = ZINC36346407
REMARK  15 active torsions:
REMARK  status: ('A' for Active; 'I' for Inactive)
REMARK    1  A    between atoms: C_1  and  C_2
REMARK    2  A    between atoms: C_3  and  C_21
REMARK    3  A    between atoms: C_4  and  O_13
REMARK    4  A    between atoms: N_5  and  C_7
REMARK    5  A    between atoms: O_13  and  C_14
REMARK    6  A    between atoms: C_21  and  N_22
REMARK    7  A    between atoms: N_22  and  C_23
REMARK    8  A    between atoms: N_22  and  C_30
REMARK    9  A    between atoms: C_23  and  C_24
REMARK   10  A    between atoms: C_30  and  C_31
REMARK   11  A    between atoms: C_31  and  C_33
REMARK   12  A    between atoms: C_31  and  O_38
REMARK   13  A    between atoms: C_33  and  O_34
REMARK   14  A    between atoms: O_34  and  C_35
REMARK   15  A    between atoms: C_35  and  C_36
REMARK                            x       y       z     vdW  Elec       q    Type
REMARK                         _______ _______ _______ _____ _____    ______ ____
ROOT
ATOM      1  C   UNL     1      -0.604   1.565   0.460  0.00  0.00    +0.068 C 
ATOM      2  C   UNL     1      -0.272   0.095   0.447  0.00  0.00    +0.065 A 
ATOM      3  C   UNL     1      -0.097  -0.693  -0.694  0.00  0.00    +0.021 A 
ATOM      4  C   UNL     1       0.190  -1.959  -0.288  0.00  0.00    +0.225 A 
ATOM      5  N   UNL     1       0.193  -1.960   1.072  0.00  0.00    -0.200 N 
ATOM      6  N   UNL     1      -0.094  -0.658   1.502  0.00  0.00    -0.168 NA
ENDROOT
BRANCH   5   7
ATOM      7  C   UNL     1       0.444  -3.066   1.896  0.00  0.00    +0.069 A 
ATOM      8  C   UNL     1      -0.066  -4.313   1.562  0.00  0.00    +0.028 A 
ATOM      9  C   UNL     1       0.183  -5.401   2.376  0.00  0.00    +0.002 A 
ATOM     10  C   UNL     1       0.940  -5.248   3.523  0.00  0.00    +0.000 A 
ATOM     11  C   UNL     1       1.449  -4.007   3.859  0.00  0.00    +0.002 A 
ATOM     12  C   UNL     1       1.208  -2.917   3.046  0.00  0.00    +0.028 A 
ENDBRANCH   5   7
BRANCH   4  13
ATOM     13  O   UNL     1       0.428  -3.026  -1.092  0.00  0.00    -0.438 OA
BRANCH  13  14
ATOM     14  C   UNL     1      -0.636  -3.762  -1.507  0.00  0.00    +0.133 A 
ATOM     15  C   UNL     1      -1.927  -3.350  -1.204  0.00  0.00    +0.046 A 
ATOM     16  C   UNL     1      -3.007  -4.100  -1.627  0.00  0.00    +0.006 A 
ATOM     17  C   UNL     1      -2.805  -5.260  -2.351  0.00  0.00    +0.038 A 
ATOM     18  C   UNL     1      -1.519  -5.673  -2.656  0.00  0.00    +0.127 A 
ATOM     19  C   UNL     1      -0.434  -4.923  -2.239  0.00  0.00    +0.084 A 
ATOM     20  F   UNL     1      -1.325  -6.808  -3.364  0.00  0.00    -0.205 F 
ENDBRANCH  13  14
ENDBRANCH   4  13
BRANCH   3  21
ATOM     21  C   UNL     1      -0.206  -0.223  -2.122  0.00  0.00    -0.036 C 
BRANCH  21  22
ATOM     22  N   UNL     1       1.109   0.234  -2.589  0.00  0.00    +0.386 N 
ATOM     23  H   UNL     1       1.473   0.924  -1.949  0.00  0.00    -0.081 HD
BRANCH  22  24
ATOM     24  C   UNL     1       2.031  -0.908  -2.653  0.00  0.00    -0.046 C 
BRANCH  24  25
ATOM     25  C   UNL     1       1.527  -1.913  -3.691  0.00  0.00    +0.102 C 
ATOM     26  C   UNL     1       2.381  -3.197  -3.635  0.00  0.00    +0.032 C 
ATOM     27  C   UNL     1       2.517  -3.570  -5.136  0.00  0.00    +0.030 C 
ATOM     28  C   UNL     1       2.563  -2.163  -5.785  0.00  0.00    +0.160 C 
ATOM     29  O   UNL     1       1.660  -1.360  -5.006  0.00  0.00    -0.378 OA
ENDBRANCH  24  25
ENDBRANCH  22  24
BRANCH  22  30
ATOM     30  C   UNL     1       0.975   0.829  -3.925  0.00  0.00    -0.044 C 
BRANCH  30  31
ATOM     31  C   UNL     1       2.342   1.319  -4.405  0.00  0.00    +0.124 C 
BRANCH  31  32
ATOM     32  O   UNL     1       2.853   2.285  -3.484  0.00  0.00    -0.391 OA
ATOM     33  H   UNL     1       2.291   3.064  -3.379  0.00  0.00    +0.210 HD
ENDBRANCH  31  32
BRANCH  31  34
ATOM     34  C   UNL     1       2.198   1.960  -5.787  0.00  0.00    +0.189 C 
BRANCH  34  35
ATOM     35  O   UNL     1       3.490   2.313  -6.286  0.00  0.00    -0.373 OA
BRANCH  35  36
ATOM     36  C   UNL     1       3.467   2.923  -7.578  0.00  0.00    +0.186 C 
BRANCH  36  37
ATOM     37  C   UNL     1       4.875   3.251  -8.003  0.00  0.00    -0.007 C 
ATOM     38  C   UNL     1       5.274   2.973  -9.219  0.00  0.00    +0.006 C 
ENDBRANCH  36  37
ENDBRANCH  35  36
ENDBRANCH  34  35
ENDBRANCH  31  34
ENDBRANCH  30  31
ENDBRANCH  22  30
ENDBRANCH  21  22
ENDBRANCH   3  21
TORSDOF 14
