REMARK  Name = ZINC09520541
REMARK  9 active torsions:
REMARK  status: ('A' for Active; 'I' for Inactive)
REMARK    1  A    between atoms: C_1  and  C_2
REMARK    2  A    between atoms: C_2  and  N_3
REMARK    3  A    between atoms: C_11  and  S_12
REMARK    4  A    between atoms: S_12  and  C_13
REMARK    5  A    between atoms: C_13  and  C_14
REMARK    6  A    between atoms: N_16  and  N_17
REMARK    7  A    between atoms: C_18  and  C_20
REMARK    8  A    between atoms: C_21  and  C_31
REMARK    9  A    between atoms: C_23  and  C_25
REMARK                            x       y       z     vdW  Elec       q    Type
REMARK                         _______ _______ _______ _____ _____    ______ ____
ROOT
ATOM      1  C   UNL     1      -5.232   4.600  -1.234  0.00  0.00    +0.239 C 
ATOM      2  O   UNL     1      -5.594   3.464  -1.454  0.00  0.00    -0.273 OA
ATOM      3  N   UNL     1      -5.986   5.639  -1.646  0.00  0.00    -0.233 N 
ATOM      4  H   UNL     1      -5.697   6.548  -1.470  0.00  0.00    +0.173 HD
ENDROOT
BRANCH   3   5
ATOM      5  N   UNL     1      -7.188   5.405  -2.327  0.00  0.00    -0.230 N 
ATOM      6  C   UNL     1      -7.942   6.444  -2.739  0.00  0.00    +0.269 C 
ATOM      7  O   UNL     1      -7.579   7.585  -2.519  0.00  0.00    -0.268 OA
ATOM      8  H   UNL     1      -7.477   4.496  -2.503  0.00  0.00    +0.173 HD
BRANCH   6   9
ATOM      9  C   UNL     1      -9.199   6.200  -3.452  0.00  0.00    +0.098 A 
ATOM     10  C   UNL     1     -10.121   7.106  -3.960  0.00  0.00    +0.058 A 
ATOM     11  N   UNL     1     -11.176   6.627  -4.563  0.00  0.00    -0.243 NA
ATOM     12  C   UNL     1     -11.370   5.322  -4.691  0.00  0.00    +0.109 A 
ATOM     13  S   UNL     1      -9.967   4.654  -3.916  0.00  0.00    -0.062 S 
ATOM     14  C   UNL     1      -9.912   8.591  -3.820  0.00  0.00    +0.067 C 
BRANCH  12  15
ATOM     15  C   UNL     1     -12.495   4.613  -5.336  0.00  0.00    +0.007 A 
ATOM     16  C   UNL     1     -13.542   5.337  -5.911  0.00  0.00    +0.010 A 
ATOM     17  C   UNL     1     -14.587   4.669  -6.516  0.00  0.00    +0.001 A 
ATOM     18  C   UNL     1     -14.604   3.286  -6.545  0.00  0.00    +0.000 A 
ATOM     19  C   UNL     1     -13.572   2.563  -5.973  0.00  0.00    +0.001 A 
ATOM     20  C   UNL     1     -12.519   3.218  -5.369  0.00  0.00    +0.010 A 
ENDBRANCH  12  15
ENDBRANCH   6   9
ENDBRANCH   3   5
BRANCH   1  21
ATOM     21  C   UNL     1      -3.939   4.851  -0.502  0.00  0.00    +0.174 C 
BRANCH  21  22
ATOM     22  S   UNL     1      -3.165   3.269  -0.086  0.00  0.00    -0.078 S 
BRANCH  22  31
ATOM     23  N   UNL     1      -0.749   3.044   1.275  0.00  0.00    -0.319 N 
ATOM     24  C   UNL     1       0.208   3.876   1.833  0.00  0.00    +0.069 A 
ATOM     25  C   UNL     1       1.398   3.654   2.510  0.00  0.00    +0.028 A 
ATOM     26  C   UNL     1       2.147   4.725   2.952  0.00  0.00    +0.002 A 
ATOM     27  C   UNL     1       1.717   6.024   2.724  0.00  0.00    +0.002 A 
ATOM     28  C   UNL     1       0.543   6.263   2.047  0.00  0.00    +0.030 A 
ATOM     29  C   UNL     1      -0.230   5.189   1.597  0.00  0.00    +0.090 A 
ATOM     30  N   UNL     1      -1.410   5.104   0.929  0.00  0.00    -0.222 NA
ATOM     31  C   UNL     1      -1.718   3.845   0.739  0.00  0.00    +0.170 A 
BRANCH  23  33
ATOM     32  C   UNL     1      -0.013   1.086   0.008  0.00  0.00    +0.027 C 
ATOM     33  C   UNL     1      -0.729   1.579   1.267  0.00  0.00    +0.121 C 
ENDBRANCH  23  33
ENDBRANCH  22  31
ENDBRANCH  21  22
ENDBRANCH   1  21
TORSDOF 7
