REMARK  Name = ZINC36499081
REMARK  14 active torsions:
REMARK  status: ('A' for Active; 'I' for Inactive)
REMARK    1  A    between atoms: C_1  and  C_2
REMARK    2  A    between atoms: C_2  and  C_3
REMARK    3  A    between atoms: C_3  and  C_4
REMARK    4  A    between atoms: C_3  and  C_6
REMARK    5  A    between atoms: C_4  and  C_5
REMARK    6  A    between atoms: C_6  and  C_8
REMARK    7  A    between atoms: C_6  and  N_22
REMARK    8  A    between atoms: N_10  and  C_11
REMARK    9  A    between atoms: C_11  and  S_12
REMARK   10  A    between atoms: S_12  and  C_15
REMARK   11  A    between atoms: C_18  and  C_21
REMARK   12  A    between atoms: N_22  and  C_23
REMARK   13  A    between atoms: C_23  and  C_24
REMARK   14  A    between atoms: C_29  and  C_31
REMARK                            x       y       z     vdW  Elec       q    Type
REMARK                         _______ _______ _______ _____ _____    ______ ____
ROOT
ATOM      1  C   UNL     1      -0.714  -1.597  -3.497  0.00  0.00    +0.166 C 
ENDROOT
BRANCH   1   2
ATOM      2  C   UNL     1      -1.009  -0.121  -3.417  0.00  0.00    +0.235 C 
ATOM      3  O   UNL     1      -0.168   0.684  -3.757  0.00  0.00    -0.274 OA
ATOM      4  N   UNL     1      -2.206   0.304  -2.967  0.00  0.00    -0.295 N 
ATOM      5  H   UNL     1      -2.851  -0.336  -2.628  0.00  0.00    +0.150 HD
BRANCH   4   6
ATOM      6  C   UNL     1      -2.533   1.732  -2.991  0.00  0.00    +0.278 C 
BRANCH   6   7
ATOM      7  S   UNL     1      -3.451   2.116  -4.507  0.00  0.00    +0.013 S 
ATOM      8  O   UNL     1      -3.831   3.486  -4.516  0.00  0.00    -0.168 OA
ATOM      9  O   UNL     1      -2.804   1.537  -5.632  0.00  0.00    -0.168 OA
BRANCH   7  10
ATOM     10  C   UNL     1      -4.967   1.231  -4.356  0.00  0.00    +0.090 A 
ATOM     11  C   UNL     1      -5.062  -0.063  -4.832  0.00  0.00    +0.027 A 
ATOM     12  C   UNL     1      -6.251  -0.758  -4.713  0.00  0.00    +0.005 A 
ATOM     13  C   UNL     1      -7.345  -0.159  -4.117  0.00  0.00    -0.050 A 
ATOM     14  C   UNL     1      -7.250   1.135  -3.640  0.00  0.00    +0.005 A 
ATOM     15  C   UNL     1      -6.059   1.828  -3.755  0.00  0.00    +0.027 A 
ATOM     16  C   UNL     1      -8.642  -0.916  -3.989  0.00  0.00    +0.044 C 
ENDBRANCH   7  10
ENDBRANCH   6   7
ENDBRANCH   4   6
ENDBRANCH   1   2
BRANCH   1  17
ATOM     17  N   UNL     1       0.731  -1.800  -3.631  0.00  0.00    -0.278 N 
ATOM     18  C   UNL     1       1.205  -2.708  -4.506  0.00  0.00    +0.248 C 
ATOM     19  O   UNL     1       0.449  -3.253  -5.286  0.00  0.00    -0.270 OA
BRANCH  18  20
ATOM     20  C   UNL     1       2.645  -3.042  -4.518  0.00  0.00    +0.038 A 
ATOM     21  C   UNL     1       3.598  -2.041  -4.321  0.00  0.00    +0.013 A 
ATOM     22  C   UNL     1       4.941  -2.359  -4.333  0.00  0.00    +0.002 A 
ATOM     23  C   UNL     1       5.344  -3.666  -4.538  0.00  0.00    +0.020 A 
ATOM     24  C   UNL     1       4.404  -4.664  -4.733  0.00  0.00    +0.042 A 
ATOM     25  C   UNL     1       3.057  -4.360  -4.719  0.00  0.00    +0.033 A 
ATOM     26 CL   UNL     1       4.920  -6.302  -4.989  0.00  0.00    -0.084 Cl
ENDBRANCH  18  20
BRANCH  17  27
ATOM     27  C   UNL     1       1.659  -1.016  -2.813  0.00  0.00    +0.183 C 
BRANCH  27  28
ATOM     28  C   UNL     1       1.958   0.289  -3.505  0.00  0.00    +0.122 A 
ATOM     29  C   UNL     1       2.164   1.472  -2.897  0.00  0.00    +0.046 A 
ATOM     30  C   UNL     1       2.408   2.419  -3.918  0.00  0.00    +0.041 A 
ATOM     31  C   UNL     1       2.336   1.759  -5.088  0.00  0.00    +0.195 A 
ATOM     32  O   UNL     1       2.069   0.468  -4.831  0.00  0.00    -0.466 OA
ENDBRANCH  27  28
ENDBRANCH  17  27
ENDBRANCH   1  17
BRANCH   1  33
ATOM     33  C   UNL     1      -1.210  -2.286  -2.223  0.00  0.00    +0.018 C 
BRANCH  33  35
ATOM     34  C   UNL     1      -2.034  -4.298  -3.453  0.00  0.00    +0.004 C 
ATOM     35  C   UNL     1      -1.068  -3.801  -2.375  0.00  0.00    +0.002 C 
ENDBRANCH  33  35
BRANCH  33  36
ATOM     36  C   UNL     1      -0.377  -1.813  -1.030  0.00  0.00    +0.002 C 
ATOM     37  C   UNL     1      -0.658  -0.332  -0.767  0.00  0.00    +0.004 C 
ENDBRANCH  33  36
ENDBRANCH   1  33
TORSDOF 11
