REMARK  Name = ZINC05167292
REMARK  5 active torsions:
REMARK  status: ('A' for Active; 'I' for Inactive)
REMARK    1  A    between atoms: C_4  and  C_7
REMARK    2  A    between atoms: C_13  and  S_16
REMARK    3  A    between atoms: S_16  and  C_17
REMARK    4  A    between atoms: C_17  and  C_18
REMARK    5  A    between atoms: N_20  and  C_21
REMARK                            x       y       z     vdW  Elec       q    Type
REMARK                         _______ _______ _______ _____ _____    ______ ____
ROOT
ATOM      1  C   UNL     1       0.637   3.991   0.027  0.00  0.00    +0.092 A 
ATOM      2  C   UNL     1      -0.719   3.595   0.047  0.00  0.00    +0.034 A 
ATOM      3  C   UNL     1      -1.045   2.277   0.055  0.00  0.00    +0.052 A 
ATOM      4  C   UNL     1      -0.016   1.315   0.032  0.00  0.00    +0.179 A 
ATOM      5  N   UNL     1       0.002  -0.005   0.030  0.00  0.00    -0.127 NA
ATOM      6  N   UNL     1       1.220  -0.420   0.010  0.00  0.00    -0.120 NA
ATOM      7  C   UNL     1       2.050   0.601  -0.001  0.00  0.00    +0.213 A 
ATOM      8  N   UNL     1       1.299   1.734   0.012  0.00  0.00    -0.187 N 
ATOM      9  N   UNL     1       1.600   3.097   0.010  0.00  0.00    -0.163 NA
ENDROOT
BRANCH   1  13
ATOM     10  C   UNL     1       1.616   8.129   0.017  0.00  0.00    +0.000 A 
ATOM     11  C   UNL     1       2.624   7.183  -0.000  0.00  0.00    +0.001 A 
ATOM     12  C   UNL     1       2.312   5.838   0.003  0.00  0.00    +0.010 A 
ATOM     13  C   UNL     1       0.979   5.435   0.024  0.00  0.00    +0.002 A 
ATOM     14  C   UNL     1      -0.034   6.393   0.036  0.00  0.00    +0.010 A 
ATOM     15  C   UNL     1       0.290   7.735   0.038  0.00  0.00    +0.001 A 
ENDBRANCH   1  13
BRANCH   7  16
ATOM     16  S   UNL     1       3.810   0.514  -0.030  0.00  0.00    -0.075 S 
BRANCH  16  17
ATOM     17  C   UNL     1       4.162  -1.265  -0.038  0.00  0.00    +0.173 C 
BRANCH  17  18
ATOM     18  C   UNL     1       5.653  -1.482  -0.062  0.00  0.00    +0.227 C 
ATOM     19  O   UNL     1       6.404  -0.529  -0.073  0.00  0.00    -0.275 OA
ATOM     20  N   UNL     1       6.152  -2.734  -0.072  0.00  0.00    -0.285 N 
ATOM     21  H   UNL     1       5.555  -3.494   0.005  0.00  0.00    +0.155 HD
BRANCH  20  22
ATOM     22  C   UNL     1       7.532  -2.936  -0.192  0.00  0.00    +0.033 A 
ATOM     23  C   UNL     1       8.015  -4.033  -0.894  0.00  0.00    +0.025 A 
ATOM     24  C   UNL     1       9.377  -4.228  -1.015  0.00  0.00    +0.022 A 
ATOM     25  C   UNL     1      10.259  -3.338  -0.429  0.00  0.00    +0.041 A 
ATOM     26  C   UNL     1       9.780  -2.247   0.275  0.00  0.00    +0.022 A 
ATOM     27  C   UNL     1       8.419  -2.045   0.395  0.00  0.00    +0.025 A 
ATOM     28 CL   UNL     1      11.971  -3.589  -0.578  0.00  0.00    -0.084 Cl
ENDBRANCH  20  22
ENDBRANCH  17  18
ENDBRANCH  16  17
ENDBRANCH   7  16
TORSDOF 5
