REMARK  Name = ZINC64813635
REMARK  7 active torsions:
REMARK  status: ('A' for Active; 'I' for Inactive)
REMARK    1  A    between atoms: C_1  and  C_2
REMARK    2  A    between atoms: C_3  and  C_22
REMARK    3  A    between atoms: N_9  and  C_10
REMARK    4  A    between atoms: C_10  and  C_11
REMARK    5  A    between atoms: C_14  and  C_16
REMARK    6  A    between atoms: C_22  and  C_23
REMARK    7  A    between atoms: N_25  and  C_26
REMARK                            x       y       z     vdW  Elec       q    Type
REMARK                         _______ _______ _______ _____ _____    ______ ____
ROOT
ATOM      1  C   UNL     1       0.222   1.497  -0.020  0.00  0.00    +0.061 C 
ATOM      2  C   UNL     1       0.116  -0.006  -0.012  0.00  0.00    +0.015 C 
ATOM      3  C   UNL     1      -0.097  -0.666  -1.170  0.00  0.00    +0.042 C 
ATOM      4  C   UNL     1      -0.188  -2.087  -1.181  0.00  0.00    +0.267 C 
ATOM      5  O   UNL     1      -0.303  -2.713  -2.220  0.00  0.00    -0.268 OA
ATOM      6  N   UNL     1      -0.141  -2.703   0.014  0.00  0.00    -0.150 N 
ATOM      7  C   UNL     1      -0.458  -1.981   1.272  0.00  0.00    +0.279 C 
ATOM      8  N   UNL     1       0.243  -0.692   1.176  0.00  0.00    -0.295 N 
ATOM      9  N   UNL     1       0.113  -2.853   2.301  0.00  0.00    -0.293 N 
ATOM     10  C   UNL     1       0.388  -4.066   1.672  0.00  0.00    +0.147 C 
ATOM     11  N   UNL     1       0.203  -3.992   0.388  0.00  0.00    -0.158 NA
ATOM     12  H   UNL     1       0.270  -2.630   3.232  0.00  0.00    +0.151 HD
ENDROOT
BRANCH  10  13
ATOM     13  C   UNL     1       0.835  -5.285   2.378  0.00  0.00    +0.016 A 
ATOM     14  C   UNL     1       1.002  -5.271   3.764  0.00  0.00    +0.011 A 
ATOM     15  C   UNL     1       1.420  -6.413   4.417  0.00  0.00    +0.001 A 
ATOM     16  C   UNL     1       1.673  -7.569   3.701  0.00  0.00    +0.000 A 
ATOM     17  C   UNL     1       1.509  -7.590   2.327  0.00  0.00    +0.001 A 
ATOM     18  C   UNL     1       1.086  -6.457   1.663  0.00  0.00    +0.011 A 
ENDBRANCH  10  13
BRANCH   8  19
ATOM     19  C   UNL     1       1.034  -0.160   2.289  0.00  0.00    +0.135 C 
BRANCH  19  20
ATOM     20  C   UNL     1       0.152   0.683   3.174  0.00  0.00    -0.016 C 
ATOM     21  C   UNL     1       0.068   0.420   4.455  0.00  0.00    +0.005 C 
ENDBRANCH  19  20
ENDBRANCH   8  19
BRANCH   3  22
ATOM     22  C   UNL     1      -0.239   0.105  -2.457  0.00  0.00    +0.137 C 
BRANCH  22  23
ATOM     23  C   UNL     1       1.099   0.181  -3.147  0.00  0.00    +0.220 C 
ATOM     24  O   UNL     1       2.072  -0.340  -2.643  0.00  0.00    -0.275 OA
ATOM     25  N   UNL     1       1.214   0.827  -4.324  0.00  0.00    -0.278 N 
ATOM     26  H   UNL     1       0.436   1.243  -4.727  0.00  0.00    +0.152 HD
BRANCH  25  27
ATOM     27  C   UNL     1       2.515   0.901  -4.995  0.00  0.00    +0.269 C 
ATOM     28  N   UNL     1       3.354   1.923  -4.357  0.00  0.00    -0.348 N 
ATOM     29  C   UNL     1       3.630   2.820  -5.259  0.00  0.00    +0.061 A 
ATOM     30  C   UNL     1       4.416   4.061  -5.225  0.00  0.00    +0.027 A 
ATOM     31  C   UNL     1       4.530   4.807  -6.342  0.00  0.00    +0.002 A 
ATOM     32  C   UNL     1       3.922   4.447  -7.559  0.00  0.00    +0.002 A 
ATOM     33  C   UNL     1       3.181   3.330  -7.699  0.00  0.00    +0.027 A 
ATOM     34  C   UNL     1       2.988   2.439  -6.546  0.00  0.00    +0.061 A 
ATOM     35  N   UNL     1       2.339   1.322  -6.391  0.00  0.00    -0.348 N 
ATOM     36  H   UNL     1       3.648   1.929  -3.433  0.00  0.00    +0.163 HD
ATOM     37  H   UNL     1       1.832   0.853  -7.072  0.00  0.00    +0.163 HD
ENDBRANCH  25  27
ENDBRANCH  22  23
ENDBRANCH   3  22
TORSDOF 6
