REMARK  Name = ZINC33121183
REMARK  12 active torsions:
REMARK  status: ('A' for Active; 'I' for Inactive)
REMARK    1  A    between atoms: C_1  and  C_2
REMARK    2  A    between atoms: C_2  and  C_3
REMARK    3  A    between atoms: C_3  and  C_4
REMARK    4  A    between atoms: C_4  and  N_5
REMARK    5  A    between atoms: N_5  and  C_6
REMARK    6  A    between atoms: C_7  and  C_9
REMARK    7  A    between atoms: C_11  and  N_21
REMARK    8  A    between atoms: C_14  and  N_15
REMARK    9  A    between atoms: N_21  and  S_22
REMARK   10  A    between atoms: S_22  and  C_25
REMARK   11  A    between atoms: C_28  and  C_31
REMARK   12  A    between atoms: C_31  and  C_32
REMARK                            x       y       z     vdW  Elec       q    Type
REMARK                         _______ _______ _______ _____ _____    ______ ____
ROOT
ATOM      1  C   UNL     1       1.000  -2.284   0.817  0.00  0.00    +0.060 A 
ATOM      2  C   UNL     1       0.104  -3.044   0.062  0.00  0.00    +0.039 A 
ATOM      3  C   UNL     1       0.426  -4.344  -0.285  0.00  0.00    +0.049 A 
ATOM      4  C   UNL     1       1.639  -4.896   0.115  0.00  0.00    +0.026 A 
ATOM      5  C   UNL     1       2.530  -4.152   0.861  0.00  0.00    +0.026 A 
ATOM      6  C   UNL     1       2.224  -2.844   1.213  0.00  0.00    +0.042 A 
ENDROOT
BRANCH   6   7
ATOM      7  N   UNL     1       3.126  -2.093   1.961  0.00  0.00    -0.333 N 
ATOM      8  C   UNL     1       4.203  -2.940   2.492  0.00  0.00    +0.086 C 
ATOM      9  C   UNL     1       5.127  -2.094   3.371  0.00  0.00    -0.063 C 
ATOM     10  N   UNL     1       5.676  -0.987   2.576  0.00  0.00    +0.381 N 
ATOM     11  C   UNL     1       4.599  -0.140   2.045  0.00  0.00    -0.063 C 
ATOM     12  C   UNL     1       3.675  -0.986   1.166  0.00  0.00    +0.086 C 
ATOM     13  H   UNL     1       6.331  -0.370   3.210  0.00  0.00    -0.086 HD
ATOM     14  H   UNL     1       6.256  -1.392   1.734  0.00  0.00    -0.086 HD
ENDBRANCH   6   7
BRANCH   1  17
ATOM     15  N   UNL     1       0.419   0.018   0.232  0.00  0.00    -0.301 N 
ATOM     16  C   UNL     1       0.385  -0.386  -1.175  0.00  0.00    +0.132 C 
ATOM     17  C   UNL     1       0.665  -0.897   1.190  0.00  0.00    +0.248 C 
ATOM     18  O   UNL     1       0.611  -0.580   2.363  0.00  0.00    -0.270 OA
BRANCH  15  19
ATOM     19  C   UNL     1       0.185   1.417   0.598  0.00  0.00    +0.108 C 
BRANCH  19  20
ATOM     20  C   UNL     1      -1.310   1.639   0.836  0.00  0.00    +0.019 C 
BRANCH  20  22
ATOM     21  C   UNL     1      -3.050   3.322   1.456  0.00  0.00    +0.004 C 
ATOM     22  C   UNL     1      -1.554   3.100   1.218  0.00  0.00    -0.002 C 
ENDBRANCH  20  22
ENDBRANCH  19  20
ENDBRANCH  15  19
ENDBRANCH   1  17
BRANCH   3  23
ATOM     23  N   UNL     1      -0.472  -5.107  -1.042  0.00  0.00    -0.216 N 
ATOM     24  H   UNL     1      -1.540  -5.119  -0.781  0.00  0.00    +0.174 HD
BRANCH  23  25
ATOM     25  S   UNL     1       0.075  -5.993  -2.330  0.00  0.00    +0.072 S 
ATOM     26  O   UNL     1       1.155  -6.782  -1.851  0.00  0.00    -0.150 OA
ATOM     27  O   UNL     1      -1.071  -6.563  -2.947  0.00  0.00    -0.150 OA
BRANCH  25  28
ATOM     28  C   UNL     1       0.758  -4.856  -3.491  0.00  0.00    +0.109 A 
ATOM     29  C   UNL     1      -0.063  -4.228  -4.408  0.00  0.00    +0.029 A 
ATOM     30  C   UNL     1       0.473  -3.333  -5.316  0.00  0.00    +0.005 A 
ATOM     31  C   UNL     1       1.831  -3.074  -5.312  0.00  0.00    -0.048 A 
ATOM     32  C   UNL     1       2.652  -3.707  -4.398  0.00  0.00    +0.005 A 
ATOM     33  C   UNL     1       2.116  -4.598  -3.487  0.00  0.00    +0.029 A 
BRANCH  31  34
ATOM     34  C   UNL     1       2.415  -2.101  -6.304  0.00  0.00    +0.032 C 
ATOM     35  C   UNL     1       2.822  -2.851  -7.574  0.00  0.00    +0.009 C 
ENDBRANCH  31  34
ENDBRANCH  25  28
ENDBRANCH  23  25
ENDBRANCH   3  23
TORSDOF 9
