REMARK  Name = ZINC35966855
REMARK  11 active torsions:
REMARK  status: ('A' for Active; 'I' for Inactive)
REMARK    1  A    between atoms: C_1  and  C_2
REMARK    2  A    between atoms: C_2  and  C_3
REMARK    3  A    between atoms: C_2  and  C_4
REMARK    4  A    between atoms: C_4  and  C_5
REMARK    5  A    between atoms: C_5  and  C_7
REMARK    6  A    between atoms: C_5  and  N_17
REMARK    7  A    between atoms: N_9  and  C_10
REMARK    8  A    between atoms: C_10  and  C_11
REMARK    9  A    between atoms: C_23  and  C_30
REMARK   10  A    between atoms: N_28  and  C_29
REMARK   11  A    between atoms: C_35  and  C_36
REMARK                            x       y       z     vdW  Elec       q    Type
REMARK                         _______ _______ _______ _____ _____    ______ ____
ROOT
ATOM      1  N   UNL     1       0.251   1.349   2.095  0.00  0.00    -0.281 N 
ATOM      2  C   UNL     1      -1.102   1.922   2.129  0.00  0.00    +0.160 C 
ATOM      3  C   UNL     1      -0.916   3.329   2.651  0.00  0.00    +0.042 C 
ATOM      4  C   UNL     1       0.406   3.481   2.870  0.00  0.00    +0.058 C 
ATOM      5  C   UNL     1       1.096   2.296   2.542  0.00  0.00    +0.247 C 
ATOM      6  O   UNL     1       2.300   2.150   2.647  0.00  0.00    -0.270 OA
ATOM      7  C   UNL     1       0.883   4.816   3.403  0.00  0.00    +0.142 C 
ATOM      8  N   UNL     1      -0.144   5.846   3.639  0.00  0.00    -0.288 N 
ATOM      9  C   UNL     1      -1.429   5.543   3.370  0.00  0.00    +0.307 C 
ATOM     10  O   UNL     1      -2.284   6.386   3.562  0.00  0.00    -0.252 OA
ATOM     11  N   UNL     1      -1.796   4.344   2.900  0.00  0.00    -0.260 N 
ATOM     12  C   UNL     1      -3.217   4.108   2.637  0.00  0.00    +0.139 C 
ATOM     13  H   UNL     1       0.100   6.720   3.980  0.00  0.00    +0.151 HD
ENDROOT
BRANCH   7  14
ATOM     14  C   UNL     1       1.599   4.568   4.706  0.00  0.00    -0.011 A 
ATOM     15  C   UNL     1       0.883   4.188   5.826  0.00  0.00    +0.006 A 
ATOM     16  C   UNL     1       1.540   3.960   7.021  0.00  0.00    +0.000 A 
ATOM     17  C   UNL     1       2.912   4.112   7.096  0.00  0.00    +0.001 A 
ATOM     18  C   UNL     1       3.627   4.491   5.976  0.00  0.00    +0.013 A 
ATOM     19  C   UNL     1       2.971   4.715   4.779  0.00  0.00    +0.060 A 
BRANCH  19  20
ATOM     20  C   UNL     1       3.752   5.123   3.557  0.00  0.00    +0.418 C 
ATOM     21  F   UNL     1       5.110   5.211   3.879  0.00  0.00    -0.166 F 
ATOM     22  F   UNL     1       3.572   4.170   2.549  0.00  0.00    -0.166 F 
ATOM     23  F   UNL     1       3.298   6.368   3.108  0.00  0.00    -0.166 F 
ENDBRANCH  19  20
ENDBRANCH   7  14
BRANCH   1  24
ATOM     24  C   UNL     1       0.612  -0.003   1.662  0.00  0.00    +0.163 C 
BRANCH  24  25
ATOM     25  C   UNL     1       1.241  -0.748   2.811  0.00  0.00    +0.234 C 
ATOM     26  O   UNL     1       1.375  -0.203   3.886  0.00  0.00    -0.274 OA
ATOM     27  N   UNL     1       1.655  -2.019   2.644  0.00  0.00    -0.311 N 
ATOM     28  H   UNL     1       1.548  -2.455   1.784  0.00  0.00    +0.149 HD
BRANCH  27  29
ATOM     29  C   UNL     1       2.267  -2.744   3.761  0.00  0.00    +0.135 C 
BRANCH  29  30
ATOM     30  C   UNL     1       2.643  -4.156   3.308  0.00  0.00    +0.135 C 
ATOM     31  C   UNL     1       3.261  -4.951   4.486  0.00  0.00    +0.035 C 
ATOM     32  C   UNL     1       2.959  -6.410   4.046  0.00  0.00    +0.031 C 
ATOM     33  C   UNL     1       1.601  -6.261   3.327  0.00  0.00    +0.160 C 
ATOM     34  O   UNL     1       1.467  -4.889   2.933  0.00  0.00    -0.375 OA
ENDBRANCH  29  30
ENDBRANCH  27  29
ENDBRANCH  24  25
BRANCH  24  35
ATOM     35  C   UNL     1       1.607   0.081   0.503  0.00  0.00    +0.035 C 
BRANCH  35  37
ATOM     36  C   UNL     1       1.963   0.975  -1.803  0.00  0.00    +0.007 C 
ATOM     37  C   UNL     1       0.924   0.713  -0.712  0.00  0.00    -0.015 C 
ATOM     38  C   UNL     1      -0.148  -0.240  -1.246  0.00  0.00    +0.007 C 
ENDBRANCH  35  37
ENDBRANCH  24  35
ENDBRANCH   1  24
TORSDOF 8
