REMARK  Name = ZINC14474466
REMARK  6 active torsions:
REMARK  status: ('A' for Active; 'I' for Inactive)
REMARK    1  A    between atoms: C_1  and  C_2
REMARK    2  A    between atoms: C_2  and  C_3
REMARK    3  A    between atoms: C_2  and  O_4
REMARK    4  A    between atoms: O_4  and  C_5
REMARK    5  A    between atoms: C_18  and  C_21
REMARK    6  A    between atoms: C_26  and  O_27
REMARK                            x       y       z     vdW  Elec       q    Type
REMARK                         _______ _______ _______ _____ _____    ______ ____
ROOT
ATOM      1  C   UNL     1       3.784   1.018  -3.325  0.00  0.00    +0.121 A 
ATOM      2  C   UNL     1       4.385   1.144  -2.081  0.00  0.00    +0.047 A 
ATOM      3  C   UNL     1       3.600   1.298  -0.956  0.00  0.00    +0.027 A 
ATOM      4  C   UNL     1       2.217   1.327  -1.070  0.00  0.00    +0.032 A 
ATOM      5  C   UNL     1       1.609   1.203  -2.309  0.00  0.00    -0.016 A 
ATOM      6  C   UNL     1       2.405   1.048  -3.437  0.00  0.00    +0.051 A 
ATOM      7  C   UNL     1       0.123   1.233  -2.479  0.00  0.00    +0.049 C 
ATOM      8  C   UNL     1      -0.431  -0.148  -2.737  0.00  0.00    -0.023 C 
ATOM      9  C   UNL     1      -1.598  -0.284  -2.155  0.00  0.00    -0.030 C 
ATOM     10  C   UNL     1      -1.983   0.993  -1.433  0.00  0.00    +0.033 C 
ATOM     11  C   UNL     1      -0.618   1.708  -1.214  0.00  0.00    +0.029 C 
ATOM     12  C   UNL     1       0.025   1.087   0.030  0.00  0.00    +0.108 C 
ATOM     13  N   UNL     1       1.436   1.484   0.084  0.00  0.00    -0.336 N 
ATOM     14  H   UNL     1       1.820   1.847   0.898  0.00  0.00    +0.147 HD
ENDROOT
BRANCH  12  15
ATOM     15  C   UNL     1      -0.684   1.578   1.266  0.00  0.00    +0.014 A 
ATOM     16  C   UNL     1      -1.521   0.730   1.965  0.00  0.00    +0.009 A 
ATOM     17  C   UNL     1      -2.169   1.178   3.102  0.00  0.00    +0.001 A 
ATOM     18  C   UNL     1      -1.988   2.479   3.536  0.00  0.00    +0.004 A 
ATOM     19  C   UNL     1      -1.157   3.332   2.837  0.00  0.00    +0.046 A 
ATOM     20  C   UNL     1      -0.502   2.883   1.699  0.00  0.00    +0.122 A 
BRANCH  20  21
ATOM     21  O   UNL     1       0.317   3.721   1.010  0.00  0.00    -0.506 OA
ATOM     22  H   UNL     1      -0.130   4.223   0.315  0.00  0.00    +0.292 HD
ENDBRANCH  20  21
ENDBRANCH  12  15
BRANCH   1  23
ATOM     23  O   UNL     1       4.551   0.866  -4.437  0.00  0.00    -0.489 OA
BRANCH  23  25
ATOM     24  C   UNL     1       6.564  -0.034  -5.426  0.00  0.00    +0.051 C 
ATOM     25  C   UNL     1       5.959   0.716  -4.238  0.00  0.00    +0.167 C 
ATOM     26  C   UNL     1       6.607   2.097  -4.123  0.00  0.00    +0.051 C 
ENDBRANCH  23  25
ENDBRANCH   1  23
TORSDOF 4
