REMARK  Name = ZINC00669084
REMARK  8 active torsions:
REMARK  status: ('A' for Active; 'I' for Inactive)
REMARK    1  A    between atoms: C_1  and  C_2
REMARK    2  A    between atoms: C_3  and  C_28
REMARK    3  A    between atoms: C_5  and  N_10
REMARK    4  A    between atoms: C_6  and  C_7
REMARK    5  A    between atoms: C_11  and  C_13
REMARK    6  A    between atoms: C_13  and  C_15
REMARK    7  A    between atoms: C_13  and  S_21
REMARK    8  A    between atoms: S_21  and  C_22
REMARK                            x       y       z     vdW  Elec       q    Type
REMARK                         _______ _______ _______ _____ _____    ______ ____
ROOT
ATOM      1  N   UNL     1       1.477   3.443   0.006  0.00  0.00    -0.278 N 
ATOM      2  C   UNL     1       2.751   3.884  -0.004  0.00  0.00    +0.235 C 
ATOM      3  O   UNL     1       3.668   3.090  -0.016  0.00  0.00    -0.274 OA
ATOM      4  H   UNL     1       0.744   4.078   0.015  0.00  0.00    +0.155 HD
ENDROOT
BRANCH   1   9
ATOM      5  C   UNL     1      -1.273  -0.807   0.010  0.00  0.00    +0.045 C 
ATOM      6  C   UNL     1       0.002  -0.004   0.002  0.00  0.00    -0.027 A 
ATOM      7  C   UNL     1       1.207  -0.602  -0.013  0.00  0.00    -0.008 A 
ATOM      8  S   UNL     1       2.344   0.768  -0.016  0.00  0.00    -0.078 S 
ATOM      9  C   UNL     1       1.215   2.081   0.002  0.00  0.00    +0.084 A 
ATOM     10  C   UNL     1      -0.018   1.439   0.010  0.00  0.00    +0.068 A 
ATOM     11  C   UNL     1       1.519  -2.076  -0.024  0.00  0.00    +0.052 C 
BRANCH  10  12
ATOM     12  C   UNL     1      -1.276   2.191   0.020  0.00  0.00    +0.244 C 
ATOM     13  O   UNL     1      -1.794   2.498   1.078  0.00  0.00    -0.270 OA
ATOM     14  N   UNL     1      -1.860   2.543  -1.142  0.00  0.00    -0.325 N 
ATOM     15  H   UNL     1      -1.448   2.299  -1.986  0.00  0.00    +0.145 HD
ATOM     16  H   UNL     1      -2.693   3.041  -1.136  0.00  0.00    +0.145 HD
ENDBRANCH  10  12
ENDBRANCH   1   9
BRANCH   2  17
ATOM     17  C   UNL     1       3.036   5.364   0.000  0.00  0.00    +0.167 C 
BRANCH  17  18
ATOM     18  C   UNL     1       2.876   5.910  -1.395  0.00  0.00    -0.025 A 
ATOM     19  C   UNL     1       3.664   5.426  -2.422  0.00  0.00    +0.005 A 
ATOM     20  C   UNL     1       3.514   5.924  -3.703  0.00  0.00    +0.000 A 
ATOM     21  C   UNL     1       2.582   6.913  -3.955  0.00  0.00    +0.000 A 
ATOM     22  C   UNL     1       1.797   7.401  -2.927  0.00  0.00    +0.000 A 
ATOM     23  C   UNL     1       1.944   6.900  -1.647  0.00  0.00    +0.005 A 
ENDBRANCH  17  18
BRANCH  17  24
ATOM     24  S   UNL     1       4.734   5.651   0.571  0.00  0.00    -0.108 S 
BRANCH  24  25
ATOM     25  C   UNL     1       4.862   7.406   0.661  0.00  0.00    +0.009 A 
ATOM     26  C   UNL     1       3.776   8.202   0.317  0.00  0.00    +0.015 A 
ATOM     27  C   UNL     1       3.878   9.577   0.394  0.00  0.00    +0.001 A 
ATOM     28  C   UNL     1       5.063  10.162   0.803  0.00  0.00    +0.000 A 
ATOM     29  C   UNL     1       6.147   9.373   1.141  0.00  0.00    +0.001 A 
ATOM     30  C   UNL     1       6.051   7.997   1.072  0.00  0.00    +0.015 A 
ENDBRANCH  24  25
ENDBRANCH  17  24
ENDBRANCH   2  17
TORSDOF 6
