REMARK  Name = ZINC36207700
REMARK  18 active torsions:
REMARK  status: ('A' for Active; 'I' for Inactive)
REMARK    1  A    between atoms: C_1  and  C_2
REMARK    2  A    between atoms: C_2  and  C_3
REMARK    3  A    between atoms: C_2  and  C_4
REMARK    4  A    between atoms: C_4  and  N_5
REMARK    5  A    between atoms: N_5  and  C_6
REMARK    6  A    between atoms: N_5  and  C_28
REMARK    7  A    between atoms: C_6  and  C_7
REMARK    8  A    between atoms: C_13  and  C_18
REMARK    9  A    between atoms: C_21  and  O_26
REMARK   10  A    between atoms: C_22  and  O_24
REMARK   11  A    between atoms: O_24  and  C_25
REMARK   12  A    between atoms: O_26  and  C_27
REMARK   13  A    between atoms: C_28  and  C_29
REMARK   14  A    between atoms: C_29  and  C_31
REMARK   15  A    between atoms: C_29  and  O_36
REMARK   16  A    between atoms: C_31  and  O_32
REMARK   17  A    between atoms: O_32  and  C_33
REMARK   18  A    between atoms: C_33  and  C_34
REMARK                            x       y       z     vdW  Elec       q    Type
REMARK                         _______ _______ _______ _____ _____    ______ ____
ROOT
ATOM      1  C   UNL     1      -0.069  -2.883   0.315  0.00  0.00    +0.094 A 
ATOM      2  N   UNL     1       0.572  -3.849   1.021  0.00  0.00    -0.312 N 
ATOM      3  H   UNL     1       0.058  -4.442   1.591  0.00  0.00    +0.170 HD
ATOM      4  C   UNL     1       1.907  -4.000   0.947  0.00  0.00    +0.260 A 
ATOM      5  O   UNL     1       2.468  -4.873   1.587  0.00  0.00    -0.267 OA
ATOM      6  C   UNL     1       2.659  -3.121   0.103  0.00  0.00    +0.080 A 
ATOM      7  C   UNL     1       4.095  -3.084  -0.144  0.00  0.00    +0.004 A 
ATOM      8  C   UNL     1       4.586  -2.150  -0.994  0.00  0.00    +0.056 A 
ATOM      9  S   UNL     1       3.132  -1.261  -1.514  0.00  0.00    -0.076 S 
ATOM     10  C   UNL     1       1.911  -2.154  -0.588  0.00  0.00    +0.116 A 
ATOM     11  N   UNL     1       0.589  -2.069  -0.467  0.00  0.00    -0.229 NA
ENDROOT
BRANCH   7  12
ATOM     12  C   UNL     1       5.002  -4.049   0.523  0.00  0.00    -0.013 A 
ATOM     13  C   UNL     1       4.923  -4.243   1.901  0.00  0.00    +0.012 A 
ATOM     14  C   UNL     1       5.768  -5.142   2.521  0.00  0.00    +0.050 A 
ATOM     15  C   UNL     1       6.695  -5.854   1.776  0.00  0.00    +0.162 A 
ATOM     16  C   UNL     1       6.777  -5.665   0.399  0.00  0.00    +0.162 A 
ATOM     17  C   UNL     1       5.930  -4.769  -0.228  0.00  0.00    +0.058 A 
BRANCH  16  18
ATOM     18  O   UNL     1       7.687  -6.365  -0.330  0.00  0.00    -0.491 OA
ATOM     19  C   UNL     1       7.716  -6.121  -1.738  0.00  0.00    +0.277 C 
ENDBRANCH  16  18
BRANCH  15  20
ATOM     20  O   UNL     1       7.525  -6.738   2.391  0.00  0.00    -0.491 OA
ATOM     21  C   UNL     1       7.387  -6.882   3.806  0.00  0.00    +0.277 C 
ENDBRANCH  15  20
ENDBRANCH   7  12
BRANCH   1  22
ATOM     22  C   UNL     1      -1.566  -2.752   0.429  0.00  0.00    -0.003 C 
BRANCH  22  23
ATOM     23  N   UNL     1      -2.033  -1.680  -0.460  0.00  0.00    +0.386 N 
ATOM     24  H   UNL     1      -1.702  -1.853  -1.397  0.00  0.00    -0.081 HD
BRANCH  23  25
ATOM     25  C   UNL     1      -1.513  -0.390   0.013  0.00  0.00    -0.075 C 
BRANCH  25  27
ATOM     26  C   UNL     1      -0.928   0.952   2.037  0.00  0.00    +0.005 C 
ATOM     27  C   UNL     1      -1.548  -0.356   1.542  0.00  0.00    -0.034 C 
ATOM     28  C   UNL     1      -2.998  -0.447   2.022  0.00  0.00    +0.005 C 
ENDBRANCH  25  27
ENDBRANCH  23  25
BRANCH  23  29
ATOM     29  C   UNL     1      -3.502  -1.647  -0.457  0.00  0.00    -0.044 C 
BRANCH  29  30
ATOM     30  C   UNL     1      -3.991  -0.661  -1.520  0.00  0.00    +0.124 C 
BRANCH  30  31
ATOM     31  O   UNL     1      -3.627  -1.138  -2.816  0.00  0.00    -0.391 OA
ATOM     32  H   UNL     1      -3.999  -2.003  -3.036  0.00  0.00    +0.210 HD
ENDBRANCH  30  31
BRANCH  30  33
ATOM     33  C   UNL     1      -5.514  -0.532  -1.433  0.00  0.00    +0.190 C 
BRANCH  33  34
ATOM     34  O   UNL     1      -5.959   0.473  -2.345  0.00  0.00    -0.365 OA
BRANCH  34  35
ATOM     35  C   UNL     1      -7.374   0.674  -2.344  0.00  0.00    +0.248 C 
BRANCH  35  36
ATOM     36  C   UNL     1      -7.722   1.725  -3.313  0.00  0.00    -0.077 C 
ATOM     37  C   UNL     1      -7.999   2.563  -4.087  0.00  0.00    +0.006 C 
ENDBRANCH  35  36
ENDBRANCH  34  35
ENDBRANCH  33  34
ENDBRANCH  30  33
ENDBRANCH  29  30
ENDBRANCH  23  29
ENDBRANCH  22  23
ENDBRANCH   1  22
TORSDOF 14
