REMARK  Name = ZINC67164802
REMARK  8 active torsions:
REMARK  status: ('A' for Active; 'I' for Inactive)
REMARK    1  A    between atoms: C_1  and  C_2
REMARK    2  A    between atoms: C_2  and  C_30
REMARK    3  A    between atoms: C_7  and  N_11
REMARK    4  A    between atoms: C_12  and  C_14
REMARK    5  A    between atoms: C_14  and  C_15
REMARK    6  A    between atoms: C_15  and  C_16
REMARK    7  A    between atoms: C_16  and  C_17
REMARK    8  A    between atoms: C_17  and  C_18
REMARK                            x       y       z     vdW  Elec       q    Type
REMARK                         _______ _______ _______ _____ _____    ______ ____
ROOT
ATOM      1  N   UNL     1      -0.080  -4.876   3.290  0.00  0.00    -0.285 N 
ATOM      2  C   UNL     1      -0.954  -5.873   3.537  0.00  0.00    +0.217 C 
ATOM      3  O   UNL     1      -2.031  -5.886   2.981  0.00  0.00    -0.275 OA
ATOM      4  H   UNL     1       0.810  -4.905   3.675  0.00  0.00    +0.155 HD
ENDROOT
BRANCH   1  11
ATOM      5  C   UNL     1       0.318   0.717  -1.216  0.00  0.00    +0.104 C 
ATOM      6  C   UNL     1      -0.154  -0.687  -0.833  0.00  0.00    +0.248 C 
ATOM      7  O   UNL     1      -1.321  -0.616   0.008  0.00  0.00    -0.448 OA
ATOM      8  C   UNL     1      -1.210  -1.666   0.874  0.00  0.00    +0.167 A 
ATOM      9  C   UNL     1      -2.146  -2.289   1.685  0.00  0.00    +0.051 A 
ATOM     10  C   UNL     1      -1.772  -3.352   2.484  0.00  0.00    +0.027 A 
ATOM     11  C   UNL     1      -0.458  -3.799   2.478  0.00  0.00    +0.037 A 
ATOM     12  C   UNL     1       0.483  -3.178   1.668  0.00  0.00    +0.072 A 
ATOM     13  C   UNL     1       0.109  -2.112   0.866  0.00  0.00    +0.169 A 
ATOM     14  O   UNL     1       0.825  -1.342  -0.005  0.00  0.00    -0.448 OA
ATOM     15  C   UNL     1      -0.441  -1.516  -2.086  0.00  0.00    +0.104 C 
ENDBRANCH   1  11
BRANCH   2  16
ATOM     16  C   UNL     1      -0.591  -6.970   4.504  0.00  0.00    +0.096 C 
BRANCH  16  17
ATOM     17  C   UNL     1      -1.748  -7.966   4.602  0.00  0.00    +0.009 C 
BRANCH  17  18
ATOM     18  C   UNL     1      -1.380  -9.081   5.584  0.00  0.00    +0.002 C 
BRANCH  18  19
ATOM     19  C   UNL     1      -2.538 -10.076   5.682  0.00  0.00    +0.016 C 
BRANCH  19  20
ATOM     20  C   UNL     1      -2.170 -11.191   6.664  0.00  0.00    +0.069 C 
ATOM     21  C   UNL     1      -3.272 -12.213   6.765  0.00  0.00    +0.108 C 
ATOM     22  C   UNL     1      -3.191 -12.894   8.167  0.00  0.00    +0.105 C 
ATOM     23  C   UNL     1      -3.340 -11.759   9.178  0.00  0.00    +0.093 C 
ATOM     24  S   UNL     1      -2.125 -10.560   8.406  0.00  0.00    -0.154 S 
ATOM     25  N   UNL     1      -4.220 -13.896   8.000  0.00  0.00    -0.294 N 
ATOM     26  C   UNL     1      -4.182 -14.240   6.677  0.00  0.00    +0.300 C 
ATOM     27  O   UNL     1      -4.730 -15.225   6.222  0.00  0.00    -0.253 OA
ATOM     28  N   UNL     1      -3.449 -13.367   5.934  0.00  0.00    -0.294 N 
ATOM     29  H   UNL     1      -4.813 -14.248   8.682  0.00  0.00    +0.151 HD
ATOM     30  H   UNL     1      -3.122 -13.499   5.030  0.00  0.00    +0.151 HD
ENDBRANCH  19  20
ENDBRANCH  18  19
ENDBRANCH  17  18
ENDBRANCH  16  17
ENDBRANCH   2  16
TORSDOF 6
