REMARK  Name = ZINC20912133
REMARK  14 active torsions:
REMARK  status: ('A' for Active; 'I' for Inactive)
REMARK    1  A    between atoms: C_1  and  C_2
REMARK    2  A    between atoms: C_3  and  C_11
REMARK    3  A    between atoms: C_4  and  C_10
REMARK    4  A    between atoms: N_5  and  C_7
REMARK    5  A    between atoms: C_7  and  C_8
REMARK    6  A    between atoms: C_7  and  C_9
REMARK    7  A    between atoms: N_12  and  N_13
REMARK    8  A    between atoms: C_17  and  S_20
REMARK    9  A    between atoms: N_18  and  N_19
REMARK   10  A    between atoms: S_20  and  C_21
REMARK   11  A    between atoms: C_21  and  C_22
REMARK   12  A    between atoms: C_22  and  C_23
REMARK   13  A    between atoms: N_25  and  C_26
REMARK   14  A    between atoms: C_29  and  C_32
REMARK                            x       y       z     vdW  Elec       q    Type
REMARK                         _______ _______ _______ _____ _____    ______ ____
ROOT
ATOM      1  N   UNL     1      -1.150   2.162   0.026  0.00  0.00    -0.204 N 
ATOM      2  C   UNL     1      -0.017   1.362   0.015  0.00  0.00    +0.254 A 
ATOM      3  N   UNL     1       1.224   1.784  -0.004  0.00  0.00    -0.109 NA
ATOM      4  N   UNL     1       2.063   0.662  -0.016  0.00  0.00    -0.119 NA
ATOM      5  C   UNL     1       1.307  -0.409  -0.005  0.00  0.00    +0.210 A 
ATOM      6  N   UNL     1       0.002  -0.005   0.014  0.00  0.00    -0.211 N 
ATOM      7  H   UNL     1      -2.149   1.701   0.037  0.00  0.00    +0.177 HD
ENDROOT
BRANCH   6   8
ATOM      8  N   UNL     1      -1.092  -0.823   0.031  0.00  0.00    -0.294 N 
ATOM      9  H   UNL     1      -0.962  -1.915   0.029  0.00  0.00    +0.163 HD
ATOM     10  H   UNL     1      -2.103  -0.389   0.046  0.00  0.00    +0.163 HD
ENDBRANCH   6   8
BRANCH   1  12
ATOM     11  C   UNL     1      -2.083   4.306   0.036  0.00  0.00    +0.141 C 
ATOM     12  N   UNL     1      -1.023   3.557   0.025  0.00  0.00    -0.187 NA
BRANCH  11  15
ATOM     13  C   UNL     1       0.647   5.919   0.009  0.00  0.00    +0.068 C 
ATOM     14  C   UNL     1      -0.741   6.506   0.022  0.00  0.00    +0.069 A 
ATOM     15  C   UNL     1      -1.949   5.776   0.035  0.00  0.00    +0.038 A 
ATOM     16  C   UNL     1      -2.980   6.690   0.040  0.00  0.00    +0.045 A 
ATOM     17  N   UNL     1      -2.427   7.920   0.040  0.00  0.00    -0.265 N 
ATOM     18  N   UNL     1      -1.035   7.778   0.025  0.00  0.00    -0.175 NA
ATOM     19  C   UNL     1      -4.453   6.374   0.049  0.00  0.00    +0.066 C 
BRANCH  17  20
ATOM     20  C   UNL     1      -3.159   9.189   0.047  0.00  0.00    +0.101 C 
ATOM     21  C   UNL     1      -2.776   9.992   1.291  0.00  0.00    +0.032 C 
ATOM     22  C   UNL     1      -2.803   9.991  -1.207  0.00  0.00    +0.032 C 
ENDBRANCH  17  20
ENDBRANCH  11  15
ENDBRANCH   1  12
BRANCH   5  23
ATOM     23  S   UNL     1       1.874  -2.077  -0.014  0.00  0.00    -0.084 S 
BRANCH  23  24
ATOM     24  C   UNL     1       3.682  -1.926  -0.041  0.00  0.00    +0.086 C 
BRANCH  24  25
ATOM     25  C   UNL     1       4.310  -3.321  -0.050  0.00  0.00    +0.107 C 
BRANCH  25  26
ATOM     26  C   UNL     1       5.811  -3.195  -0.072  0.00  0.00    +0.218 C 
ATOM     27  O   UNL     1       6.328  -2.098  -0.080  0.00  0.00    -0.275 OA
ATOM     28  N   UNL     1       6.580  -4.302  -0.084  0.00  0.00    -0.285 N 
ATOM     29  H   UNL     1       6.115  -5.295  -0.001  0.00  0.00    +0.155 HD
BRANCH  28  30
ATOM     30  C   UNL     1       7.970  -4.188  -0.202  0.00  0.00    +0.033 A 
ATOM     31  C   UNL     1       8.690  -5.144  -0.906  0.00  0.00    +0.024 A 
ATOM     32  C   UNL     1      10.060  -5.026  -1.026  0.00  0.00    +0.014 A 
ATOM     33  C   UNL     1      10.718  -3.961  -0.436  0.00  0.00    +0.055 A 
ATOM     34  C   UNL     1      10.005  -3.010   0.270  0.00  0.00    +0.014 A 
ATOM     35  C   UNL     1       8.633  -3.120   0.389  0.00  0.00    +0.024 A 
BRANCH  33  36
ATOM     36  C   UNL     1      12.214  -3.838  -0.563  0.00  0.00    +0.417 C 
ATOM     37  F   UNL     1      12.829  -4.505   0.502  0.00  0.00    -0.166 F 
ATOM     38  F   UNL     1      12.628  -4.408  -1.771  0.00  0.00    -0.166 F 
ATOM     39  F   UNL     1      12.575  -2.487  -0.537  0.00  0.00    -0.166 F 
ENDBRANCH  33  36
ENDBRANCH  28  30
ENDBRANCH  25  26
ENDBRANCH  24  25
ENDBRANCH  23  24
ENDBRANCH   5  23
TORSDOF 10
