REMARK  Name = ZINC36316107
REMARK  19 active torsions:
REMARK  status: ('A' for Active; 'I' for Inactive)
REMARK    1  A    between atoms: C_1  and  C_2
REMARK    2  A    between atoms: C_2  and  C_3
REMARK    3  A    between atoms: C_2  and  C_4
REMARK    4  A    between atoms: C_4  and  N_5
REMARK    5  A    between atoms: N_5  and  C_6
REMARK    6  A    between atoms: N_5  and  C_28
REMARK    7  A    between atoms: C_6  and  C_7
REMARK    8  A    between atoms: C_8  and  C_22
REMARK    9  A    between atoms: N_10  and  C_21
REMARK   10  A    between atoms: C_11  and  O_12
REMARK   11  A    between atoms: O_12  and  C_13
REMARK   12  A    between atoms: C_28  and  C_29
REMARK   13  A    between atoms: C_29  and  C_31
REMARK   14  A    between atoms: C_29  and  O_37
REMARK   15  A    between atoms: C_31  and  O_32
REMARK   16  A    between atoms: O_32  and  C_33
REMARK   17  A    between atoms: C_33  and  C_34
REMARK   18  A    between atoms: C_34  and  C_35
REMARK   19  A    between atoms: C_34  and  C_36
REMARK                            x       y       z     vdW  Elec       q    Type
REMARK                         _______ _______ _______ _____ _____    ______ ____
ROOT
ATOM      1  C   UNL     1      -1.704  -1.108   2.174  0.00  0.00    +0.025 A 
ATOM      2  C   UNL     1      -1.018  -0.573   3.281  0.00  0.00    +0.098 A 
ATOM      3  N   UNL     1      -1.911  -0.185   4.167  0.00  0.00    -0.168 NA
ATOM      4  N   UNL     1      -3.186  -0.458   3.656  0.00  0.00    -0.235 N 
ATOM      5  C   UNL     1      -3.035  -1.020   2.429  0.00  0.00    +0.221 A 
ATOM      6  C   UNL     1      -4.459  -0.182   4.325  0.00  0.00    +0.176 C 
ENDROOT
BRANCH   2   7
ATOM      7  C   UNL     1       0.455  -0.466   3.425  0.00  0.00    +0.002 A 
ATOM      8  C   UNL     1       1.272  -1.533   3.059  0.00  0.00    +0.010 A 
ATOM      9  C   UNL     1       2.642  -1.428   3.194  0.00  0.00    +0.001 A 
ATOM     10  C   UNL     1       3.203  -0.266   3.693  0.00  0.00    +0.000 A 
ATOM     11  C   UNL     1       2.396   0.796   4.058  0.00  0.00    +0.001 A 
ATOM     12  C   UNL     1       1.026   0.704   3.921  0.00  0.00    +0.010 A 
ENDBRANCH   2   7
BRANCH   1  13
ATOM     13  C   UNL     1      -1.073  -1.671   0.927  0.00  0.00    -0.035 C 
BRANCH  13  14
ATOM     14  N   UNL     1      -1.271  -0.735  -0.187  0.00  0.00    +0.384 N 
ATOM     15  H   UNL     1      -0.893  -1.134  -1.033  0.00  0.00    -0.081 HD
BRANCH  14  16
ATOM     16  C   UNL     1      -0.584   0.529   0.107  0.00  0.00    -0.075 C 
BRANCH  16  18
ATOM     17  C   UNL     1       1.448   1.901  -0.379  0.00  0.00    +0.005 C 
ATOM     18  C   UNL     1       0.791   0.531  -0.565  0.00  0.00    -0.034 C 
ATOM     19  C   UNL     1       1.671  -0.547   0.071  0.00  0.00    +0.005 C 
ENDBRANCH  16  18
ENDBRANCH  14  16
BRANCH  14  20
ATOM     20  C   UNL     1      -2.707  -0.481  -0.365  0.00  0.00    -0.044 C 
BRANCH  20  21
ATOM     21  C   UNL     1      -2.924   0.363  -1.623  0.00  0.00    +0.124 C 
BRANCH  21  22
ATOM     22  O   UNL     1      -2.527  -0.386  -2.773  0.00  0.00    -0.391 OA
ATOM     23  H   UNL     1      -3.018  -1.210  -2.895  0.00  0.00    +0.210 HD
ENDBRANCH  21  22
BRANCH  21  24
ATOM     24  C   UNL     1      -4.405   0.732  -1.740  0.00  0.00    +0.189 C 
BRANCH  24  25
ATOM     25  O   UNL     1      -4.589   1.615  -2.848  0.00  0.00    -0.377 OA
BRANCH  25  26
ATOM     26  C   UNL     1      -5.944   2.023  -3.046  0.00  0.00    +0.163 C 
BRANCH  26  27
ATOM     27  C   UNL     1      -6.022   2.962  -4.252  0.00  0.00    +0.009 C 
ATOM     28  C   UNL     1      -5.640   2.196  -5.520  0.00  0.00    +0.009 C 
ATOM     29  C   UNL     1      -7.449   3.497  -4.390  0.00  0.00    +0.009 C 
ENDBRANCH  26  27
ENDBRANCH  25  26
ENDBRANCH  24  25
ENDBRANCH  21  24
ENDBRANCH  20  21
ENDBRANCH  14  20
ENDBRANCH  13  14
ENDBRANCH   1  13
BRANCH   5  30
ATOM     30  O   UNL     1      -4.035  -1.424   1.605  0.00  0.00    -0.435 OA
BRANCH  30  31
ATOM     31  C   UNL     1      -4.555  -2.666   1.793  0.00  0.00    +0.166 A 
ATOM     32  C   UNL     1      -4.136  -3.439   2.865  0.00  0.00    +0.052 A 
ATOM     33  C   UNL     1      -4.665  -4.701   3.055  0.00  0.00    +0.042 A 
ATOM     34  C   UNL     1      -5.614  -5.195   2.176  0.00  0.00    +0.126 A 
ATOM     35  C   UNL     1      -6.035  -4.426   1.105  0.00  0.00    +0.080 A 
ATOM     36  C   UNL     1      -5.511  -3.160   0.914  0.00  0.00    +0.168 A 
ATOM     37  F   UNL     1      -5.926  -2.406  -0.128  0.00  0.00    -0.202 F 
ATOM     38  F   UNL     1      -6.129  -6.430   2.364  0.00  0.00    -0.205 F 
ENDBRANCH  30  31
ENDBRANCH   5  30
TORSDOF 14
