REMARK  Name = ZINC20672606
REMARK  4 active torsions:
REMARK  status: ('A' for Active; 'I' for Inactive)
REMARK    1  A    between atoms: C_1  and  C_2
REMARK    2  A    between atoms: C_3  and  C_22
REMARK    3  A    between atoms: C_4  and  C_15
REMARK    4  A    between atoms: C_22  and  C_24
REMARK                            x       y       z     vdW  Elec       q    Type
REMARK                         _______ _______ _______ _____ _____    ______ ____
ROOT
ATOM      1  C   UNL     1       0.146   1.464   0.018  0.00  0.00    +0.061 C 
ATOM      2  C   UNL     1       0.079  -0.042   0.043  0.00  0.00    +0.016 C 
ATOM      3  C   UNL     1      -1.127  -0.639   0.009  0.00  0.00    +0.039 C 
ATOM      4  C   UNL     1      -1.308  -2.132   0.041  0.00  0.00    +0.157 C 
ATOM      5  N   UNL     1      -0.020  -2.787  -0.193  0.00  0.00    -0.300 N 
ATOM      6  C   UNL     1       0.256  -4.093  -0.475  0.00  0.00    +0.071 A 
ATOM      7  C   UNL     1      -0.549  -5.214  -0.642  0.00  0.00    +0.028 A 
ATOM      8  C   UNL     1       0.087  -6.411  -0.928  0.00  0.00    +0.002 A 
ATOM      9  C   UNL     1       1.464  -6.501  -1.045  0.00  0.00    +0.002 A 
ATOM     10  C   UNL     1       2.287  -5.401  -0.884  0.00  0.00    +0.030 A 
ATOM     11  C   UNL     1       1.666  -4.180  -0.595  0.00  0.00    +0.091 A 
ATOM     12  N   UNL     1       2.163  -2.945  -0.387  0.00  0.00    -0.214 NA
ATOM     13  C   UNL     1       1.182  -2.116  -0.153  0.00  0.00    +0.202 A 
ATOM     14  N   UNL     1       1.246  -0.754   0.096  0.00  0.00    -0.288 N 
ATOM     15  H   UNL     1       2.090  -0.322   0.303  0.00  0.00    +0.155 HD
ENDROOT
BRANCH   4  16
ATOM     16  C   UNL     1      -1.844  -2.544   1.387  0.00  0.00    -0.002 A 
ATOM     17  C   UNL     1      -1.192  -2.149   2.541  0.00  0.00    +0.007 A 
ATOM     18  C   UNL     1      -1.684  -2.526   3.776  0.00  0.00    +0.000 A 
ATOM     19  C   UNL     1      -2.827  -3.299   3.859  0.00  0.00    +0.001 A 
ATOM     20  C   UNL     1      -3.479  -3.695   2.707  0.00  0.00    +0.020 A 
ATOM     21  C   UNL     1      -2.991  -3.312   1.470  0.00  0.00    +0.046 A 
ATOM     22 CL   UNL     1      -3.813  -3.803   0.022  0.00  0.00    -0.083 Cl
ENDBRANCH   4  16
BRANCH   3  23
ATOM     23  C   UNL     1      -2.271   0.171  -0.061  0.00  0.00    +0.160 C 
ATOM     24  O   UNL     1      -2.167   1.379   0.024  0.00  0.00    -0.293 OA
ATOM     25  C   UNL     1      -3.629  -0.457  -0.240  0.00  0.00    +0.091 C 
ENDBRANCH   3  23
TORSDOF 2
