REMARK  Name = ZINC27117696
REMARK  5 active torsions:
REMARK  status: ('A' for Active; 'I' for Inactive)
REMARK    1  A    between atoms: C_9  and  C_11
REMARK    2  A    between atoms: C_11  and  S_12
REMARK    3  A    between atoms: S_12  and  C_13
REMARK    4  A    between atoms: C_16  and  C_19
REMARK    5  A    between atoms: N_17  and  N_18
REMARK                            x       y       z     vdW  Elec       q    Type
REMARK                         _______ _______ _______ _____ _____    ______ ____
ROOT
ATOM      1  C   UNL     1       0.119   0.987  -2.724  0.00  0.00    +0.209 A 
ATOM      2  N   UNL     1       1.190   0.247  -2.550  0.00  0.00    -0.121 NA
ATOM      3  N   UNL     1       1.677  -0.091  -3.690  0.00  0.00    -0.132 NA
ATOM      4  C   UNL     1       0.953   0.408  -4.651  0.00  0.00    +0.154 A 
ATOM      5  N   UNL     1      -0.069   1.107  -4.071  0.00  0.00    -0.228 N 
ENDROOT
BRANCH   4   6
ATOM      6  C   UNL     1       1.193   0.240  -6.130  0.00  0.00    +0.059 C 
ATOM      7  C   UNL     1       1.147  -1.247  -6.488  0.00  0.00    +0.011 C 
ATOM      8  C   UNL     1       1.391  -1.417  -7.989  0.00  0.00    +0.001 C 
ATOM      9  C   UNL     1       2.764  -0.847  -8.350  0.00  0.00    +0.000 C 
ATOM     10  C   UNL     1       2.810   0.639  -7.992  0.00  0.00    +0.001 C 
ATOM     11  C   UNL     1       2.566   0.810  -6.491  0.00  0.00    +0.011 C 
ENDBRANCH   4   6
BRANCH   5  12
ATOM     12  N   UNL     1      -1.069   1.788  -4.706  0.00  0.00    -0.295 N 
ATOM     13  H   UNL     1      -1.108   1.808  -5.805  0.00  0.00    +0.163 HD
ATOM     14  H   UNL     1      -1.834   2.315  -4.119  0.00  0.00    +0.163 HD
ENDBRANCH   5  12
BRANCH   1  15
ATOM     15  S   UNL     1      -0.889   1.685  -1.458  0.00  0.00    -0.075 S 
BRANCH  15  16
ATOM     16  C   UNL     1      -0.014   1.084   0.008  0.00  0.00    +0.173 C 
BRANCH  16  25
ATOM     17  C   UNL     1      -1.674  -1.362   2.721  0.00  0.00    +0.000 C 
ATOM     18  C   UNL     1      -0.234  -1.864   2.928  0.00  0.00    +0.002 C 
ATOM     19  C   UNL     1       0.600  -0.775   3.604  0.00  0.00    +0.019 C 
ATOM     20  C   UNL     1       0.890   0.344   2.595  0.00  0.00    +0.108 C 
ATOM     21  N   UNL     1      -0.302   1.164   2.463  0.00  0.00    -0.301 N 
ATOM     22  C   UNL     1      -1.046   1.549   3.671  0.00  0.00    +0.108 C 
ATOM     23  C   UNL     1      -2.398   0.836   3.666  0.00  0.00    +0.019 C 
ATOM     24  C   UNL     1      -2.185  -0.656   3.972  0.00  0.00    +0.002 C 
ATOM     25  C   UNL     1      -0.718   1.572   1.248  0.00  0.00    +0.226 C 
ATOM     26  O   UNL     1      -1.659   2.331   1.152  0.00  0.00    -0.275 OA
ENDBRANCH  16  25
ENDBRANCH  15  16
ENDBRANCH   1  15
TORSDOF 5
