REMARK  Name = ZINC34740235
REMARK  8 active torsions:
REMARK  status: ('A' for Active; 'I' for Inactive)
REMARK    1  A    between atoms: C_1  and  C_2
REMARK    2  A    between atoms: C_5  and  C_8
REMARK    3  A    between atoms: C_13  and  C_15
REMARK    4  A    between atoms: C_15  and  N_16
REMARK    5  A    between atoms: N_16  and  C_17
REMARK    6  A    between atoms: C_23  and  C_25
REMARK    7  A    between atoms: C_25  and  C_26
REMARK    8  A    between atoms: C_25  and  C_27
REMARK                            x       y       z     vdW  Elec       q    Type
REMARK                         _______ _______ _______ _____ _____    ______ ____
ROOT
ATOM      1  C   UNL     1       0.936  -5.791   0.117  0.00  0.00    +0.005 C 
ATOM      2  C   UNL     1       1.942  -6.894   0.533  0.00  0.00    -0.074 C 
ATOM      3  N   UNL     1       1.097  -8.113   0.609  0.00  0.00    +0.380 N 
ATOM      4  C   UNL     1      -0.185  -7.679   1.206  0.00  0.00    -0.077 C 
ATOM      5  C   UNL     1      -0.346  -6.177   0.891  0.00  0.00    -0.005 C 
ATOM      6  H   UNL     1       0.941  -8.487  -0.315  0.00  0.00    -0.086 HD
ATOM      7  H   UNL     1       1.538  -8.805   1.196  0.00  0.00    -0.086 HD
ENDROOT
BRANCH   1  12
ATOM      8  C   UNL     1       2.819  -0.579   1.756  0.00  0.00    +0.044 C 
ATOM      9  C   UNL     1       2.328  -1.938   1.329  0.00  0.00    -0.050 A 
ATOM     10  C   UNL     1       2.030  -2.179   0.001  0.00  0.00    +0.003 A 
ATOM     11  C   UNL     1       1.579  -3.426  -0.392  0.00  0.00    +0.004 A 
ATOM     12  C   UNL     1       1.428  -4.432   0.544  0.00  0.00    -0.046 A 
ATOM     13  C   UNL     1       1.727  -4.191   1.873  0.00  0.00    +0.004 A 
ATOM     14  C   UNL     1       2.181  -2.946   2.264  0.00  0.00    +0.003 A 
ENDBRANCH   1  12
BRANCH   5  15
ATOM     15  C   UNL     1      -1.582  -5.942   0.021  0.00  0.00    +0.110 C 
BRANCH  15  16
ATOM     16  N   UNL     1      -2.790  -6.192   0.811  0.00  0.00    -0.298 N 
ATOM     17  C   UNL     1      -3.408  -7.388   0.738  0.00  0.00    +0.218 C 
ATOM     18  O   UNL     1      -3.005  -8.232  -0.033  0.00  0.00    -0.275 OA
BRANCH  16  19
ATOM     19  C   UNL     1      -3.326  -5.143   1.682  0.00  0.00    +0.076 C 
ATOM     20  C   UNL     1      -4.823  -4.974   1.415  0.00  0.00    +0.022 C 
ATOM     21  C   UNL     1      -5.383  -3.879   2.325  0.00  0.00    +0.002 C 
ATOM     22  C   UNL     1      -5.166  -4.270   3.788  0.00  0.00    +0.000 C 
ATOM     23  C   UNL     1      -3.669  -4.438   4.054  0.00  0.00    +0.002 C 
ATOM     24  C   UNL     1      -3.109  -5.534   3.145  0.00  0.00    +0.022 C 
ENDBRANCH  16  19
BRANCH  17  25
ATOM     25  C   UNL     1      -4.601  -7.675   1.613  0.00  0.00    +0.069 C 
ATOM     26  C   UNL     1      -5.885  -7.499   0.799  0.00  0.00    +0.017 C 
ATOM     27  C   UNL     1      -4.519  -9.111   2.133  0.00  0.00    +0.017 C 
ENDBRANCH  17  25
ENDBRANCH  15  16
ENDBRANCH   5  15
TORSDOF 5
