REMARK  Name = ZINC24882696
REMARK  9 active torsions:
REMARK  status: ('A' for Active; 'I' for Inactive)
REMARK    1  A    between atoms: C_1  and  C_2
REMARK    2  A    between atoms: N_13  and  C_30
REMARK    3  A    between atoms: C_14  and  S_16
REMARK    4  A    between atoms: S_16  and  C_17
REMARK    5  A    between atoms: C_17  and  C_19
REMARK    6  A    between atoms: C_17  and  C_20
REMARK    7  A    between atoms: N_26  and  C_27
REMARK    8  A    between atoms: N_26  and  C_28
REMARK    9  A    between atoms: C_30  and  C_31
REMARK                            x       y       z     vdW  Elec       q    Type
REMARK                         _______ _______ _______ _____ _____    ______ ____
ROOT
ATOM      1  C   UNL     1       4.489  -3.650   8.271  0.00  0.00    +0.008 C 
ATOM      2  C   UNL     1       4.338  -3.030   6.881  0.00  0.00    -0.009 C 
ATOM      3  C   UNL     1       5.026  -1.662   6.847  0.00  0.00    +0.008 C 
ATOM      4  C   UNL     1       5.096  -1.151   5.407  0.00  0.00    +0.037 C 
ATOM      5  C   UNL     1       3.697  -1.199   4.800  0.00  0.00    -0.023 A 
ATOM      6  C   UNL     1       2.733  -1.965   5.349  0.00  0.00    -0.004 A 
ATOM      7  S   UNL     1       1.306  -1.711   4.329  0.00  0.00    -0.073 S 
ATOM      8  C   UNL     1       2.011  -0.572   3.164  0.00  0.00    +0.117 A 
ATOM      9  C   UNL     1       3.336  -0.429   3.608  0.00  0.00    +0.076 A 
ATOM     10  C   UNL     1       4.160   0.453   2.839  0.00  0.00    +0.263 A 
ATOM     11  O   UNL     1       5.324   0.639   3.150  0.00  0.00    -0.267 OA
ATOM     12  N   UNL     1       3.633   1.070   1.766  0.00  0.00    -0.283 N 
ATOM     13  C   UNL     1       2.330   0.877   1.406  0.00  0.00    +0.174 A 
ATOM     14  N   UNL     1       1.550   0.070   2.097  0.00  0.00    -0.216 NA
ATOM     15  C   UNL     1       2.848  -2.840   6.560  0.00  0.00    +0.046 C 
ENDROOT
BRANCH  13  16
ATOM     16  S   UNL     1       1.685   1.712  -0.005  0.00  0.00    -0.077 S 
BRANCH  16  17
ATOM     17  C   UNL     1      -0.013   1.086   0.008  0.00  0.00    +0.119 C 
ATOM     18  C   UNL     1      -0.729   1.579   1.267  0.00  0.00    +0.028 C 
BRANCH  17  19
ATOM     19  C   UNL     1      -0.742   1.585  -1.213  0.00  0.00    +0.149 A 
ATOM     20  N   UNL     1      -0.632   2.852  -1.574  0.00  0.00    -0.198 NA
ATOM     21  C   UNL     1      -1.274   3.296  -2.652  0.00  0.00    +0.217 A 
ATOM     22  N   UNL     1      -2.026   2.465  -3.365  0.00  0.00    -0.181 NA
ATOM     23  C   UNL     1      -2.134   1.192  -2.999  0.00  0.00    +0.222 A 
ATOM     24  N   UNL     1      -1.484   0.754  -1.923  0.00  0.00    -0.198 NA
ATOM     25  N   UNL     1      -2.913   0.325  -3.736  0.00  0.00    -0.306 N 
ATOM     26  C   UNL     1      -3.623   0.807  -4.924  0.00  0.00    +0.132 C 
ATOM     27  C   UNL     1      -3.032  -1.078  -3.332  0.00  0.00    +0.132 C 
ATOM     28  N   UNL     1      -1.159   4.619  -3.028  0.00  0.00    -0.327 N 
ATOM     29  H   UNL     1      -1.689   4.985  -3.919  0.00  0.00    +0.145 HD
ATOM     30  H   UNL     1      -0.536   5.307  -2.437  0.00  0.00    +0.145 HD
ENDBRANCH  17  19
ENDBRANCH  16  17
ENDBRANCH  13  16
BRANCH  12  31
ATOM     31  C   UNL     1       4.472   1.970   0.970  0.00  0.00    +0.154 C 
BRANCH  31  32
ATOM     32  C   UNL     1       4.371   3.369   1.521  0.00  0.00    -0.013 C 
ATOM     33  C   UNL     1       5.456   4.017   1.867  0.00  0.00    +0.005 C 
ENDBRANCH  31  32
ENDBRANCH  12  31
TORSDOF 5
