REMARK  Name = ZINC57683718
REMARK  6 active torsions:
REMARK  status: ('A' for Active; 'I' for Inactive)
REMARK    1  A    between atoms: C_3  and  C_10
REMARK    2  A    between atoms: C_5  and  N_7
REMARK    3  A    between atoms: C_12  and  N_16
REMARK    4  A    between atoms: C_17  and  C_19
REMARK    5  A    between atoms: C_23  and  O_25
REMARK    6  A    between atoms: O_25  and  C_26
REMARK                            x       y       z     vdW  Elec       q    Type
REMARK                         _______ _______ _______ _____ _____    ______ ____
ROOT
ATOM      1  C   UNL     1       3.660   2.164  -0.022  0.00  0.00    +0.094 A 
ATOM      2  C   UNL     1       3.793   3.561   0.089  0.00  0.00    +0.073 A 
ATOM      3  C   UNL     1       5.118   3.858   0.039  0.00  0.00    +0.121 A 
ATOM      4  N   UNL     1       5.798   2.689  -0.098  0.00  0.00    -0.263 N 
ATOM      5  H   UNL     1       6.762   2.594  -0.161  0.00  0.00    +0.190 HD
ATOM      6  N   UNL     1       4.865   1.645  -0.129  0.00  0.00    -0.172 NA
ENDROOT
BRANCH   1   9
ATOM      7  C   UNL     1      -0.017   1.379   0.010  0.00  0.00    +0.003 A 
ATOM      8  C   UNL     1       1.168   2.088   0.002  0.00  0.00    +0.010 A 
ATOM      9  C   UNL     1       2.384   1.408  -0.013  0.00  0.00    +0.004 A 
ATOM     10  C   UNL     1       2.397   0.014  -0.021  0.00  0.00    +0.042 A 
ATOM     11  C   UNL     1       1.206  -0.684  -0.013  0.00  0.00    +0.127 A 
ATOM     12  C   UNL     1       0.002  -0.004   0.002  0.00  0.00    +0.033 A 
BRANCH  11  13
ATOM     13  N   UNL     1       1.219  -2.165  -0.021  0.00  0.00    +0.056 N 
ATOM     14  O   UNL     1       2.271  -2.760  -0.035  0.00  0.00    -0.126 OA
ATOM     15  O   UNL     1       0.177  -2.778  -0.015  0.00  0.00    -0.126 OA
ENDBRANCH  11  13
ENDBRANCH   1   9
BRANCH   3  16
ATOM     16  N   UNL     1       5.679   5.131   0.115  0.00  0.00    -0.267 N 
ATOM     17  C   UNL     1       4.884   6.211   0.251  0.00  0.00    +0.249 C 
ATOM     18  O   UNL     1       3.678   6.074   0.307  0.00  0.00    -0.270 OA
ATOM     19  H   UNL     1       6.642   5.241   0.070  0.00  0.00    +0.157 HD
BRANCH  17  20
ATOM     20  C   UNL     1       5.479   7.562   0.331  0.00  0.00    +0.041 A 
ATOM     21  C   UNL     1       6.864   7.723   0.260  0.00  0.00    +0.013 A 
ATOM     22  C   UNL     1       7.416   8.985   0.335  0.00  0.00    +0.004 A 
ATOM     23  C   UNL     1       6.601  10.093   0.480  0.00  0.00    +0.046 A 
ATOM     24  C   UNL     1       5.223   9.943   0.551  0.00  0.00    +0.128 A 
ATOM     25  C   UNL     1       4.658   8.681   0.472  0.00  0.00    +0.059 A 
BRANCH  24  26
ATOM     26  O   UNL     1       4.428  11.036   0.694  0.00  0.00    -0.434 OA
BRANCH  26  27
ATOM     27  C   UNL     1       5.077  12.306   0.764  0.00  0.00    +0.541 C 
ATOM     28  F   UNL     1       5.944  12.327   1.861  0.00  0.00    -0.166 F 
ATOM     29  F   UNL     1       5.806  12.523  -0.411  0.00  0.00    -0.166 F 
ENDBRANCH  26  27
ENDBRANCH  24  26
ENDBRANCH  17  20
ENDBRANCH   3  16
TORSDOF 6
