REMARK  Name = ZINC47100037
REMARK  10 active torsions:
REMARK  status: ('A' for Active; 'I' for Inactive)
REMARK    1  A    between atoms: C_1  and  C_2
REMARK    2  A    between atoms: C_2  and  C_3
REMARK    3  A    between atoms: C_3  and  O_4
REMARK    4  A    between atoms: O_4  and  C_5
REMARK    5  A    between atoms: C_5  and  C_6
REMARK    6  A    between atoms: C_11  and  C_12
REMARK    7  A    between atoms: C_12  and  N_13
REMARK    8  A    between atoms: N_16  and  N_17
REMARK    9  A    between atoms: N_20  and  C_21
REMARK   10  A    between atoms: C_26  and  C_27
REMARK                            x       y       z     vdW  Elec       q    Type
REMARK                         _______ _______ _______ _____ _____    ______ ____
ROOT
ATOM      1  N   UNL     1       3.908  -3.622  -4.098  0.00  0.00    -0.294 N 
ATOM      2  C   UNL     1       4.692  -3.001  -5.002  0.00  0.00    +0.316 C 
ATOM      3  O   UNL     1       4.279  -2.798  -6.127  0.00  0.00    -0.251 OA
ATOM      4  N   UNL     1       5.934  -2.605  -4.658  0.00  0.00    -0.217 N 
ATOM      5  H   UNL     1       4.238  -3.784  -3.200  0.00  0.00    +0.151 HD
ATOM      6  H   UNL     1       6.498  -2.158  -5.309  0.00  0.00    +0.174 HD
ENDROOT
BRANCH   4   7
ATOM      7  N   UNL     1       6.410  -2.839  -3.361  0.00  0.00    -0.217 N 
ATOM      8  C   UNL     1       7.652  -2.443  -3.018  0.00  0.00    +0.320 C 
ATOM      9  O   UNL     1       8.065  -2.646  -1.893  0.00  0.00    -0.251 OA
ATOM     10  N   UNL     1       8.435  -1.822  -3.922  0.00  0.00    -0.268 N 
ATOM     11  H   UNL     1       5.846  -3.286  -2.711  0.00  0.00    +0.174 HD
ATOM     12  H   UNL     1       8.138  -1.733  -4.841  0.00  0.00    +0.156 HD
BRANCH  10  13
ATOM     13  C   UNL     1       9.677  -1.306  -3.534  0.00  0.00    +0.038 A 
ATOM     14  C   UNL     1       9.903  -0.957  -2.209  0.00  0.00    +0.023 A 
ATOM     15  C   UNL     1      11.129  -0.449  -1.830  0.00  0.00    +0.002 A 
ATOM     16  C   UNL     1      12.132  -0.286  -2.768  0.00  0.00    +0.000 A 
ATOM     17  C   UNL     1      11.910  -0.632  -4.088  0.00  0.00    +0.005 A 
ATOM     18  C   UNL     1      10.688  -1.147  -4.473  0.00  0.00    -0.029 A 
ATOM     19  C   UNL     1      10.450  -1.531  -5.910  0.00  0.00    +0.045 C 
ENDBRANCH  10  13
ENDBRANCH   4   7
BRANCH   1  20
ATOM     20  C   UNL     1       2.559  -4.052  -4.471  0.00  0.00    +0.141 C 
BRANCH  20  26
ATOM     21  C   UNL     1       1.338  -3.943  -2.289  0.00  0.00    -0.017 A 
ATOM     22  C   UNL     1       0.726  -4.550  -1.208  0.00  0.00    +0.006 A 
ATOM     23  C   UNL     1       0.680  -5.929  -1.125  0.00  0.00    +0.000 A 
ATOM     24  C   UNL     1       1.245  -6.701  -2.124  0.00  0.00    +0.000 A 
ATOM     25  C   UNL     1       1.855  -6.093  -3.205  0.00  0.00    +0.005 A 
ATOM     26  C   UNL     1       1.898  -4.714  -3.290  0.00  0.00    -0.025 A 
BRANCH  21  27
ATOM     27  C   UNL     1       1.388  -2.439  -2.379  0.00  0.00    +0.195 C 
BRANCH  27  28
ATOM     28  O   UNL     1       0.748  -1.872  -1.234  0.00  0.00    -0.375 OA
BRANCH  28  29
ATOM     29  C   UNL     1       0.740  -0.443  -1.222  0.00  0.00    +0.160 C 
BRANCH  29  31
ATOM     30  C   UNL     1       0.025   1.582   0.056  0.00  0.00    +0.006 C 
ATOM     31  C   UNL     1       0.033   0.052   0.042  0.00  0.00    +0.025 C 
ENDBRANCH  29  31
ENDBRANCH  28  29
ENDBRANCH  27  28
ENDBRANCH  21  27
ENDBRANCH  20  26
ENDBRANCH   1  20
TORSDOF 8
