REMARK  Name = ZINC42630293
REMARK  3 active torsions:
REMARK  status: ('A' for Active; 'I' for Inactive)
REMARK    1  A    between atoms: C_3  and  O_8
REMARK    2  A    between atoms: O_8  and  C_9
REMARK    3  A    between atoms: C_9  and  C_11
REMARK                            x       y       z     vdW  Elec       q    Type
REMARK                         _______ _______ _______ _____ _____    ______ ____
ROOT
ATOM      1  C   UNL     1       5.984   2.126   0.175  0.00  0.00    +0.061 A 
ATOM      2  C   UNL     1       6.008   3.525   0.189  0.00  0.00    +0.016 A 
ATOM      3  C   UNL     1       7.208   4.195   0.288  0.00  0.00    +0.017 A 
ATOM      4  C   UNL     1       8.395   3.478   0.373  0.00  0.00    +0.029 A 
ATOM      5  C   UNL     1       8.379   2.081   0.361  0.00  0.00    +0.048 A 
ATOM      6  C   UNL     1       7.180   1.405   0.267  0.00  0.00    +0.039 A 
ATOM      7  N   UNL     1       9.591   1.378   0.453  0.00  0.00    -0.285 N 
ATOM      8  C   UNL     1      10.468   1.666   1.422  0.00  0.00    +0.218 C 
ATOM      9  O   UNL     1      11.583   1.191   1.375  0.00  0.00    -0.275 OA
ATOM     10  C   UNL     1      10.099   2.566   2.564  0.00  0.00    +0.107 C 
ATOM     11  C   UNL     1      10.437   4.028   2.228  0.00  0.00    +0.083 C 
ATOM     12  S   UNL     1       9.941   4.319   0.497  0.00  0.00    -0.123 S 
ATOM     13  H   UNL     1       9.793   0.679  -0.189  0.00  0.00    +0.155 HD
ENDROOT
BRANCH   1  14
ATOM     14  C   UNL     1       4.700   1.413   0.068  0.00  0.00    +0.344 C 
ATOM     15  O   UNL     1       4.679   0.197   0.061  0.00  0.00    -0.245 OA
BRANCH  14  16
ATOM     16  O   UNL     1       3.548   2.107  -0.021  0.00  0.00    -0.422 OA
BRANCH  16  19
ATOM     17  C   UNL     1       0.781   0.079   1.192  0.00  0.00    +0.006 A 
ATOM     18  C   UNL     1       1.969   0.785   1.169  0.00  0.00    +0.046 A 
ATOM     19  C   UNL     1       2.381   1.412   0.003  0.00  0.00    +0.135 A 
ATOM     20  C   UNL     1       1.598   1.330  -1.140  0.00  0.00    +0.084 A 
ATOM     21  C   UNL     1       0.410   0.622  -1.113  0.00  0.00    +0.127 A 
ATOM     22  C   UNL     1       0.002  -0.003   0.054  0.00  0.00    +0.038 A 
ATOM     23  F   UNL     1      -0.353   0.540  -2.225  0.00  0.00    -0.205 F 
ENDBRANCH  16  19
ENDBRANCH  14  16
ENDBRANCH   1  14
TORSDOF 3
