REMARK  Name = ZINC65441377
REMARK  8 active torsions:
REMARK  status: ('A' for Active; 'I' for Inactive)
REMARK    1  A    between atoms: C_1  and  C_2
REMARK    2  A    between atoms: C_2  and  C_3
REMARK    3  A    between atoms: C_2  and  N_4
REMARK    4  A    between atoms: C_7  and  C_9
REMARK    5  A    between atoms: C_9  and  N_10
REMARK    6  A    between atoms: C_20  and  C_26
REMARK    7  A    between atoms: C_26  and  O_28
REMARK    8  A    between atoms: O_28  and  C_29
REMARK                            x       y       z     vdW  Elec       q    Type
REMARK                         _______ _______ _______ _____ _____    ______ ____
ROOT
ATOM      1  N   UNL     1      -3.363  -6.127  -2.432  0.00  0.00    -0.299 N 
ATOM      2  C   UNL     1      -4.357  -5.227  -2.294  0.00  0.00    +0.303 C 
ATOM      3  O   UNL     1      -4.167  -4.202  -1.669  0.00  0.00    -0.253 OA
ATOM      4  N   UNL     1      -5.562  -5.464  -2.849  0.00  0.00    -0.281 N 
ATOM      5  C   UNL     1      -6.625  -4.449  -2.809  0.00  0.00    +0.116 C 
ATOM      6  C   UNL     1      -6.945  -4.001  -4.240  0.00  0.00    +0.072 C 
ATOM      7  C   UNL     1      -7.063  -5.221  -5.122  0.00  0.00    +0.023 A 
ATOM      8  C   UNL     1      -6.574  -6.438  -4.801  0.00  0.00    -0.002 A 
ATOM      9  C   UNL     1      -6.885  -7.328  -5.900  0.00  0.00    +0.005 A 
ATOM     10  C   UNL     1      -6.630  -8.680  -6.125  0.00  0.00    +0.025 A 
ATOM     11  C   UNL     1      -7.093  -9.213  -7.332  0.00  0.00    +0.060 A 
ATOM     12  C   UNL     1      -7.777  -8.425  -8.265  0.00  0.00    +0.017 A 
ATOM     13  C   UNL     1      -8.032  -7.096  -8.054  0.00  0.00    +0.027 A 
ATOM     14  C   UNL     1      -7.580  -6.539  -6.856  0.00  0.00    +0.047 A 
ATOM     15  N   UNL     1      -7.669  -5.277  -6.351  0.00  0.00    -0.358 N 
ATOM     16  H   UNL     1      -8.097  -4.529  -6.796  0.00  0.00    +0.166 HD
ATOM     17  C   UNL     1      -5.849  -6.746  -3.518  0.00  0.00    +0.146 C 
ATOM     18  H   UNL     1      -3.535  -6.977  -2.866  0.00  0.00    +0.150 HD
ENDROOT
BRANCH  11  19
ATOM     19  C   UNL     1      -6.856 -10.638  -7.629  0.00  0.00    +0.339 C 
ATOM     20  O   UNL     1      -6.263 -11.335  -6.829  0.00  0.00    -0.245 OA
BRANCH  19  21
ATOM     21  O   UNL     1      -7.295 -11.167  -8.788  0.00  0.00    -0.464 OA
ATOM     22  C   UNL     1      -7.030 -12.554  -9.009  0.00  0.00    +0.280 C 
ENDBRANCH  19  21
ENDBRANCH  11  19
BRANCH   1  23
ATOM     23  C   UNL     1      -2.023  -5.821  -1.926  0.00  0.00    +0.107 C 
BRANCH  23  27
ATOM     24  N   UNL     1       0.908  -8.063  -1.473  0.00  0.00    +0.381 N 
ATOM     25  C   UNL     1      -0.192  -8.881  -0.919  0.00  0.00    -0.078 C 
ATOM     26  C   UNL     1      -1.512  -8.240  -1.387  0.00  0.00    -0.015 C 
ATOM     27  C   UNL     1      -1.090  -7.000  -2.208  0.00  0.00    -0.012 C 
ATOM     28  C   UNL     1       0.338  -6.707  -1.683  0.00  0.00    -0.074 C 
ATOM     29  H   UNL     1       1.222  -8.448  -2.351  0.00  0.00    -0.081 HD
BRANCH  24  31
ATOM     30  C   UNL     1       2.598  -9.405  -0.314  0.00  0.00    -0.014 C 
ATOM     31  C   UNL     1       2.023  -8.001  -0.519  0.00  0.00    -0.075 C 
ATOM     32  C   UNL     1       3.114  -7.079  -1.068  0.00  0.00    -0.014 C 
ENDBRANCH  24  31
ENDBRANCH  23  27
ENDBRANCH   1  23
TORSDOF 5
