REMARK  Name = ZINC61693361
REMARK  7 active torsions:
REMARK  status: ('A' for Active; 'I' for Inactive)
REMARK    1  A    between atoms: C_1  and  C_2
REMARK    2  A    between atoms: C_2  and  C_3
REMARK    3  A    between atoms: C_2  and  C_4
REMARK    4  A    between atoms: C_4  and  C_6
REMARK    5  A    between atoms: C_4  and  C_10
REMARK    6  A    between atoms: N_7  and  O_8
REMARK    7  A    between atoms: N_12  and  C_13
REMARK                            x       y       z     vdW  Elec       q    Type
REMARK                         _______ _______ _______ _____ _____    ______ ____
ROOT
ATOM      1  C   UNL     1      -1.887  -1.722   0.441  0.00  0.00    +0.228 C 
ATOM      2  O   UNL     1      -2.748  -2.244  -0.235  0.00  0.00    -0.275 OA
ATOM      3  N   UNL     1      -1.169  -2.463   1.308  0.00  0.00    -0.284 N 
ATOM      4  H   UNL     1      -0.468  -2.048   1.836  0.00  0.00    +0.155 HD
ENDROOT
BRANCH   3   5
ATOM      5  C   UNL     1      -1.434  -3.830   1.448  0.00  0.00    +0.053 A 
ATOM      6  C   UNL     1      -2.087  -4.519   0.435  0.00  0.00    +0.040 A 
ATOM      7  C   UNL     1      -2.347  -5.869   0.575  0.00  0.00    +0.020 A 
ATOM      8  C   UNL     1      -1.957  -6.534   1.724  0.00  0.00    +0.017 A 
ATOM      9  C   UNL     1      -1.307  -5.851   2.735  0.00  0.00    +0.023 A 
ATOM     10  C   UNL     1      -1.039  -4.502   2.598  0.00  0.00    +0.062 A 
ATOM     11 CL   UNL     1      -0.216  -3.647   3.865  0.00  0.00    -0.082 Cl
ATOM     12 BR   UNL     1      -3.237  -6.808  -0.804  0.00  0.00    -0.050 Br
ENDBRANCH   3   5
BRANCH   1  13
ATOM     13  C   UNL     1      -1.621  -0.244   0.311  0.00  0.00    +0.144 C 
BRANCH  13  14
ATOM     14  C   UNL     1      -2.845   0.441  -0.238  0.00  0.00    +0.144 C 
ATOM     15  N   UNL     1      -2.947   0.661  -1.507  0.00  0.00    -0.076 NA
ATOM     16  N   UNL     1      -3.855   0.832   0.612  0.00  0.00    -0.343 N 
ATOM     17  H   UNL     1      -3.779   0.666   1.565  0.00  0.00    +0.144 HD
ATOM     18  H   UNL     1      -4.644   1.273   0.258  0.00  0.00    +0.144 HD
BRANCH  15  19
ATOM     19  O   UNL     1      -4.098   1.304  -2.024  0.00  0.00    -0.408 OA
ATOM     20  H   UNL     1      -4.084   1.425  -2.983  0.00  0.00    +0.328 HD
ENDBRANCH  15  19
ENDBRANCH  13  14
BRANCH  13  22
ATOM     21  C   UNL     1      -0.154   1.478  -0.749  0.00  0.00    +0.008 C 
ATOM     22  C   UNL     1      -0.442  -0.020  -0.638  0.00  0.00    +0.002 C 
ATOM     23  C   UNL     1       0.795  -0.738  -0.093  0.00  0.00    +0.008 C 
ENDBRANCH  13  22
ENDBRANCH   1  13
TORSDOF 5
