REMARK  Name = ZINC21793412
REMARK  4 active torsions:
REMARK  status: ('A' for Active; 'I' for Inactive)
REMARK    1  A    between atoms: C_1  and  C_2
REMARK    2  A    between atoms: C_5  and  C_8
REMARK    3  A    between atoms: C_8  and  N_9
REMARK    4  A    between atoms: C_18  and  C_22
REMARK                            x       y       z     vdW  Elec       q    Type
REMARK                         _______ _______ _______ _____ _____    ______ ____
ROOT
ATOM      1  N   UNL     1      -1.007   1.656  -0.805  0.00  0.00    -0.265 N 
ATOM      2  C   UNL     1      -0.594   2.987  -0.940  0.00  0.00    +0.057 A 
ATOM      3  C   UNL     1      -0.615   3.852   0.141  0.00  0.00    +0.025 A 
ATOM      4  C   UNL     1      -0.177   5.155  -0.013  0.00  0.00    +0.002 A 
ATOM      5  C   UNL     1       0.282   5.595  -1.241  0.00  0.00    +0.002 A 
ATOM      6  C   UNL     1       0.296   4.740  -2.327  0.00  0.00    +0.025 A 
ATOM      7  C   UNL     1      -0.152   3.437  -2.185  0.00  0.00    +0.049 A 
ATOM      8  N   UNL     1      -0.183   2.570  -3.283  0.00  0.00    -0.342 N 
ATOM      9  C   UNL     1      -1.478   2.228  -3.873  0.00  0.00    +0.114 C 
ATOM     10  C   UNL     1      -2.499   1.962  -2.765  0.00  0.00    +0.089 C 
ATOM     11  C   UNL     1      -1.877   1.114  -1.687  0.00  0.00    +0.224 C 
ATOM     12  O   UNL     1      -2.161  -0.063  -1.607  0.00  0.00    -0.275 OA
ATOM     13  C   UNL     1      -2.958   3.293  -2.167  0.00  0.00    +0.019 C 
ATOM     14  H   UNL     1       0.742   2.147  -3.704  0.00  0.00    +0.146 HD
ENDROOT
BRANCH   1  15
ATOM     15  C   UNL     1      -0.488   0.842   0.297  0.00  0.00    +0.148 C 
BRANCH  15  20
ATOM     16  C   UNL     1       4.586  -1.462  -1.233  0.00  0.00    +0.044 C 
ATOM     17  C   UNL     1       3.262  -0.861  -0.834  0.00  0.00    -0.050 A 
ATOM     18  C   UNL     1       3.217   0.402  -0.274  0.00  0.00    +0.003 A 
ATOM     19  C   UNL     1       2.004   0.953   0.092  0.00  0.00    +0.005 A 
ATOM     20  C   UNL     1       0.835   0.241  -0.102  0.00  0.00    -0.030 A 
ATOM     21  C   UNL     1       0.880  -1.024  -0.657  0.00  0.00    +0.005 A 
ATOM     22  C   UNL     1       2.094  -1.574  -1.026  0.00  0.00    +0.003 A 
ENDBRANCH  15  20
ENDBRANCH   1  15
TORSDOF 2
