REMARK  Name = ZINC35964832
REMARK  9 active torsions:
REMARK  status: ('A' for Active; 'I' for Inactive)
REMARK    1  A    between atoms: C_1  and  C_2
REMARK    2  A    between atoms: C_2  and  C_3
REMARK    3  A    between atoms: C_2  and  C_4
REMARK    4  A    between atoms: C_4  and  C_5
REMARK    5  A    between atoms: C_5  and  C_7
REMARK    6  A    between atoms: C_5  and  N_13
REMARK    7  A    between atoms: N_9  and  C_10
REMARK    8  A    between atoms: C_19  and  C_26
REMARK    9  A    between atoms: N_24  and  C_25
REMARK                            x       y       z     vdW  Elec       q    Type
REMARK                         _______ _______ _______ _____ _____    ______ ____
ROOT
ATOM      1  N   UNL     1      -1.486  -0.796  -2.418  0.00  0.00    -0.281 N 
ATOM      2  C   UNL     1      -0.835  -0.136  -3.560  0.00  0.00    +0.160 C 
ATOM      3  C   UNL     1      -0.333  -1.268  -4.429  0.00  0.00    +0.042 C 
ATOM      4  C   UNL     1      -0.686  -2.410  -3.804  0.00  0.00    +0.058 C 
ATOM      5  C   UNL     1      -1.368  -2.123  -2.604  0.00  0.00    +0.247 C 
ATOM      6  O   UNL     1      -1.797  -2.966  -1.838  0.00  0.00    -0.270 OA
ATOM      7  C   UNL     1      -0.304  -3.720  -4.464  0.00  0.00    +0.143 C 
ATOM      8  N   UNL     1       0.425  -3.637  -5.740  0.00  0.00    -0.288 N 
ATOM      9  C   UNL     1       0.707  -2.417  -6.240  0.00  0.00    +0.307 C 
ATOM     10  O   UNL     1       1.308  -2.338  -7.293  0.00  0.00    -0.252 OA
ATOM     11  N   UNL     1       0.345  -1.290  -5.614  0.00  0.00    -0.260 N 
ATOM     12  C   UNL     1       0.695  -0.010  -6.235  0.00  0.00    +0.139 C 
ATOM     13  H   UNL     1       0.697  -4.441  -6.210  0.00  0.00    +0.151 HD
ENDROOT
BRANCH   7  14
ATOM     14  C   UNL     1       0.546  -4.498  -3.493  0.00  0.00    -0.004 A 
ATOM     15  C   UNL     1       1.925  -4.417  -3.562  0.00  0.00    +0.007 A 
ATOM     16  C   UNL     1       2.705  -5.130  -2.672  0.00  0.00    +0.000 A 
ATOM     17  C   UNL     1       2.108  -5.926  -1.712  0.00  0.00    +0.001 A 
ATOM     18  C   UNL     1       0.730  -6.008  -1.642  0.00  0.00    +0.020 A 
ATOM     19  C   UNL     1      -0.052  -5.290  -2.529  0.00  0.00    +0.046 A 
ATOM     20 CL   UNL     1      -1.783  -5.387  -2.437  0.00  0.00    -0.083 Cl
ENDBRANCH   7  14
BRANCH   1  21
ATOM     21  C   UNL     1      -2.135  -0.131  -1.286  0.00  0.00    +0.163 C 
BRANCH  21  22
ATOM     22  C   UNL     1      -3.583  -0.545  -1.223  0.00  0.00    +0.234 C 
ATOM     23  O   UNL     1      -4.028  -1.319  -2.044  0.00  0.00    -0.274 OA
ATOM     24  N   UNL     1      -4.383  -0.056  -0.256  0.00  0.00    -0.311 N 
ATOM     25  H   UNL     1      -4.027   0.564   0.401  0.00  0.00    +0.149 HD
BRANCH  24  26
ATOM     26  C   UNL     1      -5.790  -0.458  -0.195  0.00  0.00    +0.073 C 
ATOM     27  C   UNL     1      -6.827   0.635   0.072  0.00  0.00    +0.024 C 
ATOM     28  C   UNL     1      -6.489  -0.382   1.164  0.00  0.00    +0.024 C 
ENDBRANCH  24  26
ENDBRANCH  21  22
BRANCH  21  29
ATOM     29  C   UNL     1      -1.433  -0.534   0.013  0.00  0.00    +0.035 C 
BRANCH  29  31
ATOM     30  C   UNL     1      -0.019   1.526   0.010  0.00  0.00    +0.007 C 
ATOM     31  C   UNL     1       0.002  -0.004   0.002  0.00  0.00    -0.015 C 
ATOM     32  C   UNL     1       0.742  -0.511   1.242  0.00  0.00    +0.007 C 
ENDBRANCH  29  31
ENDBRANCH  21  29
ENDBRANCH   1  21
TORSDOF 6
