REMARK  Name = ZINC40225390
REMARK  8 active torsions:
REMARK  status: ('A' for Active; 'I' for Inactive)
REMARK    1  A    between atoms: C_1  and  C_2
REMARK    2  A    between atoms: C_2  and  C_3
REMARK    3  A    between atoms: C_2  and  N_4
REMARK    4  A    between atoms: N_4  and  C_5
REMARK    5  A    between atoms: C_9  and  C_11
REMARK    6  A    between atoms: C_11  and  C_12
REMARK    7  A    between atoms: C_12  and  C_17
REMARK    8  A    between atoms: C_17  and  C_18
REMARK                            x       y       z     vdW  Elec       q    Type
REMARK                         _______ _______ _______ _____ _____    ______ ____
ROOT
ATOM      1  N   UNL     1      -1.194  -0.527  -0.120  0.00  0.00    -0.286 N 
ATOM      2  C   UNL     1      -2.044  -0.184   1.023  0.00  0.00    +0.134 C 
ATOM      3  C   UNL     1      -1.680  -1.298  -1.113  0.00  0.00    +0.308 C 
ATOM      4  O   UNL     1      -0.976  -1.582  -2.062  0.00  0.00    -0.252 OA
ATOM      5  N   UNL     1      -2.947  -1.754  -1.054  0.00  0.00    -0.240 N 
ATOM      6  C   UNL     1      -3.433  -2.524  -2.047  0.00  0.00    +0.221 C 
ATOM      7  O   UNL     1      -2.731  -2.808  -2.994  0.00  0.00    -0.275 OA
ATOM      8  H   UNL     1      -3.510  -1.527  -0.297  0.00  0.00    +0.159 HD
ENDROOT
BRANCH   1  10
ATOM      9  C   UNL     1       0.176   1.498  -0.175  0.00  0.00    +0.028 C 
ATOM     10  C   UNL     1       0.183  -0.032  -0.184  0.00  0.00    +0.071 C 
ATOM     11  C   UNL     1       0.966  -0.546   1.025  0.00  0.00    +0.028 C 
ENDBRANCH   1  10
BRANCH   6  12
ATOM     12  C   UNL     1      -4.850  -3.034  -1.981  0.00  0.00    +0.103 C 
BRANCH  12  13
ATOM     13  C   UNL     1      -5.186  -3.777  -3.276  0.00  0.00    -0.011 C 
ATOM     14  C   UNL     1      -6.689  -4.120  -3.313  0.00  0.00    +0.008 C 
ATOM     15  C   UNL     1      -7.323  -2.967  -4.130  0.00  0.00    +0.001 C 
ATOM     16  C   UNL     1      -6.258  -2.696  -5.222  0.00  0.00    +0.001 C 
ATOM     17  C   UNL     1      -4.912  -2.871  -4.490  0.00  0.00    +0.008 C 
BRANCH  13  18
ATOM     18  C   UNL     1      -4.352  -5.056  -3.377  0.00  0.00    +0.132 C 
BRANCH  18  19
ATOM     19  C   UNL     1      -4.753  -6.005  -2.278  0.00  0.00    +0.357 C 
ATOM     20  O   UNL     1      -5.578  -5.663  -1.448  0.00  0.00    -0.246 OA
ATOM     21  O   UNL     1      -4.252  -7.115  -2.219  0.00  0.00    -0.246 OA
ENDBRANCH  18  19
ENDBRANCH  13  18
ENDBRANCH  12  13
ENDBRANCH   6  12
TORSDOF 5
