REMARK  Name = ZINC09532321
REMARK  7 active torsions:
REMARK  status: ('A' for Active; 'I' for Inactive)
REMARK    1  A    between atoms: C_1  and  C_2
REMARK    2  A    between atoms: C_2  and  C_30
REMARK    3  A    between atoms: C_13  and  C_15
REMARK    4  A    between atoms: C_15  and  S_16
REMARK    5  A    between atoms: S_16  and  C_17
REMARK    6  A    between atoms: C_20  and  C_23
REMARK    7  A    between atoms: N_21  and  C_22
REMARK                            x       y       z     vdW  Elec       q    Type
REMARK                         _______ _______ _______ _____ _____    ______ ____
ROOT
ATOM      1  C   UNL     1       0.607   1.390  -0.109  0.00  0.00    +0.042 C 
ATOM      2  C   UNL     1      -0.093   0.740   1.086  0.00  0.00    +0.113 C 
ATOM      3  C   UNL     1       0.810   0.799   2.292  0.00  0.00    +0.241 C 
ATOM      4  O   UNL     1       1.593  -0.103   2.500  0.00  0.00    -0.273 OA
ATOM      5  N   UNL     1       0.756   1.842   3.142  0.00  0.00    -0.282 N 
ATOM      6  C   UNL     1      -0.173   2.871   2.953  0.00  0.00    +0.055 A 
ATOM      7  C   UNL     1      -0.050   4.071   3.635  0.00  0.00    +0.025 A 
ATOM      8  C   UNL     1      -0.985   5.072   3.442  0.00  0.00    +0.002 A 
ATOM      9  C   UNL     1      -2.043   4.881   2.571  0.00  0.00    +0.002 A 
ATOM     10  C   UNL     1      -2.172   3.687   1.884  0.00  0.00    +0.025 A 
ATOM     11  C   UNL     1      -1.239   2.683   2.072  0.00  0.00    +0.059 A 
ATOM     12  N   UNL     1      -1.337   1.464   1.383  0.00  0.00    -0.255 N 
ATOM     13  C   UNL     1      -2.534   0.974   1.005  0.00  0.00    +0.231 C 
ATOM     14  O   UNL     1      -3.555   1.524   1.361  0.00  0.00    -0.274 OA
ATOM     15  C   UNL     1      -0.414  -0.720   0.759  0.00  0.00    +0.042 C 
ATOM     16  H   UNL     1       1.369   1.881   3.893  0.00  0.00    +0.155 HD
ENDROOT
BRANCH  13  17
ATOM     17  C   UNL     1      -2.605  -0.258   0.140  0.00  0.00    +0.173 C 
BRANCH  17  18
ATOM     18  S   UNL     1      -4.320  -0.547  -0.360  0.00  0.00    -0.077 S 
BRANCH  18  19
ATOM     19  C   UNL     1      -4.115  -2.003  -1.332  0.00  0.00    +0.192 A 
ATOM     20  N   UNL     1      -2.983  -2.626  -1.572  0.00  0.00    -0.122 NA
ATOM     21  N   UNL     1      -3.194  -3.654  -2.314  0.00  0.00    -0.128 NA
ATOM     22  C   UNL     1      -4.472  -3.744  -2.601  0.00  0.00    +0.165 A 
ATOM     23  N   UNL     1      -5.101  -2.690  -1.980  0.00  0.00    -0.305 N 
ATOM     24  C   UNL     1      -6.530  -2.370  -2.009  0.00  0.00    +0.153 C 
BRANCH  22  25
ATOM     25  C   UNL     1      -5.114  -4.784  -3.433  0.00  0.00    +0.019 A 
ATOM     26  C   UNL     1      -4.457  -5.991  -3.677  0.00  0.00    +0.013 A 
ATOM     27  C   UNL     1      -5.064  -6.959  -4.450  0.00  0.00    +0.021 A 
ATOM     28  C   UNL     1      -6.318  -6.731  -4.992  0.00  0.00    +0.041 A 
ATOM     29  C   UNL     1      -6.972  -5.534  -4.757  0.00  0.00    +0.021 A 
ATOM     30  C   UNL     1      -6.378  -4.560  -3.982  0.00  0.00    +0.013 A 
ATOM     31 CL   UNL     1      -7.072  -7.952  -5.969  0.00  0.00    -0.084 Cl
ENDBRANCH  22  25
ENDBRANCH  18  19
ENDBRANCH  17  18
ENDBRANCH  13  17
TORSDOF 4
