REMARK  Name = ZINC67239357
REMARK  9 active torsions:
REMARK  status: ('A' for Active; 'I' for Inactive)
REMARK    1  A    between atoms: C_1  and  C_2
REMARK    2  A    between atoms: N_10  and  C_23
REMARK    3  A    between atoms: C_11  and  S_13
REMARK    4  A    between atoms: S_13  and  C_14
REMARK    5  A    between atoms: C_14  and  C_15
REMARK    6  A    between atoms: C_23  and  C_24
REMARK    7  A    between atoms: C_24  and  C_25
REMARK    8  A    between atoms: C_25  and  C_26
REMARK    9  A    between atoms: C_25  and  C_27
REMARK                            x       y       z     vdW  Elec       q    Type
REMARK                         _______ _______ _______ _____ _____    ______ ____
ROOT
ATOM      1  C   UNL     1      -0.018   1.503   0.010  0.00  0.00    +0.063 C 
ATOM      2  C   UNL     1       0.002  -0.004   0.002  0.00  0.00    +0.016 A 
ATOM      3  C   UNL     1       0.008  -0.776  -1.103  0.00  0.00    +0.051 A 
ATOM      4  C   UNL     1       0.028  -2.126  -0.690  0.00  0.00    +0.097 A 
ATOM      5  C   UNL     1       0.034  -2.116   0.710  0.00  0.00    +0.131 A 
ATOM      6  N   UNL     1       0.023  -0.796   1.109  0.00  0.00    -0.353 N 
ATOM      7  H   UNL     1       0.028  -0.483   2.027  0.00  0.00    +0.166 HD
ATOM      8  C   UNL     1       0.054  -3.344   1.396  0.00  0.00    +0.279 A 
ATOM      9  O   UNL     1       0.059  -3.378   2.615  0.00  0.00    -0.265 OA
ATOM     10  N   UNL     1       0.067  -4.486   0.674  0.00  0.00    -0.286 N 
ATOM     11  C   UNL     1       0.061  -4.441  -0.691  0.00  0.00    +0.173 A 
ATOM     12  N   UNL     1       0.041  -3.303  -1.346  0.00  0.00    -0.222 NA
ENDROOT
BRANCH  11  13
ATOM     13  S   UNL     1       0.079  -5.951  -1.598  0.00  0.00    -0.078 S 
BRANCH  13  14
ATOM     14  C   UNL     1       0.065  -5.421  -3.333  0.00  0.00    +0.173 C 
BRANCH  14  15
ATOM     15  C   UNL     1       0.079  -6.633  -4.229  0.00  0.00    +0.229 C 
ATOM     16  O   UNL     1       0.097  -7.745  -3.744  0.00  0.00    -0.275 OA
ATOM     17  N   UNL     1       0.071  -6.481  -5.568  0.00  0.00    -0.264 N 
ATOM     18  C   UNL     1       0.085  -7.599  -6.394  0.00  0.00    +0.164 A 
ATOM     19  N   UNL     1       0.098  -8.869  -6.051  0.00  0.00    -0.233 NA
ATOM     20  C   UNL     1       0.110  -9.823  -6.964  0.00  0.00    +0.120 A 
ATOM     21  C   UNL     1       0.106  -9.432  -8.262  0.00  0.00    +0.068 A 
ATOM     22  S   UNL     1       0.079  -7.657  -8.076  0.00  0.00    -0.061 S 
ATOM     23  H   UNL     1       0.057  -5.592  -5.955  0.00  0.00    +0.157 HD
ENDBRANCH  14  15
ENDBRANCH  13  14
ENDBRANCH  11  13
BRANCH  10  24
ATOM     24  C   UNL     1       0.087  -5.781   1.359  0.00  0.00    +0.128 C 
BRANCH  24  25
ATOM     25  C   UNL     1      -1.348  -6.251   1.603  0.00  0.00    +0.025 C 
BRANCH  25  26
ATOM     26  C   UNL     1      -1.326  -7.604   2.319  0.00  0.00    -0.016 C 
ATOM     27  C   UNL     1      -0.713  -7.434   3.711  0.00  0.00    +0.007 C 
ATOM     28  C   UNL     1      -2.755  -8.133   2.453  0.00  0.00    +0.007 C 
ENDBRANCH  25  26
ENDBRANCH  24  25
ENDBRANCH  10  24
TORSDOF 6
