REMARK  Name = ZINC39422744
REMARK  10 active torsions:
REMARK  status: ('A' for Active; 'I' for Inactive)
REMARK    1  A    between atoms: C_1  and  C_2
REMARK    2  A    between atoms: C_5  and  N_8
REMARK    3  A    between atoms: C_9  and  C_11
REMARK    4  A    between atoms: C_11  and  C_13
REMARK    5  A    between atoms: C_11  and  O_14
REMARK    6  A    between atoms: O_14  and  C_15
REMARK    7  A    between atoms: C_15  and  C_17
REMARK    8  A    between atoms: C_22  and  N_23
REMARK    9  A    between atoms: N_23  and  S_24
REMARK   10  A    between atoms: S_24  and  C_27
REMARK                            x       y       z     vdW  Elec       q    Type
REMARK                         _______ _______ _______ _____ _____    ______ ____
ROOT
ATOM      1  C   UNL     1      -0.243  -8.653   4.012  0.00  0.00    +0.083 A 
ATOM      2  C   UNL     1       0.232  -7.917   5.102  0.00  0.00    +0.017 A 
ATOM      3  C   UNL     1       0.191  -8.460   6.367  0.00  0.00    +0.001 A 
ATOM      4  C   UNL     1      -0.320  -9.733   6.567  0.00  0.00    +0.002 A 
ATOM      5  C   UNL     1      -0.792 -10.472   5.502  0.00  0.00    +0.027 A 
ATOM      6  C   UNL     1      -0.764  -9.940   4.219  0.00  0.00    +0.088 A 
ENDROOT
BRANCH   1   7
ATOM      7  C   UNL     1      -0.202  -8.079   2.656  0.00  0.00    +0.342 C 
ATOM      8  O   UNL     1      -0.620  -8.720   1.712  0.00  0.00    -0.245 OA
BRANCH   7   9
ATOM      9  O   UNL     1       0.300  -6.843   2.462  0.00  0.00    -0.449 OA
BRANCH   9  10
ATOM     10  C   UNL     1       0.309  -6.349   1.121  0.00  0.00    +0.259 C 
ATOM     11  C   UNL     1       1.625  -6.737   0.444  0.00  0.00    +0.062 C 
BRANCH  10  13
ATOM     12  N   UNL     1       0.059  -4.170  -0.021  0.00  0.00    -0.282 N 
ATOM     13  C   UNL     1       0.175  -4.848   1.138  0.00  0.00    +0.258 C 
ATOM     14  O   UNL     1       0.173  -4.251   2.193  0.00  0.00    -0.271 OA
ATOM     15  H   UNL     1      -0.017  -4.651  -0.860  0.00  0.00    +0.155 HD
BRANCH  12  20
ATOM     16  C   UNL     1       0.009   1.503   0.007  0.00  0.00    +0.044 C 
ATOM     17  C   UNL     1       0.022  -0.004  -0.001  0.00  0.00    -0.050 A 
ATOM     18  C   UNL     1       0.777  -0.692   0.931  0.00  0.00    +0.005 A 
ATOM     19  C   UNL     1       0.791  -2.073   0.927  0.00  0.00    +0.023 A 
ATOM     20  C   UNL     1       0.046  -2.771  -0.014  0.00  0.00    +0.034 A 
ATOM     21  C   UNL     1      -0.712  -2.077  -0.948  0.00  0.00    +0.023 A 
ATOM     22  C   UNL     1      -0.726  -0.696  -0.936  0.00  0.00    +0.005 A 
ENDBRANCH  12  20
ENDBRANCH  10  13
ENDBRANCH   9  10
ENDBRANCH   7   9
ENDBRANCH   1   7
BRANCH   6  23
ATOM     23  N   UNL     1      -1.244 -10.679   3.147  0.00  0.00    -0.097 NA
BRANCH  23  24
ATOM     24  S   UNL     1      -1.859 -12.197   3.396  0.00  0.00    +0.092 S 
ATOM     25  O   UNL     1      -0.774 -13.008   3.824  0.00  0.00    -0.148 OA
ATOM     26  O   UNL     1      -3.041 -12.035   4.168  0.00  0.00    -0.148 OA
BRANCH  24  27
ATOM     27  C   UNL     1      -2.364 -12.819   1.826  0.00  0.00    +0.112 A 
ATOM     28  C   UNL     1      -3.725 -12.565   1.370  0.00  0.00    +0.031 A 
ATOM     29  C   UNL     1      -4.175 -13.012   0.178  0.00  0.00    +0.027 A 
ATOM     30  C   UNL     1      -3.281 -13.776  -0.690  0.00  0.00    +0.056 A 
ATOM     31  N   UNL     1      -3.394 -14.338  -1.867  0.00  0.00    -0.268 N 
ATOM     32  C   UNL     1      -2.194 -14.929  -2.183  0.00  0.00    +0.308 C 
ATOM     33  O   UNL     1      -1.964 -15.535  -3.208  0.00  0.00    -0.252 OA
ATOM     34  N   UNL     1      -1.294 -14.730  -1.163  0.00  0.00    -0.267 N 
ATOM     35  C   UNL     1      -1.883 -14.037  -0.221  0.00  0.00    +0.058 A 
ATOM     36  C   UNL     1      -1.476 -13.512   1.080  0.00  0.00    +0.054 A 
ATOM     37  H   UNL     1      -0.378 -15.048  -1.144  0.00  0.00    +0.156 HD
ATOM     38  H   UNL     1      -4.190 -14.337  -2.422  0.00  0.00    +0.156 HD
ENDBRANCH  24  27
ENDBRANCH  23  24
ENDBRANCH   6  23
TORSDOF 8
