REMARK  Name = ZINC66630976
REMARK  7 active torsions:
REMARK  status: ('A' for Active; 'I' for Inactive)
REMARK    1  A    between atoms: C_1  and  C_2
REMARK    2  A    between atoms: C_7  and  C_11
REMARK    3  A    between atoms: C_11  and  N_12
REMARK    4  A    between atoms: C_13  and  C_15
REMARK    5  A    between atoms: C_15  and  N_16
REMARK    6  A    between atoms: N_19  and  C_20
REMARK    7  A    between atoms: C_20  and  C_21
REMARK                            x       y       z     vdW  Elec       q    Type
REMARK                         _______ _______ _______ _____ _____    ______ ____
ROOT
ATOM      1  N   UNL     1       1.471  -5.968   2.492  0.00  0.00    -0.308 N 
ATOM      2  C   UNL     1       1.735  -7.130   3.123  0.00  0.00    +0.231 C 
ATOM      3  O   UNL     1       0.827  -7.790   3.583  0.00  0.00    -0.274 OA
ATOM      4  H   UNL     1       2.197  -5.441   2.124  0.00  0.00    +0.149 HD
ENDROOT
BRANCH   1   5
ATOM      5  C   UNL     1       0.088  -5.503   2.364  0.00  0.00    +0.159 C 
BRANCH   5  12
ATOM      6  C   UNL     1      -0.018   1.503   0.010  0.00  0.00    +0.045 C 
ATOM      7  C   UNL     1       0.002  -0.004   0.002  0.00  0.00    -0.034 A 
ATOM      8  C   UNL     1       0.006  -0.697  -1.220  0.00  0.00    +0.008 A 
ATOM      9  C   UNL     1       0.025  -2.057  -1.224  0.00  0.00    +0.045 A 
ATOM     10  C   UNL     1       0.040  -2.750   0.003  0.00  0.00    +0.115 A 
ATOM     11  N   UNL     1       0.059  -4.043   0.297  0.00  0.00    -0.342 N 
ATOM     12  C   UNL     1       0.067  -4.189   1.625  0.00  0.00    +0.051 A 
ATOM     13  C   UNL     1       0.053  -2.964   2.194  0.00  0.00    +0.115 A 
ATOM     14  N   UNL     1       0.036  -2.047   1.179  0.00  0.00    -0.308 N 
ATOM     15  C   UNL     1       0.022  -0.682   1.169  0.00  0.00    +0.096 A 
ATOM     16  H   UNL     1       0.066  -4.766  -0.348  0.00  0.00    +0.167 HD
ENDBRANCH   5  12
ENDBRANCH   1   5
BRANCH   2  17
ATOM     17  C   UNL     1       3.158  -7.609   3.255  0.00  0.00    +0.201 C 
BRANCH  17  18
ATOM     18  N   UNL     1       3.178  -8.886   3.973  0.00  0.00    -0.291 N 
ATOM     19  C   UNL     1       4.350  -9.507   4.210  0.00  0.00    +0.300 C 
ATOM     20  O   UNL     1       5.391  -9.008   3.828  0.00  0.00    -0.253 OA
ATOM     21  N   UNL     1       4.369 -10.681   4.871  0.00  0.00    -0.295 N 
ATOM     22  H   UNL     1       2.348  -9.284   4.279  0.00  0.00    +0.151 HD
ATOM     23  H   UNL     1       3.539 -11.080   5.176  0.00  0.00    +0.151 HD
BRANCH  21  24
ATOM     24  C   UNL     1       5.643 -11.357   5.129  0.00  0.00    +0.141 C 
BRANCH  24  25
ATOM     25  C   UNL     1       5.390 -12.640   5.878  0.00  0.00    -0.030 A 
ATOM     26  C   UNL     1       5.368 -12.640   7.260  0.00  0.00    +0.006 A 
ATOM     27  C   UNL     1       5.136 -13.817   7.947  0.00  0.00    +0.020 A 
ATOM     28  C   UNL     1       4.924 -14.994   7.251  0.00  0.00    +0.041 A 
ATOM     29  C   UNL     1       4.945 -14.992   5.868  0.00  0.00    +0.020 A 
ATOM     30  C   UNL     1       5.173 -13.814   5.182  0.00  0.00    +0.006 A 
ATOM     31 CL   UNL     1       4.632 -16.472   8.114  0.00  0.00    -0.084 Cl
ENDBRANCH  24  25
ENDBRANCH  21  24
ENDBRANCH  17  18
ENDBRANCH   2  17
TORSDOF 6
