REMARK  Name = ZINC39946083
REMARK  8 active torsions:
REMARK  status: ('A' for Active; 'I' for Inactive)
REMARK    1  A    between atoms: C_4  and  C_7
REMARK    2  A    between atoms: C_7  and  C_9
REMARK    3  A    between atoms: C_7  and  S_20
REMARK    4  A    between atoms: C_9  and  C_11
REMARK    5  A    between atoms: S_20  and  C_21
REMARK    6  A    between atoms: C_25  and  C_34
REMARK    7  A    between atoms: N_26  and  C_27
REMARK    8  A    between atoms: C_27  and  C_28
REMARK                            x       y       z     vdW  Elec       q    Type
REMARK                         _______ _______ _______ _____ _____    ______ ____
ROOT
ATOM      1  C   UNL     1       3.711  -0.707  -0.038  0.00  0.00    +0.150 C 
ENDROOT
BRANCH   1   5
ATOM      2  C   UNL     1      -0.017   1.378   0.010  0.00  0.00    +0.000 A 
ATOM      3  C   UNL     1       1.171   2.086   0.002  0.00  0.00    +0.000 A 
ATOM      4  C   UNL     1       2.377   1.411  -0.013  0.00  0.00    +0.005 A 
ATOM      5  C   UNL     1       2.396   0.029  -0.020  0.00  0.00    -0.027 A 
ATOM      6  C   UNL     1       1.208  -0.679  -0.012  0.00  0.00    +0.005 A 
ATOM      7  C   UNL     1       0.002  -0.004   0.002  0.00  0.00    +0.000 A 
ENDBRANCH   1   5
BRANCH   1   8
ATOM      8  C   UNL     1       3.790  -1.566  -1.273  0.00  0.00    +0.179 C 
ATOM      9  O   UNL     1       3.467  -2.736  -1.221  0.00  0.00    -0.291 OA
BRANCH   8  10
ATOM     10  C   UNL     1       4.238  -1.012  -2.491  0.00  0.00    +0.024 C 
ATOM     11  C   UNL     1       4.363  -1.657  -3.708  0.00  0.00    +0.006 A 
ATOM     12  C   UNL     1       4.108  -2.984  -4.124  0.00  0.00    +0.010 A 
ATOM     13  C   UNL     1       4.325  -3.350  -5.407  0.00  0.00    +0.001 A 
ATOM     14  C   UNL     1       4.804  -2.453  -6.376  0.00  0.00    +0.002 A 
ATOM     15  C   UNL     1       5.079  -1.164  -6.082  0.00  0.00    +0.026 A 
ATOM     16  C   UNL     1       4.870  -0.683  -4.706  0.00  0.00    +0.043 A 
ATOM     17  N   UNL     1       5.050   0.484  -4.156  0.00  0.00    -0.380 N 
ATOM     18  C   UNL     1       4.677   0.415  -2.740  0.00  0.00    +0.152 C 
ATOM     19  H   UNL     1       5.375   1.275  -4.613  0.00  0.00    +0.160 HD
ENDBRANCH   8  10
ENDBRANCH   1   8
BRANCH   1  20
ATOM     20  S   UNL     1       3.837  -1.756   1.437  0.00  0.00    -0.102 S 
BRANCH  20  21
ATOM     21  C   UNL     1       3.880  -0.575   2.813  0.00  0.00    +0.238 C 
ATOM     22  N   UNL     1       2.693   0.296   2.783  0.00  0.00    -0.237 N 
ATOM     23  N   UNL     1       3.167   1.603   2.623  0.00  0.00    -0.168 NA
ATOM     24  C   UNL     1       4.460   1.633   2.554  0.00  0.00    +0.155 C 
ATOM     25  N   UNL     1       5.012   0.354   2.661  0.00  0.00    -0.282 N 
ATOM     26  H   UNL     1       1.766   0.019   2.859  0.00  0.00    +0.171 HD
BRANCH  24  27
ATOM     27  C   UNL     1       5.250   2.863   2.385  0.00  0.00    +0.054 A 
ATOM     28  C   UNL     1       4.818   4.161   2.277  0.00  0.00    +0.019 A 
ATOM     29  C   UNL     1       5.754   5.159   2.124  0.00  0.00    +0.008 A 
ATOM     30  C   UNL     1       7.072   4.830   2.084  0.00  0.00    +0.046 A 
ATOM     31  S   UNL     1       7.022   3.056   2.275  0.00  0.00    -0.094 S 
ENDBRANCH  24  27
BRANCH  25  32
ATOM     32  C   UNL     1       6.434   0.005   2.627  0.00  0.00    +0.140 C 
BRANCH  32  33
ATOM     33  C   UNL     1       6.859  -0.266   1.182  0.00  0.00    +0.136 C 
ATOM     34  C   UNL     1       8.324  -0.752   1.149  0.00  0.00    +0.035 C 
ATOM     35  C   UNL     1       8.880  -0.037  -0.113  0.00  0.00    +0.031 C 
ATOM     36  C   UNL     1       8.092   1.296  -0.066  0.00  0.00    +0.160 C 
ATOM     37  O   UNL     1       6.785   0.944   0.419  0.00  0.00    -0.375 OA
ENDBRANCH  32  33
ENDBRANCH  25  32
ENDBRANCH  20  21
ENDBRANCH   1  20
TORSDOF 8
