REMARK  Name = ZINC33139910
REMARK  10 active torsions:
REMARK  status: ('A' for Active; 'I' for Inactive)
REMARK    1  A    between atoms: C_1  and  C_2
REMARK    2  A    between atoms: N_8  and  C_9
REMARK    3  A    between atoms: C_9  and  C_10
REMARK    4  A    between atoms: C_10  and  C_11
REMARK    5  A    between atoms: C_11  and  N_12
REMARK    6  A    between atoms: C_13  and  C_15
REMARK    7  A    between atoms: C_18  and  O_21
REMARK    8  A    between atoms: O_21  and  C_22
REMARK    9  A    between atoms: C_23  and  S_28
REMARK   10  A    between atoms: S_28  and  C_29
REMARK                            x       y       z     vdW  Elec       q    Type
REMARK                         _______ _______ _______ _____ _____    ______ ____
ROOT
ATOM      1  C   UNL     1       5.764   7.934   0.742  0.00  0.00    +0.037 A 
ATOM      2  C   UNL     1       4.552   8.485   0.316  0.00  0.00    +0.016 A 
ATOM      3  C   UNL     1       4.455   9.840   0.093  0.00  0.00    +0.047 A 
ATOM      4  C   UNL     1       5.562  10.659   0.282  0.00  0.00    +0.130 A 
ATOM      5  C   UNL     1       6.771  10.114   0.701  0.00  0.00    +0.047 A 
ATOM      6  C   UNL     1       6.875   8.761   0.930  0.00  0.00    +0.016 A 
ENDROOT
BRANCH   1   8
ATOM      7  N   UNL     1       4.799   5.687   0.805  0.00  0.00    -0.311 N 
ATOM      8  C   UNL     1       5.872   6.483   0.987  0.00  0.00    +0.244 C 
ATOM      9  O   UNL     1       6.928   6.005   1.353  0.00  0.00    -0.270 OA
ATOM     10  H   UNL     1       3.843   6.120   0.474  0.00  0.00    +0.149 HD
BRANCH   7  11
ATOM     11  C   UNL     1       4.906   4.246   1.048  0.00  0.00    +0.102 C 
BRANCH  11  12
ATOM     12  C   UNL     1       3.556   3.581   0.770  0.00  0.00    +0.000 C 
BRANCH  12  13
ATOM     13  C   UNL     1       3.668   2.076   1.024  0.00  0.00    -0.077 C 
BRANCH  13  20
ATOM     14  C   UNL     1       3.138  -0.481   2.071  0.00  0.00    -0.013 C 
ATOM     15  C   UNL     1       2.497  -0.026   0.758  0.00  0.00    -0.072 C 
ATOM     16  C   UNL     1       1.110  -0.658   0.623  0.00  0.00    -0.016 C 
ATOM     17  C   UNL     1       0.464  -0.183  -0.682  0.00  0.00    -0.003 C 
ATOM     18  C   UNL     1       0.390   1.346  -0.679  0.00  0.00    -0.019 C 
ATOM     19  C   UNL     1       1.798   1.920  -0.506  0.00  0.00    -0.078 C 
ATOM     20  N   UNL     1       2.372   1.437   0.757  0.00  0.00    +0.381 N 
ATOM     21  H   UNL     1       1.683   1.716   1.567  0.00  0.00    -0.081 HD
ENDBRANCH  13  20
ENDBRANCH  12  13
ENDBRANCH  11  12
ENDBRANCH   7  11
ENDBRANCH   1   8
BRANCH   4  22
ATOM     22  O   UNL     1       5.463  11.993   0.057  0.00  0.00    -0.436 OA
BRANCH  22  23
ATOM     23  C   UNL     1       6.079  12.501  -1.041  0.00  0.00    +0.253 A 
ATOM     24  C   UNL     1       6.110  13.885  -1.252  0.00  0.00    +0.163 A 
ATOM     25  N   UNL     1       6.717  14.373  -2.325  0.00  0.00    -0.242 NA
ATOM     26  C   UNL     1       7.282  13.552  -3.196  0.00  0.00    +0.132 A 
ATOM     27  C   UNL     1       7.247  12.188  -2.989  0.00  0.00    +0.134 A 
ATOM     28  N   UNL     1       6.647  11.691  -1.918  0.00  0.00    -0.217 NA
BRANCH  24  29
ATOM     29  S   UNL     1       5.350  14.974  -0.094  0.00  0.00    -0.065 S 
BRANCH  29  30
ATOM     30  C   UNL     1       5.504  16.564  -0.839  0.00  0.00    +0.014 A 
ATOM     31  C   UNL     1       6.569  17.390  -0.502  0.00  0.00    +0.016 A 
ATOM     32  C   UNL     1       6.689  18.633  -1.091  0.00  0.00    +0.021 A 
ATOM     33  C   UNL     1       5.745  19.060  -2.008  0.00  0.00    +0.041 A 
ATOM     34  C   UNL     1       4.680  18.242  -2.341  0.00  0.00    +0.021 A 
ATOM     35  C   UNL     1       4.557  16.995  -1.760  0.00  0.00    +0.016 A 
ATOM     36 CL   UNL     1       5.896  20.626  -2.742  0.00  0.00    -0.084 Cl
ENDBRANCH  29  30
ENDBRANCH  24  29
ENDBRANCH  22  23
ENDBRANCH   4  22
TORSDOF 9
