REMARK  Name = ZINC39636032
REMARK  6 active torsions:
REMARK  status: ('A' for Active; 'I' for Inactive)
REMARK    1  A    between atoms: C_1  and  C_2
REMARK    2  A    between atoms: C_8  and  N_10
REMARK    3  A    between atoms: C_11  and  C_13
REMARK    4  A    between atoms: C_24  and  C_26
REMARK    5  A    between atoms: C_31  and  S_32
REMARK    6  A    between atoms: S_32  and  C_33
REMARK                            x       y       z     vdW  Elec       q    Type
REMARK                         _______ _______ _______ _____ _____    ______ ____
ROOT
ATOM      1  C   UNL     1       4.441   1.468   2.304  0.00  0.00    +0.100 C 
ATOM      2  C   UNL     1       5.164   0.274   1.641  0.00  0.00    +0.121 C 
ATOM      3  N   UNL     1       6.391   0.083   2.450  0.00  0.00    -0.296 N 
ATOM      4  C   UNL     1       5.950   0.312   3.847  0.00  0.00    +0.115 C 
ATOM      5  C   UNL     1       4.959   1.489   3.752  0.00  0.00    -0.004 C 
ATOM      6  C   UNL     1       3.805   1.287   4.729  0.00  0.00    -0.010 C 
ATOM      7  C   UNL     1       4.335   1.370   6.162  0.00  0.00    -0.082 C 
ATOM      8  N   UNL     1       4.963   2.679   6.379  0.00  0.00    +0.379 N 
ATOM      9  C   UNL     1       6.129   2.827   5.500  0.00  0.00    -0.082 C 
ATOM     10  C   UNL     1       5.674   2.806   4.038  0.00  0.00    -0.010 C 
ATOM     11  C   UNL     1       7.628  -0.228   2.015  0.00  0.00    +0.249 C 
ATOM     12  O   UNL     1       8.517  -0.446   2.815  0.00  0.00    -0.270 OA
ATOM     13  H   UNL     1       4.295   3.408   6.176  0.00  0.00    -0.086 HD
ATOM     14  H   UNL     1       5.257   2.755   7.341  0.00  0.00    -0.086 HD
ENDROOT
BRANCH  11  15
ATOM     15  C   UNL     1       7.902  -0.305   0.568  0.00  0.00    +0.069 A 
ATOM     16  C   UNL     1       6.931  -0.787  -0.317  0.00  0.00    +0.017 A 
ATOM     17  C   UNL     1       7.238  -0.839  -1.665  0.00  0.00    +0.020 A 
ATOM     18  C   UNL     1       8.483  -0.416  -2.097  0.00  0.00    +0.112 A 
ATOM     19  N   UNL     1       9.385   0.035  -1.248  0.00  0.00    -0.248 NA
ATOM     20  C   UNL     1       9.142   0.111   0.052  0.00  0.00    +0.114 A 
BRANCH  20  21
ATOM     21  S   UNL     1      10.382   0.730   1.141  0.00  0.00    -0.069 S 
BRANCH  21  22
ATOM     22  C   UNL     1      11.755   1.051   0.084  0.00  0.00    +0.014 A 
ATOM     23  C   UNL     1      11.950   2.324  -0.436  0.00  0.00    +0.015 A 
ATOM     24  C   UNL     1      13.028   2.572  -1.263  0.00  0.00    +0.001 A 
ATOM     25  C   UNL     1      13.912   1.555  -1.574  0.00  0.00    +0.000 A 
ATOM     26  C   UNL     1      13.720   0.286  -1.058  0.00  0.00    +0.001 A 
ATOM     27  C   UNL     1      12.648   0.032  -0.225  0.00  0.00    +0.015 A 
ENDBRANCH  21  22
ENDBRANCH  20  21
ENDBRANCH  11  15
BRANCH   1  29
ATOM     28  N   UNL     1       2.119   2.315   2.214  0.00  0.00    -0.312 N 
ATOM     29  C   UNL     1       2.950   1.256   2.283  0.00  0.00    +0.218 C 
ATOM     30  O   UNL     1       2.497   0.132   2.328  0.00  0.00    -0.275 OA
ATOM     31  H   UNL     1       2.481   3.214   2.178  0.00  0.00    +0.149 HD
BRANCH  28  38
ATOM     32  C   UNL     1       0.425   3.624   4.165  0.00  0.00    +0.009 C 
ATOM     33  C   UNL     1      -0.032   3.359   2.729  0.00  0.00    +0.006 C 
ATOM     34  C   UNL     1      -1.547   3.143   2.708  0.00  0.00    +0.005 C 
ATOM     35  C   UNL     1      -2.004   2.877   1.272  0.00  0.00    +0.000 C 
ATOM     36  C   UNL     1      -1.303   1.627   0.737  0.00  0.00    +0.002 C 
ATOM     37  C   UNL     1       0.211   1.842   0.758  0.00  0.00    +0.022 C 
ATOM     38  C   UNL     1       0.669   2.108   2.194  0.00  0.00    +0.076 C 
ENDBRANCH  28  38
ENDBRANCH   1  29
TORSDOF 5
