REMARK  Name = ZINC35547929
REMARK  8 active torsions:
REMARK  status: ('A' for Active; 'I' for Inactive)
REMARK    1  A    between atoms: C_1  and  C_2
REMARK    2  A    between atoms: C_2  and  N_3
REMARK    3  A    between atoms: N_3  and  C_4
REMARK    4  A    between atoms: C_4  and  C_6
REMARK    5  A    between atoms: C_4  and  C_14
REMARK    6  A    between atoms: C_15  and  C_22
REMARK    7  A    between atoms: C_17  and  C_21
REMARK    8  A    between atoms: C_19  and  C_20
REMARK                            x       y       z     vdW  Elec       q    Type
REMARK                         _______ _______ _______ _____ _____    ______ ____
ROOT
ATOM      1  C   UNL     1       0.730  -2.520  -1.336  0.00  0.00    -0.008 C 
ENDROOT
BRANCH   1   2
ATOM      2  C   UNL     1      -0.757  -2.759  -1.301  0.00  0.00    -0.051 A 
ATOM      3  C   UNL     1      -1.276  -3.777  -0.522  0.00  0.00    -0.048 A 
ATOM      4  C   UNL     1      -2.640  -3.996  -0.490  0.00  0.00    +0.007 A 
ATOM      5  C   UNL     1      -3.486  -3.197  -1.236  0.00  0.00    -0.050 A 
ATOM      6  C   UNL     1      -2.968  -2.178  -2.014  0.00  0.00    +0.007 A 
ATOM      7  C   UNL     1      -1.604  -1.957  -2.043  0.00  0.00    -0.048 A 
ATOM      8  C   UNL     1      -1.039  -0.843  -2.887  0.00  0.00    +0.044 C 
ATOM      9  C   UNL     1      -4.974  -3.436  -1.202  0.00  0.00    +0.044 C 
ATOM     10  C   UNL     1      -0.353  -4.648   0.291  0.00  0.00    +0.044 C 
ENDBRANCH   1   2
BRANCH   1  11
ATOM     11  C   UNL     1       1.198  -2.473  -2.768  0.00  0.00    -0.040 A 
ATOM     12  C   UNL     1       1.518  -1.262  -3.351  0.00  0.00    +0.041 A 
ATOM     13  C   UNL     1       1.947  -1.219  -4.666  0.00  0.00    +0.124 A 
ATOM     14  C   UNL     1       2.057  -2.391  -5.396  0.00  0.00    +0.039 A 
ATOM     15  C   UNL     1       1.737  -3.601  -4.812  0.00  0.00    +0.018 A 
ATOM     16  C   UNL     1       1.313  -3.644  -3.496  0.00  0.00    +0.020 A 
ATOM     17 BR   UNL     1       0.883  -5.302  -2.694  0.00  0.00    -0.050 Br
ATOM     18  F   UNL     1       2.260  -0.035  -5.237  0.00  0.00    -0.205 F 
ENDBRANCH   1  11
BRANCH   1  19
ATOM     19  N   UNL     1       1.037  -1.242  -0.679  0.00  0.00    +0.386 N 
ATOM     20  H   UNL     1       0.467  -0.513  -1.080  0.00  0.00    -0.085 HD
ATOM     21  H   UNL     1       2.012  -1.020  -0.813  0.00  0.00    -0.085 HD
BRANCH  19  23
ATOM     22  C   UNL     1       1.071  -0.019   1.443  0.00  0.00    -0.017 C 
ATOM     23  C   UNL     1       0.752  -1.350   0.758  0.00  0.00    -0.085 C 
ENDBRANCH  19  23
ENDBRANCH   1  19
TORSDOF 4
