REMARK  Name = ZINC39920360
REMARK  7 active torsions:
REMARK  status: ('A' for Active; 'I' for Inactive)
REMARK    1  A    between atoms: C_1  and  C_2
REMARK    2  A    between atoms: C_7  and  O_8
REMARK    3  A    between atoms: O_8  and  C_9
REMARK    4  A    between atoms: C_9  and  C_11
REMARK    5  A    between atoms: C_9  and  C_12
REMARK    6  A    between atoms: N_14  and  N_15
REMARK    7  A    between atoms: C_16  and  C_28
REMARK                            x       y       z     vdW  Elec       q    Type
REMARK                         _______ _______ _______ _____ _____    ______ ____
ROOT
ATOM      1  C   UNL     1      -0.868  -0.071   4.605  0.00  0.00    +0.270 C 
ATOM      2  O   UNL     1      -1.321   1.024   4.346  0.00  0.00    -0.270 OA
ATOM      3  N   UNL     1      -1.085  -0.620   5.816  0.00  0.00    -0.227 N 
ATOM      4  H   UNL     1      -0.723  -1.496   6.024  0.00  0.00    +0.173 HD
ENDROOT
BRANCH   3   5
ATOM      5  N   UNL     1      -1.833   0.073   6.777  0.00  0.00    -0.196 N 
ATOM      6  C   UNL     1      -1.146   0.710   7.900  0.00  0.00    +0.177 C 
ATOM      7  N   UNL     1      -1.876   1.908   8.331  0.00  0.00    -0.324 N 
ATOM      8  C   UNL     1      -3.260   1.835   8.451  0.00  0.00    +0.041 A 
ATOM      9  C   UNL     1      -3.958   2.607   9.363  0.00  0.00    +0.025 A 
ATOM     10  C   UNL     1      -5.333   2.494   9.445  0.00  0.00    +0.017 A 
ATOM     11  C   UNL     1      -6.017   1.612   8.622  0.00  0.00    +0.019 A 
ATOM     12  C   UNL     1      -5.336   0.835   7.707  0.00  0.00    +0.030 A 
ATOM     13  C   UNL     1      -3.951   0.941   7.613  0.00  0.00    +0.060 A 
ATOM     14  C   UNL     1      -3.174   0.146   6.645  0.00  0.00    +0.266 C 
ATOM     15  O   UNL     1      -3.736  -0.441   5.741  0.00  0.00    -0.268 OA
ATOM     16 BR   UNL     1      -7.899   1.473   8.755  0.00  0.00    -0.050 Br
ATOM     17  C   UNL     1      -1.062  -0.276   9.067  0.00  0.00    +0.051 C 
ATOM     18  H   UNL     1      -1.405   2.732   8.528  0.00  0.00    +0.148 HD
ENDBRANCH   3   5
BRANCH   1  19
ATOM     19  C   UNL     1      -0.064  -0.817   3.572  0.00  0.00    +0.257 C 
ATOM     20  C   UNL     1       1.342  -1.082   4.115  0.00  0.00    +0.062 C 
BRANCH  19  21
ATOM     21  O   UNL     1       0.025  -0.033   2.381  0.00  0.00    -0.480 OA
BRANCH  21  28
ATOM     22  C   UNL     1      -0.041   1.466  -0.013  0.00  0.00    +0.047 C 
ATOM     23  C   UNL     1       0.216  -0.019   0.009  0.00  0.00    -0.009 A 
ATOM     24  C   UNL     1       0.436  -0.701  -1.172  0.00  0.00    +0.007 A 
ATOM     25  C   UNL     1       0.671  -2.063  -1.153  0.00  0.00    +0.000 A 
ATOM     26  C   UNL     1       0.686  -2.747   0.049  0.00  0.00    +0.004 A 
ATOM     27  C   UNL     1       0.467  -2.070   1.233  0.00  0.00    +0.046 A 
ATOM     28  C   UNL     1       0.236  -0.702   1.217  0.00  0.00    +0.124 A 
ENDBRANCH  21  28
ENDBRANCH  19  21
ENDBRANCH   1  19
TORSDOF 4
