REMARK  Name = ZINC35406109
REMARK  10 active torsions:
REMARK  status: ('A' for Active; 'I' for Inactive)
REMARK    1  A    between atoms: C_1  and  C_2
REMARK    2  A    between atoms: C_5  and  N_35
REMARK    3  A    between atoms: C_6  and  S_8
REMARK    4  A    between atoms: S_8  and  N_11
REMARK    5  A    between atoms: C_14  and  C_17
REMARK    6  A    between atoms: C_18  and  C_34
REMARK    7  A    between atoms: N_19  and  C_26
REMARK    8  A    between atoms: C_26  and  C_27
REMARK    9  A    between atoms: C_32  and  C_33
REMARK   10  A    between atoms: C_36  and  C_38
REMARK                            x       y       z     vdW  Elec       q    Type
REMARK                         _______ _______ _______ _____ _____    ______ ____
ROOT
ATOM      1  N   UNL     1      -0.879  -3.966   3.247  0.00  0.00    -0.172 NA
ATOM      2  C   UNL     1      -2.040  -3.283   3.843  0.00  0.00    +0.114 C 
ATOM      3  C   UNL     1      -3.148  -3.229   2.788  0.00  0.00    +0.052 C 
ATOM      4  C   UNL     1      -3.296  -4.563   2.117  0.00  0.00    -0.039 C 
ATOM      5  C   UNL     1      -2.379  -5.502   2.125  0.00  0.00    -0.006 C 
ATOM      6  C   UNL     1      -1.060  -5.362   2.825  0.00  0.00    +0.137 C 
ENDROOT
BRANCH   4   7
ATOM      7  C   UNL     1      -4.557  -4.837   1.401  0.00  0.00    +0.006 A 
ATOM      8  C   UNL     1      -4.819  -4.582   0.093  0.00  0.00    +0.024 A 
ATOM      9  N   UNL     1      -6.092  -4.973  -0.207  0.00  0.00    -0.339 N 
ATOM     10  C   UNL     1      -6.703  -5.501   0.910  0.00  0.00    +0.050 A 
ATOM     11  C   UNL     1      -5.774  -5.447   1.963  0.00  0.00    +0.008 A 
ATOM     12  C   UNL     1      -6.122  -5.925   3.225  0.00  0.00    +0.010 A 
ATOM     13  C   UNL     1      -7.378  -6.451   3.433  0.00  0.00    +0.001 A 
ATOM     14  C   UNL     1      -8.294  -6.508   2.393  0.00  0.00    +0.002 A 
ATOM     15  C   UNL     1      -7.968  -6.033   1.142  0.00  0.00    +0.026 A 
ATOM     16  C   UNL     1      -3.851  -3.959  -0.880  0.00  0.00    +0.064 C 
BRANCH   9  17
ATOM     17  C   UNL     1      -6.718  -4.849  -1.526  0.00  0.00    +0.157 C 
BRANCH  17  18
ATOM     18  C   UNL     1      -7.512  -3.570  -1.587  0.00  0.00    -0.025 A 
ATOM     19  C   UNL     1      -7.471  -2.680  -0.530  0.00  0.00    +0.005 A 
ATOM     20  C   UNL     1      -8.199  -1.506  -0.586  0.00  0.00    +0.000 A 
ATOM     21  C   UNL     1      -8.968  -1.222  -1.699  0.00  0.00    +0.000 A 
ATOM     22  C   UNL     1      -9.008  -2.112  -2.756  0.00  0.00    +0.004 A 
ATOM     23  C   UNL     1      -8.276  -3.284  -2.702  0.00  0.00    -0.046 A 
ATOM     24  C   UNL     1      -8.316  -4.251  -3.857  0.00  0.00    +0.044 C 
ENDBRANCH  17  18
ENDBRANCH   9  17
ENDBRANCH   4   7
BRANCH   1  25
ATOM     25  S   UNL     1       0.572  -3.189   3.055  0.00  0.00    +0.063 S 
ATOM     26  O   UNL     1       1.555  -4.202   2.887  0.00  0.00    -0.153 OA
ATOM     27  O   UNL     1       0.650  -2.215   4.086  0.00  0.00    -0.153 OA
BRANCH  25  33
ATOM     28  C   UNL     1       0.416   1.275   0.343  0.00  0.00    +0.044 C 
ATOM     29  C   UNL     1       0.423  -0.232   0.339  0.00  0.00    -0.048 A 
ATOM     30  C   UNL     1       0.368  -0.918  -0.861  0.00  0.00    +0.005 A 
ATOM     31  C   UNL     1       0.374  -2.299  -0.869  0.00  0.00    +0.025 A 
ATOM     32  C   UNL     1       0.436  -2.999   0.330  0.00  0.00    +0.060 A 
ATOM     33  C   UNL     1       0.492  -2.307   1.532  0.00  0.00    +0.127 A 
ATOM     34  C   UNL     1       0.491  -0.925   1.533  0.00  0.00    +0.033 A 
BRANCH  32  35
ATOM     35  N   UNL     1       0.442  -4.398   0.325  0.00  0.00    -0.284 N 
ATOM     36  C   UNL     1      -0.235  -5.072  -0.625  0.00  0.00    +0.214 C 
ATOM     37  O   UNL     1      -0.786  -4.467  -1.521  0.00  0.00    -0.276 OA
ATOM     38  C   UNL     1      -0.308  -6.576  -0.576  0.00  0.00    +0.109 C 
ATOM     39  H   UNL     1       0.934  -4.883   1.006  0.00  0.00    +0.155 HD
ENDBRANCH  32  35
ENDBRANCH  25  33
ENDBRANCH   1  25
TORSDOF 6
