REMARK  Name = ZINC44785686
REMARK  5 active torsions:
REMARK  status: ('A' for Active; 'I' for Inactive)
REMARK    1  A    between atoms: C_5  and  C_8
REMARK    2  A    between atoms: C_5  and  C_12
REMARK    3  A    between atoms: N_9  and  O_10
REMARK    4  A    between atoms: C_19  and  C_21
REMARK    5  A    between atoms: C_21  and  O_22
REMARK                            x       y       z     vdW  Elec       q    Type
REMARK                         _______ _______ _______ _____ _____    ______ ____
ROOT
ATOM      1  C   UNL     1       0.557   1.851  -0.295  0.00  0.00    +0.000 C 
ATOM      2  C   UNL     1       2.073   2.018  -0.527  0.00  0.00    +0.000 C 
ATOM      3  C   UNL     1       2.768   1.978   0.807  0.00  0.00    +0.001 C 
ATOM      4  C   UNL     1       3.269   0.567   1.170  0.00  0.00    +0.024 C 
ATOM      5  C   UNL     1       2.252  -0.536   0.820  0.00  0.00    +0.105 C 
ATOM      6  C   UNL     1       0.840  -0.148   1.166  0.00  0.00    +0.024 C 
ATOM      7  C   UNL     1       0.177   0.461  -0.087  0.00  0.00    +0.001 C 
ENDROOT
BRANCH   5   8
ATOM      8  C   UNL     1       2.331  -0.821  -0.658  0.00  0.00    +0.229 C 
ATOM      9  O   UNL     1       3.135  -0.230  -1.347  0.00  0.00    -0.275 OA
ATOM     10  N   UNL     1       1.508  -1.733  -1.213  0.00  0.00    -0.295 N 
ATOM     11  C   UNL     1       0.565  -2.495  -0.383  0.00  0.00    +0.108 C 
ATOM     12  C   UNL     1      -0.843  -2.336  -0.964  0.00  0.00    +0.019 C 
ATOM     13  C   UNL     1      -0.831  -2.746  -2.438  0.00  0.00    +0.003 C 
ATOM     14  C   UNL     1       0.118  -1.832  -3.216  0.00  0.00    +0.025 C 
ATOM     15  C   UNL     1       1.533  -1.980  -2.661  0.00  0.00    +0.101 C 
BRANCH  15  16
ATOM     16  C   UNL     1       2.457  -0.966  -3.339  0.00  0.00    +0.178 C 
BRANCH  16  17
ATOM     17  O   UNL     1       1.937   0.351  -3.150  0.00  0.00    -0.393 OA
ATOM     18  H   UNL     1       2.473   1.047  -3.554  0.00  0.00    +0.209 HD
ENDBRANCH  16  17
ENDBRANCH  15  16
ENDBRANCH   5   8
BRANCH   5  19
ATOM     19  C   UNL     1       2.612  -1.789   1.575  0.00  0.00    +0.147 C 
ATOM     20  N   UNL     1       2.527  -1.813   2.864  0.00  0.00    -0.076 NA
ATOM     21  N   UNL     1       3.032  -2.909   0.892  0.00  0.00    -0.343 N 
ATOM     22  H   UNL     1       3.052  -2.906  -0.078  0.00  0.00    +0.144 HD
ATOM     23  H   UNL     1       3.308  -3.700   1.381  0.00  0.00    +0.144 HD
BRANCH  20  24
ATOM     24  O   UNL     1       1.977  -0.708   3.558  0.00  0.00    -0.408 OA
ATOM     25  H   UNL     1       1.955  -0.818   4.519  0.00  0.00    +0.328 HD
ENDBRANCH  20  24
ENDBRANCH   5  19
TORSDOF 5
