REMARK  Name = ZINC39272138
REMARK  8 active torsions:
REMARK  status: ('A' for Active; 'I' for Inactive)
REMARK    1  A    between atoms: C_1  and  C_2
REMARK    2  A    between atoms: C_2  and  C_3
REMARK    3  A    between atoms: C_5  and  O_34
REMARK    4  A    between atoms: C_8  and  S_19
REMARK    5  A    between atoms: N_10  and  C_13
REMARK    6  A    between atoms: S_19  and  C_20
REMARK    7  A    between atoms: C_20  and  C_21
REMARK    8  A    between atoms: C_21  and  N_23
REMARK                            x       y       z     vdW  Elec       q    Type
REMARK                         _______ _______ _______ _____ _____    ______ ____
ROOT
ATOM      1  C   UNL     1      -1.467  -0.421  -0.025  0.00  0.00    +0.119 C 
ATOM      2  C   UNL     1      -1.568  -1.948  -0.092  0.00  0.00    +0.197 C 
ATOM      3  N   UNL     1      -2.966  -2.333   0.161  0.00  0.00    -0.264 NA
ATOM      4  C   UNL     1      -3.328  -2.063   1.558  0.00  0.00    +0.211 C 
ATOM      5  N   UNL     1      -3.008  -0.685   1.914  0.00  0.00    -0.246 N 
ATOM      6  C   UNL     1      -2.153   0.072   1.219  0.00  0.00    +0.229 C 
ATOM      7  O   UNL     1      -1.922   1.198   1.607  0.00  0.00    -0.275 OA
ATOM      8  H   UNL     1      -3.592  -1.859  -0.472  0.00  0.00    +0.127 HD
ENDROOT
BRANCH   5   9
ATOM      9  C   UNL     1      -3.628  -0.129   3.038  0.00  0.00    +0.039 A 
ATOM     10  C   UNL     1      -4.515   0.930   2.890  0.00  0.00    +0.023 A 
ATOM     11  C   UNL     1      -5.125   1.478   4.002  0.00  0.00    +0.002 A 
ATOM     12  C   UNL     1      -4.853   0.973   5.261  0.00  0.00    +0.000 A 
ATOM     13  C   UNL     1      -3.970  -0.080   5.411  0.00  0.00    +0.002 A 
ATOM     14  C   UNL     1      -3.362  -0.637   4.303  0.00  0.00    +0.023 A 
ENDBRANCH   5   9
BRANCH   1  16
ATOM     15  C   UNL     1       0.668  -0.377  -1.323  0.00  0.00    +0.005 C 
ATOM     16  C   UNL     1       0.006  -0.009   0.007  0.00  0.00    +0.013 C 
ENDBRANCH   1  16
BRANCH   2  17
ATOM     17  O   UNL     1      -1.168  -2.400  -1.387  0.00  0.00    -0.377 OA
ATOM     18  H   UNL     1      -1.209  -3.360  -1.498  0.00  0.00    +0.211 HD
ENDBRANCH   2  17
BRANCH   4  19
ATOM     19  S   UNL     1      -5.107  -2.340   1.780  0.00  0.00    -0.113 S 
BRANCH  19  20
ATOM     20  C   UNL     1      -5.880  -1.167   0.632  0.00  0.00    +0.170 C 
BRANCH  20  21
ATOM     21  C   UNL     1      -7.379  -1.295   0.717  0.00  0.00    +0.248 C 
ATOM     22  O   UNL     1      -7.878  -2.100   1.479  0.00  0.00    -0.273 OA
BRANCH  21  23
ATOM     23  N   UNL     1      -8.155  -0.527  -0.040  0.00  0.00    -0.156 NA
ATOM     24  C   UNL     1      -9.480  -0.640   0.035  0.00  0.00    +0.164 A 
ATOM     25  N   UNL     1     -10.415   0.053  -0.663  0.00  0.00    -0.335 N 
ATOM     26  H   UNL     1     -10.142   0.724  -1.308  0.00  0.00    +0.168 HD
ATOM     27  C   UNL     1     -11.757  -0.200  -0.452  0.00  0.00    +0.055 A 
ATOM     28  C   UNL     1     -12.875   0.391  -1.056  0.00  0.00    +0.027 A 
ATOM     29  C   UNL     1     -14.148   0.000  -0.709  0.00  0.00    +0.002 A 
ATOM     30  C   UNL     1     -14.361  -0.984   0.242  0.00  0.00    +0.001 A 
ATOM     31  C   UNL     1     -13.274  -1.584   0.853  0.00  0.00    +0.017 A 
ATOM     32  C   UNL     1     -12.002  -1.194   0.507  0.00  0.00    +0.039 A 
ATOM     33  S   UNL     1     -10.372  -1.678   1.010  0.00  0.00    -0.052 S 
ENDBRANCH  21  23
ENDBRANCH  20  21
ENDBRANCH  19  20
ENDBRANCH   4  19
TORSDOF 7
