REMARK  Name = ZINC39983510
REMARK  8 active torsions:
REMARK  status: ('A' for Active; 'I' for Inactive)
REMARK    1  A    between atoms: C_1  and  C_2
REMARK    2  A    between atoms: C_2  and  N_3
REMARK    3  A    between atoms: C_4  and  C_20
REMARK    4  A    between atoms: N_8  and  N_9
REMARK    5  A    between atoms: C_10  and  C_11
REMARK    6  A    between atoms: C_14  and  O_19
REMARK    7  A    between atoms: C_15  and  O_17
REMARK    8  A    between atoms: O_17  and  C_18
REMARK                            x       y       z     vdW  Elec       q    Type
REMARK                         _______ _______ _______ _____ _____    ______ ____
ROOT
ATOM      1  N   UNL     1       0.720  -0.095  -1.422  0.00  0.00    -0.318 N 
ATOM      2  C   UNL     1      -0.021  -0.804  -2.325  0.00  0.00    +0.058 A 
ATOM      3  C   UNL     1       0.600  -1.614  -3.208  0.00  0.00    +0.075 A 
ATOM      4  S   UNL     1       2.318  -1.391  -2.776  0.00  0.00    -0.056 S 
ATOM      5  C   UNL     1       2.088  -0.224  -1.443  0.00  0.00    +0.195 A 
ATOM      6  N   UNL     1       2.996   0.361  -0.678  0.00  0.00    -0.124 NA
ENDROOT
BRANCH   2   7
ATOM      7  C   UNL     1      -1.495  -0.685  -2.334  0.00  0.00    -0.001 A 
ATOM      8  C   UNL     1      -2.160  -0.302  -3.499  0.00  0.00    +0.011 A 
ATOM      9  C   UNL     1      -3.535  -0.194  -3.502  0.00  0.00    +0.020 A 
ATOM     10  C   UNL     1      -4.256  -0.463  -2.350  0.00  0.00    +0.041 A 
ATOM     11  C   UNL     1      -3.602  -0.843  -1.191  0.00  0.00    +0.020 A 
ATOM     12  C   UNL     1      -2.227  -0.961  -1.178  0.00  0.00    +0.011 A 
ATOM     13 CL   UNL     1      -5.986  -0.324  -2.361  0.00  0.00    -0.084 Cl
ENDBRANCH   2   7
BRANCH   1  15
ATOM     14  C   UNL     1      -0.196   2.151  -1.104  0.00  0.00    +0.027 C 
ATOM     15  C   UNL     1       0.069   0.791  -0.453  0.00  0.00    +0.121 C 
ENDBRANCH   1  15
BRANCH   6  16
ATOM     16  N   UNL     1       4.248   0.108  -0.854  0.00  0.00    -0.155 NA
ATOM     17  C   UNL     1       5.145   0.686  -0.099  0.00  0.00    +0.143 C 
BRANCH  17  18
ATOM     18  C   UNL     1       6.573   0.397  -0.299  0.00  0.00    -0.002 A 
ATOM     19  C   UNL     1       6.974  -0.491  -1.303  0.00  0.00    +0.013 A 
ATOM     20  C   UNL     1       8.314  -0.760  -1.489  0.00  0.00    +0.050 A 
ATOM     21  C   UNL     1       9.266  -0.151  -0.683  0.00  0.00    +0.158 A 
ATOM     22  C   UNL     1       8.874   0.735   0.318  0.00  0.00    +0.162 A 
ATOM     23  C   UNL     1       7.534   1.015   0.508  0.00  0.00    +0.059 A 
BRANCH  22  24
ATOM     24  O   UNL     1       9.811   1.329   1.105  0.00  0.00    -0.491 OA
ATOM     25  C   UNL     1       9.338   2.226   2.111  0.00  0.00    +0.277 C 
ENDBRANCH  22  24
BRANCH  21  26
ATOM     26  O   UNL     1      10.585  -0.421  -0.872  0.00  0.00    -0.503 OA
ATOM     27  H   UNL     1      11.022   0.172  -1.498  0.00  0.00    +0.292 HD
ENDBRANCH  21  26
ENDBRANCH  17  18
ENDBRANCH   6  16
TORSDOF 6
