REMARK  Name = ZINC08735503
REMARK  7 active torsions:
REMARK  status: ('A' for Active; 'I' for Inactive)
REMARK    1  A    between atoms: C_3  and  C_8
REMARK    2  A    between atoms: C_11  and  S_14
REMARK    3  A    between atoms: N_12  and  N_13
REMARK    4  A    between atoms: S_14  and  C_15
REMARK    5  A    between atoms: C_15  and  C_16
REMARK    6  A    between atoms: N_18  and  C_19
REMARK    7  A    between atoms: C_20  and  C_24
REMARK                            x       y       z     vdW  Elec       q    Type
REMARK                         _______ _______ _______ _____ _____    ______ ____
ROOT
ATOM      1  S   UNL     1       0.076   1.520  -0.418  0.00  0.00    -0.075 S 
ENDROOT
BRANCH   1   5
ATOM      2  C   UNL     1       3.550   3.203   0.187  0.00  0.00    +0.182 A 
ATOM      3  N   UNL     1       3.865   1.937   0.039  0.00  0.00    -0.127 NA
ATOM      4  N   UNL     1       2.804   1.242  -0.166  0.00  0.00    -0.121 NA
ATOM      5  C   UNL     1       1.747   2.023  -0.171  0.00  0.00    +0.209 A 
ATOM      6  N   UNL     1       2.184   3.297   0.057  0.00  0.00    -0.224 N 
BRANCH   2   9
ATOM      7  C   UNL     1       4.889   6.572   1.167  0.00  0.00    +0.002 A 
ATOM      8  C   UNL     1       4.010   5.536   0.928  0.00  0.00    +0.012 A 
ATOM      9  C   UNL     1       4.487   4.317   0.444  0.00  0.00    +0.022 A 
ATOM     10  C   UNL     1       5.853   4.152   0.209  0.00  0.00    +0.031 A 
ATOM     11  C   UNL     1       6.722   5.199   0.447  0.00  0.00    +0.042 A 
ATOM     12  C   UNL     1       6.241   6.405   0.927  0.00  0.00    +0.020 A 
ATOM     13 CL   UNL     1       8.420   4.999   0.149  0.00  0.00    -0.084 Cl
ENDBRANCH   2   9
BRANCH   6  14
ATOM     14  N   UNL     1       1.423   4.428   0.139  0.00  0.00    -0.295 N 
ATOM     15  H   UNL     1       1.201   4.646   1.099  0.00  0.00    +0.163 HD
ATOM     16  H   UNL     1       1.881   5.206  -0.312  0.00  0.00    +0.163 HD
ENDBRANCH   6  14
ENDBRANCH   1   5
BRANCH   1  17
ATOM     17  C   UNL     1       0.315  -0.260  -0.647  0.00  0.00    +0.173 C 
BRANCH  17  18
ATOM     18  C   UNL     1      -1.020  -0.919  -0.882  0.00  0.00    +0.228 C 
ATOM     19  O   UNL     1      -2.033  -0.252  -0.893  0.00  0.00    -0.275 OA
ATOM     20  N   UNL     1      -1.088  -2.251  -1.079  0.00  0.00    -0.279 N 
ATOM     21  H   UNL     1      -0.278  -2.785  -1.070  0.00  0.00    +0.155 HD
BRANCH  20  22
ATOM     22  C   UNL     1      -2.316  -2.858  -1.295  0.00  0.00    +0.084 A 
ATOM     23  C   UNL     1      -2.587  -4.202  -1.521  0.00  0.00    +0.065 A 
ATOM     24  C   UNL     1      -3.971  -4.562  -1.712  0.00  0.00    +0.022 A 
ATOM     25  C   UNL     1      -4.877  -3.568  -1.666  0.00  0.00    +0.048 A 
ATOM     26  S   UNL     1      -3.883  -2.123  -1.355  0.00  0.00    -0.081 S 
BRANCH  23  27
ATOM     27  C   UNL     1      -1.519  -5.206  -1.559  0.00  0.00    +0.244 C 
ATOM     28  O   UNL     1      -0.361  -4.870  -1.391  0.00  0.00    -0.270 OA
ATOM     29  N   UNL     1      -1.819  -6.501  -1.781  0.00  0.00    -0.325 N 
ATOM     30  H   UNL     1      -2.741  -6.769  -1.915  0.00  0.00    +0.145 HD
ATOM     31  H   UNL     1      -1.112  -7.165  -1.807  0.00  0.00    +0.145 HD
ENDBRANCH  23  27
ENDBRANCH  20  22
ENDBRANCH  17  18
ENDBRANCH   1  17
TORSDOF 7
