REMARK  Name = ZINC32945498
REMARK  16 active torsions:
REMARK  status: ('A' for Active; 'I' for Inactive)
REMARK    1  A    between atoms: C_1  and  C_2
REMARK    2  A    between atoms: C_2  and  C_4
REMARK    3  A    between atoms: C_2  and  O_14
REMARK    4  A    between atoms: N_6  and  C_7
REMARK    5  A    between atoms: C_7  and  C_8
REMARK    6  A    between atoms: C_7  and  C_9
REMARK    7  A    between atoms: C_7  and  C_11
REMARK    8  A    between atoms: C_11  and  C_12
REMARK    9  A    between atoms: C_11  and  C_13
REMARK   10  A    between atoms: O_14  and  C_15
REMARK   11  A    between atoms: C_15  and  C_17
REMARK   12  A    between atoms: C_19  and  S_29
REMARK   13  A    between atoms: C_22  and  N_23
REMARK   14  A    between atoms: S_29  and  N_32
REMARK   15  A    between atoms: N_32  and  C_33
REMARK   16  A    between atoms: N_32  and  C_34
REMARK                            x       y       z     vdW  Elec       q    Type
REMARK                         _______ _______ _______ _____ _____    ______ ____
ROOT
ATOM      1  C   UNL     1      -3.305  -1.213  -1.251  0.00  0.00    +0.082 A 
ATOM      2  C   UNL     1      -4.014  -1.479  -0.076  0.00  0.00    +0.045 A 
ATOM      3  C   UNL     1      -5.304  -1.954  -0.145  0.00  0.00    +0.106 A 
ATOM      4  C   UNL     1      -5.906  -2.171  -1.375  0.00  0.00    +0.030 A 
ATOM      5  C   UNL     1      -5.220  -1.914  -2.544  0.00  0.00    +0.026 A 
ATOM      6  C   UNL     1      -3.919  -1.428  -2.495  0.00  0.00    +0.044 A 
ENDROOT
BRANCH   6   7
ATOM      7  N   UNL     1      -3.228  -1.163  -3.670  0.00  0.00    -0.325 N 
ATOM      8  C   UNL     1      -2.420  -2.204  -4.324  0.00  0.00    +0.133 C 
ATOM      9  C   UNL     1      -2.818  -2.266  -5.803  0.00  0.00    +0.178 C 
ATOM     10  O   UNL     1      -2.743  -0.955  -6.367  0.00  0.00    -0.377 OA
ATOM     11  C   UNL     1      -3.640  -0.011  -5.777  0.00  0.00    +0.178 C 
ATOM     12  C   UNL     1      -3.288   0.165  -4.300  0.00  0.00    +0.133 C 
ENDBRANCH   6   7
BRANCH   3  13
ATOM     13  S   UNL     1      -6.196  -2.289   1.337  0.00  0.00    +0.060 S 
ATOM     14  O   UNL     1      -7.195  -3.243   1.004  0.00  0.00    -0.153 OA
ATOM     15  O   UNL     1      -5.226  -2.523   2.350  0.00  0.00    -0.153 OA
BRANCH  13  16
ATOM     16  N   UNL     1      -6.991  -0.898   1.756  0.00  0.00    -0.183 NA
ATOM     17  C   UNL     1      -8.345  -0.649   1.255  0.00  0.00    +0.131 C 
ATOM     18  C   UNL     1      -6.340   0.084   2.626  0.00  0.00    +0.131 C 
ENDBRANCH  13  16
ENDBRANCH   3  13
BRANCH   1  19
ATOM     19  C   UNL     1      -1.924  -0.704  -1.184  0.00  0.00    +0.342 C 
ATOM     20  O   UNL     1      -1.313  -0.469  -2.208  0.00  0.00    -0.245 OA
BRANCH  19  21
ATOM     21  O   UNL     1      -1.339  -0.499   0.012  0.00  0.00    -0.449 OA
BRANCH  21  23
ATOM     22  C   UNL     1      -0.019   1.526   0.010  0.00  0.00    +0.062 C 
ATOM     23  C   UNL     1       0.002  -0.004   0.002  0.00  0.00    +0.259 C 
BRANCH  23  24
ATOM     24  C   UNL     1       0.731  -0.503   1.223  0.00  0.00    +0.255 C 
ATOM     25  O   UNL     1       0.135  -1.137   2.068  0.00  0.00    -0.272 OA
ATOM     26  N   UNL     1       2.045  -0.246   1.375  0.00  0.00    -0.294 N 
ATOM     27  H   UNL     1       2.522   0.261   0.699  0.00  0.00    +0.150 HD
BRANCH  26  28
ATOM     28  C   UNL     1       2.754  -0.731   2.562  0.00  0.00    +0.121 C 
ATOM     29  C   UNL     1       2.667  -2.258   2.619  0.00  0.00    +0.048 C 
BRANCH  28  30
ATOM     30  C   UNL     1       4.222  -0.306   2.489  0.00  0.00    +0.020 C 
ATOM     31  C   UNL     1       4.933  -0.704   3.784  0.00  0.00    +0.010 C 
ATOM     32  C   UNL     1       4.895  -1.000   1.304  0.00  0.00    +0.010 C 
ENDBRANCH  28  30
BRANCH  28  33
ATOM     33  C   UNL     1       2.137  -0.159   3.770  0.00  0.00    +0.088 C 
ATOM     34  N   UNL     1       1.661   0.282   4.702  0.00  0.00    -0.194 NA
ENDBRANCH  28  33
ENDBRANCH  26  28
ENDBRANCH  23  24
ENDBRANCH  21  23
ENDBRANCH  19  21
ENDBRANCH   1  19
TORSDOF 10
