REMARK  Name = ZINC12790891
REMARK  15 active torsions:
REMARK  status: ('A' for Active; 'I' for Inactive)
REMARK    1  A    between atoms: C_1  and  C_2
REMARK    2  A    between atoms: C_7  and  C_9
REMARK    3  A    between atoms: C_7  and  C_31
REMARK    4  A    between atoms: C_7  and  N_71
REMARK    5  A    between atoms: C_9  and  N_10
REMARK    6  A    between atoms: C_11  and  C_13
REMARK    7  A    between atoms: C_13  and  C_15
REMARK    8  A    between atoms: C_13  and  N_18
REMARK    9  A    between atoms: C_15  and  C_16
REMARK   10  A    between atoms: C_15  and  C_17
REMARK   11  A    between atoms: C_19  and  C_21
REMARK   12  A    between atoms: C_23  and  O_29
REMARK   13  A    between atoms: C_25  and  O_27
REMARK   14  A    between atoms: O_27  and  C_28
REMARK   15  A    between atoms: O_29  and  C_30
REMARK                            x       y       z     vdW  Elec       q    Type
REMARK                         _______ _______ _______ _____ _____    ______ ____
ROOT
ATOM      1  N   UNL     1       0.134   3.394  -3.925  0.00  0.00    -0.315 N 
ATOM      2  C   UNL     1      -0.880   3.827  -4.699  0.00  0.00    +0.234 C 
ATOM      3  O   UNL     1      -1.503   3.039  -5.380  0.00  0.00    -0.274 OA
ATOM      4  H   UNL     1       0.668   4.030  -3.425  0.00  0.00    +0.149 HD
ENDROOT
BRANCH   1   5
ATOM      5  C   UNL     1       0.430   1.962  -3.839  0.00  0.00    +0.094 C 
BRANCH   5   6
ATOM      6  C   UNL     1       1.542   1.731  -2.813  0.00  0.00    -0.013 C 
BRANCH   6  13
ATOM      7  C   UNL     1       2.239  -3.730  -1.276  0.00  0.00    +0.007 C 
ATOM      8  C   UNL     1       1.964  -2.225  -1.247  0.00  0.00    -0.018 C 
ATOM      9  C   UNL     1       3.205  -1.469  -1.730  0.00  0.00    -0.015 C 
ATOM     10  C   UNL     1       2.904   0.032  -1.757  0.00  0.00    -0.078 C 
ATOM     11  C   UNL     1       0.556  -0.389  -2.185  0.00  0.00    -0.078 C 
ATOM     12  C   UNL     1       0.787  -1.901  -2.171  0.00  0.00    -0.015 C 
ATOM     13  N   UNL     1       1.778   0.279  -2.682  0.00  0.00    +0.386 N 
ATOM     14  H   UNL     1       2.015  -0.105  -3.605  0.00  0.00    -0.081 HD
ENDBRANCH   6  13
BRANCH   6  15
ATOM     15  C   UNL     1       2.810   2.393  -3.289  0.00  0.00    -0.022 A 
ATOM     16  C   UNL     1       3.343   3.582  -2.918  0.00  0.00    +0.009 A 
ATOM     17  C   UNL     1       4.531   3.993  -3.494  0.00  0.00    +0.008 A 
ATOM     18  C   UNL     1       5.127   3.194  -4.412  0.00  0.00    +0.045 A 
ATOM     19  S   UNL     1       4.003   1.808  -4.481  0.00  0.00    -0.103 S 
ENDBRANCH   6  15
ENDBRANCH   5   6
ENDBRANCH   1   5
BRANCH   2  20
ATOM     20  C   UNL     1      -1.241   5.290  -4.720  0.00  0.00    +0.162 C 
BRANCH  20  21
ATOM     21  N   UNL     1      -2.196   5.542  -5.802  0.00  0.00    -0.300 N 
ATOM     22  C   UNL     1      -2.287   6.771  -6.348  0.00  0.00    +0.245 C 
ATOM     23  O   UNL     1      -1.576   7.669  -5.944  0.00  0.00    -0.270 OA
ATOM     24  H   UNL     1      -2.764   4.824  -6.125  0.00  0.00    +0.150 HD
BRANCH  22  25
ATOM     25  C   UNL     1      -3.251   7.025  -7.441  0.00  0.00    +0.044 A 
ATOM     26  C   UNL     1      -4.064   5.993  -7.910  0.00  0.00    +0.059 A 
ATOM     27  C   UNL     1      -4.970   6.238  -8.929  0.00  0.00    +0.124 A 
ATOM     28  C   UNL     1      -5.061   7.503  -9.491  0.00  0.00    +0.091 A 
ATOM     29  C   UNL     1      -4.250   8.530  -9.030  0.00  0.00    +0.124 A 
ATOM     30  C   UNL     1      -3.346   8.296  -8.008  0.00  0.00    +0.059 A 
BRANCH  29  31
ATOM     31  O   UNL     1      -4.344   9.768  -9.583  0.00  0.00    -0.495 OA
ATOM     32  C   UNL     1      -5.298   9.939 -10.633  0.00  0.00    +0.277 C 
ENDBRANCH  29  31
BRANCH  27  33
ATOM     33  O   UNL     1      -5.767   5.235  -9.384  0.00  0.00    -0.495 OA
ATOM     34  C   UNL     1      -6.673   5.555 -10.441  0.00  0.00    +0.277 C 
ENDBRANCH  27  33
ENDBRANCH  22  25
ENDBRANCH  20  21
BRANCH  20  35
ATOM     35  C   UNL     1      -1.873   5.678  -3.382  0.00  0.00    +0.012 C 
ATOM     36  C   UNL     1      -3.164   4.883  -3.177  0.00  0.00    +0.009 C 
ATOM     37  C   UNL     1      -0.895   5.365  -2.247  0.00  0.00    +0.009 C 
ENDBRANCH  20  35
ENDBRANCH   2  20
TORSDOF 10
