REMARK  Name = ZINC57796757
REMARK  5 active torsions:
REMARK  status: ('A' for Active; 'I' for Inactive)
REMARK    1  A    between atoms: C_1  and  C_2
REMARK    2  A    between atoms: C_3  and  C_14
REMARK    3  A    between atoms: C_6  and  C_8
REMARK    4  A    between atoms: N_16  and  N_17
REMARK    5  A    between atoms: N_17  and  C_18
REMARK                            x       y       z     vdW  Elec       q    Type
REMARK                         _______ _______ _______ _____ _____    ______ ____
ROOT
ATOM      1  C   UNL     1      -0.073   1.502   0.015  0.00  0.00    +0.066 C 
ATOM      2  C   UNL     1      -0.024  -0.005   0.004  0.00  0.00    +0.051 A 
ATOM      3  C   UNL     1      -0.100  -0.690  -1.210  0.00  0.00    +0.059 A 
ATOM      4  C   UNL     1      -0.054  -2.091  -1.206  0.00  0.00    +0.017 A 
ATOM      5  C   UNL     1       0.066  -2.740   0.006  0.00  0.00    +0.029 A 
ATOM      6  C   UNL     1       0.137  -1.987   1.178  0.00  0.00    +0.071 A 
ATOM      7  N   UNL     1       0.095  -0.660   1.138  0.00  0.00    -0.251 NA
ENDROOT
BRANCH   6   8
ATOM      8  C   UNL     1       0.265  -2.676   2.484  0.00  0.00    +0.000 A 
ATOM      9  C   UNL     1       0.321  -4.068   2.538  0.00  0.00    +0.010 A 
ATOM     10  C   UNL     1       0.440  -4.704   3.757  0.00  0.00    +0.001 A 
ATOM     11  C   UNL     1       0.505  -3.962   4.924  0.00  0.00    +0.000 A 
ATOM     12  C   UNL     1       0.450  -2.581   4.876  0.00  0.00    +0.001 A 
ATOM     13  C   UNL     1       0.336  -1.934   3.663  0.00  0.00    +0.010 A 
ENDBRANCH   6   8
BRANCH   3  14
ATOM     14  C   UNL     1      -0.228   0.051  -2.482  0.00  0.00    +0.262 C 
ATOM     15  O   UNL     1      -0.154   1.265  -2.488  0.00  0.00    -0.269 OA
ATOM     16  N   UNL     1      -0.428  -0.617  -3.635  0.00  0.00    -0.232 N 
ATOM     17  H   UNL     1      -0.487  -1.585  -3.630  0.00  0.00    +0.173 HD
BRANCH  16  18
ATOM     18  N   UNL     1      -0.550   0.086  -4.840  0.00  0.00    -0.264 N 
ATOM     19  H   UNL     1      -0.490   1.054  -4.845  0.00  0.00    +0.170 HD
BRANCH  18  20
ATOM     20  C   UNL     1      -0.757  -0.608  -6.036  0.00  0.00    +0.045 A 
ATOM     21  C   UNL     1      -0.848  -1.994  -6.030  0.00  0.00    +0.027 A 
ATOM     22  C   UNL     1      -1.052  -2.677  -7.212  0.00  0.00    +0.040 A 
ATOM     23  C   UNL     1      -1.166  -1.982  -8.404  0.00  0.00    +0.124 A 
ATOM     24  C   UNL     1      -1.075  -0.600  -8.413  0.00  0.00    +0.040 A 
ATOM     25  C   UNL     1      -0.877   0.088  -7.232  0.00  0.00    +0.027 A 
ATOM     26  F   UNL     1      -1.366  -2.652  -9.560  0.00  0.00    -0.205 F 
ENDBRANCH  18  20
ENDBRANCH  16  18
ENDBRANCH   3  14
TORSDOF 4
