REMARK  Name = ZINC13494578
REMARK  19 active torsions:
REMARK  status: ('A' for Active; 'I' for Inactive)
REMARK    1  A    between atoms: C_1  and  C_2
REMARK    2  A    between atoms: C_2  and  C_3
REMARK    3  A    between atoms: C_3  and  C_5
REMARK    4  A    between atoms: C_3  and  N_79
REMARK    5  A    between atoms: N_9  and  C_10
REMARK    6  A    between atoms: C_10  and  C_11
REMARK    7  A    between atoms: C_10  and  C_12
REMARK    8  A    between atoms: C_10  and  C_13
REMARK    9  A    between atoms: C_14  and  C_15
REMARK   10  A    between atoms: C_14  and  N_79
REMARK   11  A    between atoms: C_15  and  C_16
REMARK   12  A    between atoms: C_19  and  O_24
REMARK   13  A    between atoms: C_20  and  O_22
REMARK   14  A    between atoms: O_22  and  C_23
REMARK   15  A    between atoms: O_24  and  C_25
REMARK   16  A    between atoms: C_26  and  C_27
REMARK   17  A    between atoms: C_26  and  N_79
REMARK   18  A    between atoms: C_31  and  C_40
REMARK   19  A    between atoms: C_33  and  C_39
REMARK                            x       y       z     vdW  Elec       q    Type
REMARK                         _______ _______ _______ _____ _____    ______ ____
ROOT
ATOM      1  N   UNL     1      -2.383   7.988  -2.129  0.00  0.00    +0.389 N 
ATOM      2  H   UNL     1      -1.523   7.596  -2.530  0.00  0.00    -0.080 HD
ENDROOT
BRANCH   1   3
ATOM      3  C   UNL     1      -3.542   7.232  -2.646  0.00  0.00    +0.003 C 
BRANCH   3   4
ATOM      4  C   UNL     1      -3.195   6.696  -4.011  0.00  0.00    +0.139 A 
ATOM      5  N   UNL     1      -2.423   7.267  -4.903  0.00  0.00    -0.115 NA
ATOM      6  N   UNL     1      -2.372   6.498  -5.936  0.00  0.00    -0.023 NA
ATOM      7  N   UNL     1      -3.098   5.455  -5.729  0.00  0.00    -0.043 NA
ATOM      8  N   UNL     1      -3.622   5.540  -4.553  0.00  0.00    -0.226 N 
BRANCH   8   9
ATOM      9  C   UNL     1      -4.514   4.562  -3.925  0.00  0.00    +0.059 C 
ATOM     10  C   UNL     1      -5.760   5.274  -3.396  0.00  0.00    +0.036 C 
ATOM     11  C   UNL     1      -4.927   3.512  -4.959  0.00  0.00    +0.036 C 
ATOM     12  C   UNL     1      -3.786   3.877  -2.767  0.00  0.00    +0.036 C 
ENDBRANCH   8   9
ENDBRANCH   3   4
BRANCH   3  14
ATOM     13  C   UNL     1      -5.230   8.541  -1.350  0.00  0.00    +0.002 C 
ATOM     14  C   UNL     1      -4.768   8.142  -2.753  0.00  0.00    -0.011 C 
ENDBRANCH   3  14
ENDBRANCH   1   3
BRANCH   1  15
ATOM     15  C   UNL     1      -2.491   9.409  -2.522  0.00  0.00    -0.073 C 
BRANCH  15  16
ATOM     16  C   UNL     1      -2.277   9.521  -4.033  0.00  0.00    +0.017 C 
BRANCH  16  17
ATOM     17  C   UNL     1      -2.209  10.974  -4.425  0.00  0.00    -0.045 A 
ATOM     18  C   UNL     1      -3.363  11.649  -4.776  0.00  0.00    +0.007 A 
ATOM     19  C   UNL     1      -3.307  12.984  -5.131  0.00  0.00    +0.049 A 
ATOM     20  C   UNL     1      -2.089  13.646  -5.145  0.00  0.00    +0.161 A 
ATOM     21  C   UNL     1      -0.927  12.965  -4.797  0.00  0.00    +0.162 A 
ATOM     22  C   UNL     1      -0.991  11.629  -4.437  0.00  0.00    +0.053 A 
BRANCH  21  23
ATOM     23  O   UNL     1       0.270  13.610  -4.809  0.00  0.00    -0.491 OA
ATOM     24  C   UNL     1       1.422  12.849  -4.440  0.00  0.00    +0.277 C 
ENDBRANCH  21  23
BRANCH  20  25
ATOM     25  O   UNL     1      -2.031  14.957  -5.499  0.00  0.00    -0.491 OA
ATOM     26  C   UNL     1      -3.264  15.592  -5.845  0.00  0.00    +0.277 C 
ENDBRANCH  20  25
ENDBRANCH  16  17
ENDBRANCH  15  16
ENDBRANCH   1  15
BRANCH   1  27
ATOM     27  C   UNL     1      -2.321   7.874  -0.657  0.00  0.00    -0.037 C 
BRANCH  27  28
ATOM     28  C   UNL     1      -1.760   6.522  -0.300  0.00  0.00    +0.001 A 
ATOM     29  C   UNL     1      -0.424   6.371  -0.123  0.00  0.00    +0.017 A 
ATOM     30  C   UNL     1       0.090   5.044   0.223  0.00  0.00    -0.001 A 
ATOM     31  C   UNL     1       1.458   4.826   0.419  0.00  0.00    +0.013 A 
ATOM     32  C   UNL     1       1.905   3.576   0.741  0.00  0.00    -0.050 A 
ATOM     33  C   UNL     1       1.014   2.520   0.876  0.00  0.00    +0.008 A 
ATOM     34  C   UNL     1      -0.337   2.710   0.681  0.00  0.00    -0.026 A 
ATOM     35  C   UNL     1      -0.817   3.975   0.358  0.00  0.00    +0.052 A 
ATOM     36  N   UNL     1      -2.164   4.196   0.165  0.00  0.00    -0.322 N 
ATOM     37  H   UNL     1      -2.787   3.458   0.259  0.00  0.00    +0.169 HD
ATOM     38  C   UNL     1      -2.626   5.418  -0.152  0.00  0.00    +0.251 A 
ATOM     39  O   UNL     1      -3.823   5.576  -0.316  0.00  0.00    -0.268 OA
ATOM     40  C   UNL     1      -1.292   1.553   0.825  0.00  0.00    +0.046 C 
ATOM     41  C   UNL     1       3.378   3.342   0.953  0.00  0.00    +0.044 C 
ENDBRANCH  27  28
ENDBRANCH   1  27
TORSDOF 11
