REMARK  Name = ZINC27529492
REMARK  8 active torsions:
REMARK  status: ('A' for Active; 'I' for Inactive)
REMARK    1  A    between atoms: C_1  and  C_2
REMARK    2  A    between atoms: C_8  and  N_10
REMARK    3  A    between atoms: N_10  and  S_11
REMARK    4  A    between atoms: S_11  and  C_14
REMARK    5  A    between atoms: C_23  and  S_24
REMARK    6  A    between atoms: S_24  and  N_27
REMARK    7  A    between atoms: N_27  and  C_28
REMARK    8  A    between atoms: C_34  and  C_36
REMARK                            x       y       z     vdW  Elec       q    Type
REMARK                         _______ _______ _______ _____ _____    ______ ____
ROOT
ATOM      1  C   UNL     1       2.247  -1.095   3.097  0.00  0.00    +0.113 A 
ATOM      2  C   UNL     1       3.561  -1.395   3.287  0.00  0.00    +0.029 A 
ATOM      3  C   UNL     1       3.943  -2.575   3.922  0.00  0.00    +0.003 A 
ATOM      4  C   UNL     1       3.013  -3.462   4.372  0.00  0.00    +0.010 A 
ATOM      5  C   UNL     1       1.647  -3.186   4.194  0.00  0.00    +0.010 A 
ATOM      6  C   UNL     1       1.258  -1.983   3.553  0.00  0.00    +0.010 A 
ATOM      7  C   UNL     1      -0.108  -1.705   3.380  0.00  0.00    +0.010 A 
ATOM      8  C   UNL     1      -1.038  -2.589   3.835  0.00  0.00    +0.003 A 
ATOM      9  C   UNL     1      -0.656  -3.768   4.471  0.00  0.00    +0.029 A 
ATOM     10  C   UNL     1       0.658  -4.077   4.645  0.00  0.00    +0.113 A 
ENDROOT
BRANCH   1  11
ATOM     11  S   UNL     1       1.789   0.403   2.290  0.00  0.00    +0.059 S 
ATOM     12  O   UNL     1       0.849   0.051   1.284  0.00  0.00    -0.153 OA
ATOM     13  O   UNL     1       2.996   1.093   1.998  0.00  0.00    -0.153 OA
BRANCH  11  14
ATOM     14  N   UNL     1       0.973   1.325   3.397  0.00  0.00    -0.187 NA
ATOM     15  H   UNL     1       0.033   1.526   3.263  0.00  0.00    +0.148 HD
BRANCH  14  22
ATOM     16  C   UNL     1       1.406   4.170   3.725  0.00  0.00    +0.009 C 
ATOM     17  C   UNL     1       1.150   3.237   4.911  0.00  0.00    +0.005 C 
ATOM     18  C   UNL     1      -0.352   3.171   5.193  0.00  0.00    +0.005 C 
ATOM     19  C   UNL     1      -0.608   2.239   6.379  0.00  0.00    +0.000 C 
ATOM     20  C   UNL     1      -0.089   0.838   6.048  0.00  0.00    +0.002 C 
ATOM     21  C   UNL     1       1.414   0.904   5.766  0.00  0.00    +0.020 C 
ATOM     22  C   UNL     1       1.669   1.837   4.580  0.00  0.00    +0.079 C 
ENDBRANCH  14  22
ENDBRANCH  11  14
ENDBRANCH   1  11
BRANCH  10  23
ATOM     23  S   UNL     1       1.117  -5.575   5.451  0.00  0.00    +0.059 S 
ATOM     24  O   UNL     1      -0.092  -6.227   5.815  0.00  0.00    -0.153 OA
ATOM     25  O   UNL     1       2.098  -6.194   4.631  0.00  0.00    -0.153 OA
BRANCH  23  26
ATOM     26  N   UNL     1       1.874  -5.159   6.864  0.00  0.00    -0.187 NA
ATOM     27  H   UNL     1       2.812  -5.371   6.992  0.00  0.00    +0.148 HD
BRANCH  26  28
ATOM     28  C   UNL     1       1.128  -4.471   7.920  0.00  0.00    +0.079 C 
ATOM     29  C   UNL     1       0.590  -5.498   8.917  0.00  0.00    +0.020 C 
ATOM     30  C   UNL     1      -0.189  -4.779  10.020  0.00  0.00    +0.002 C 
ATOM     31  C   UNL     1       0.738  -3.801  10.745  0.00  0.00    +0.000 C 
ATOM     32  C   UNL     1       1.276  -2.774   9.748  0.00  0.00    +0.005 C 
ATOM     33  C   UNL     1       2.055  -3.493   8.645  0.00  0.00    +0.005 C 
ATOM     34  C   UNL     1       2.593  -2.465   7.647  0.00  0.00    +0.009 C 
ENDBRANCH  26  28
ENDBRANCH  23  26
ENDBRANCH  10  23
TORSDOF 6
