REMARK  Name = ZINC66303094
REMARK  7 active torsions:
REMARK  status: ('A' for Active; 'I' for Inactive)
REMARK    1  A    between atoms: C_1  and  C_2
REMARK    2  A    between atoms: C_2  and  C_4
REMARK    3  A    between atoms: C_2  and  N_18
REMARK    4  A    between atoms: C_4  and  C_5
REMARK    5  A    between atoms: N_7  and  C_8
REMARK    6  A    between atoms: C_11  and  C_15
REMARK    7  A    between atoms: C_19  and  C_21
REMARK                            x       y       z     vdW  Elec       q    Type
REMARK                         _______ _______ _______ _____ _____    ______ ____
ROOT
ATOM      1  C   UNL     1       0.655  -2.014   1.299  0.00  0.00    +0.219 C 
ATOM      2  O   UNL     1       0.052  -2.620   0.438  0.00  0.00    -0.275 OA
ATOM      3  N   UNL     1       1.241  -2.685   2.311  0.00  0.00    -0.285 N 
ATOM      4  H   UNL     1       1.778  -2.208   2.962  0.00  0.00    +0.155 HD
ENDROOT
BRANCH   3   5
ATOM      5  C   UNL     1       1.074  -4.065   2.420  0.00  0.00    +0.035 A 
ATOM      6  C   UNL     1       0.998  -4.849   1.272  0.00  0.00    +0.024 A 
ATOM      7  C   UNL     1       0.833  -6.211   1.376  0.00  0.00    +0.016 A 
ATOM      8  C   UNL     1       0.744  -6.809   2.636  0.00  0.00    +0.055 A 
ATOM      9  C   UNL     1       0.821  -6.019   3.788  0.00  0.00    +0.055 A 
ATOM     10  C   UNL     1       0.991  -4.656   3.676  0.00  0.00    +0.044 A 
ATOM     11 CL   UNL     1       0.710  -6.756   5.356  0.00  0.00    -0.083 Cl
BRANCH   8  12
ATOM     12  C   UNL     1       0.567  -8.269   2.751  0.00  0.00    +0.243 C 
ATOM     13  O   UNL     1       0.489  -8.788   3.848  0.00  0.00    -0.270 OA
ATOM     14  N   UNL     1       0.492  -9.028   1.640  0.00  0.00    -0.325 N 
ATOM     15  H   UNL     1       0.554  -8.615   0.765  0.00  0.00    +0.145 HD
ATOM     16  H   UNL     1       0.376  -9.989   1.716  0.00  0.00    +0.145 HD
ENDBRANCH   8  12
ENDBRANCH   3   5
BRANCH   1  17
ATOM     17  C   UNL     1       0.748  -0.511   1.238  0.00  0.00    +0.118 C 
BRANCH  17  19
ATOM     18  C   UNL     1      -0.009   1.526   0.006  0.00  0.00    +0.028 C 
ATOM     19  C   UNL     1       0.004  -0.004   0.002  0.00  0.00    +0.079 C 
BRANCH  19  20
ATOM     20  N   UNL     1       0.680  -0.483  -1.206  0.00  0.00    -0.312 N 
ATOM     21  C   UNL     1      -0.009  -0.614  -2.357  0.00  0.00    +0.216 C 
ATOM     22  O   UNL     1      -1.188  -0.335  -2.393  0.00  0.00    -0.276 OA
ATOM     23  H   UNL     1       1.624  -0.706  -1.178  0.00  0.00    +0.149 HD
BRANCH  21  24
ATOM     24  C   UNL     1       0.687  -1.108  -3.600  0.00  0.00    +0.075 C 
ATOM     25  C   UNL     1       1.828  -0.153  -3.958  0.00  0.00    +0.013 C 
ATOM     26  C   UNL     1       2.535  -0.654  -5.220  0.00  0.00    +0.001 C 
ATOM     27  C   UNL     1       1.534  -0.710  -6.376  0.00  0.00    +0.000 C 
ATOM     28  C   UNL     1       0.394  -1.665  -6.018  0.00  0.00    +0.001 C 
ATOM     29  C   UNL     1      -0.313  -1.164  -4.756  0.00  0.00    +0.013 C 
ENDBRANCH  21  24
ENDBRANCH  19  20
ENDBRANCH  17  19
ENDBRANCH   1  17
TORSDOF 6
