REMARK  Name = ZINC09911080
REMARK  10 active torsions:
REMARK  status: ('A' for Active; 'I' for Inactive)
REMARK    1  A    between atoms: C_1  and  C_2
REMARK    2  A    between atoms: C_4  and  N_9
REMARK    3  A    between atoms: C_6  and  C_8
REMARK    4  A    between atoms: N_9  and  S_10
REMARK    5  A    between atoms: S_10  and  C_13
REMARK    6  A    between atoms: C_16  and  N_19
REMARK    7  A    between atoms: C_20  and  C_22
REMARK    8  A    between atoms: C_22  and  C_24
REMARK    9  A    between atoms: C_22  and  S_25
REMARK   10  A    between atoms: S_25  and  C_26
REMARK                            x       y       z     vdW  Elec       q    Type
REMARK                         _______ _______ _______ _____ _____    ______ ____
ROOT
ATOM      1  C   UNL     1      -2.016  -1.076   1.312  0.00  0.00    +0.109 A 
ATOM      2  C   UNL     1      -1.790  -2.396   1.656  0.00  0.00    +0.030 A 
ATOM      3  C   UNL     1      -2.016  -2.823   2.950  0.00  0.00    +0.025 A 
ATOM      4  C   UNL     1      -2.479  -1.926   3.904  0.00  0.00    +0.034 A 
ATOM      5  C   UNL     1      -2.709  -0.602   3.554  0.00  0.00    +0.025 A 
ATOM      6  C   UNL     1      -2.477  -0.181   2.260  0.00  0.00    +0.030 A 
ENDROOT
BRANCH   4   7
ATOM      7  N   UNL     1      -2.712  -2.356   5.215  0.00  0.00    -0.285 N 
ATOM      8  C   UNL     1      -3.709  -1.807   5.937  0.00  0.00    +0.230 C 
ATOM      9  O   UNL     1      -4.458  -1.003   5.423  0.00  0.00    -0.274 OA
ATOM     10  H   UNL     1      -2.157  -3.049   5.604  0.00  0.00    +0.155 HD
BRANCH   8  11
ATOM     11  C   UNL     1      -3.893  -2.191   7.382  0.00  0.00    +0.134 C 
ATOM     12  C   UNL     1      -2.982  -1.330   8.259  0.00  0.00    +0.029 C 
BRANCH  11  13
ATOM     13  S   UNL     1      -5.622  -1.925   7.863  0.00  0.00    -0.113 S 
BRANCH  13  14
ATOM     14  C   UNL     1      -5.713  -2.573   9.499  0.00  0.00    +0.009 A 
ATOM     15  C   UNL     1      -5.928  -3.931   9.699  0.00  0.00    +0.016 A 
ATOM     16  C   UNL     1      -5.994  -4.437  10.982  0.00  0.00    +0.021 A 
ATOM     17  C   UNL     1      -5.858  -3.591  12.069  0.00  0.00    +0.041 A 
ATOM     18  C   UNL     1      -5.649  -2.237  11.873  0.00  0.00    +0.021 A 
ATOM     19  C   UNL     1      -5.577  -1.726  10.592  0.00  0.00    +0.016 A 
ATOM     20 CL   UNL     1      -5.947  -4.230  13.681  0.00  0.00    -0.084 Cl
ENDBRANCH  13  14
ENDBRANCH  11  13
ENDBRANCH   8  11
ENDBRANCH   4   7
BRANCH   1  21
ATOM     21  S   UNL     1      -1.721  -0.534  -0.339  0.00  0.00    +0.073 S 
ATOM     22  O   UNL     1      -2.532   0.615  -0.540  0.00  0.00    -0.150 OA
ATOM     23  O   UNL     1      -1.812  -1.686  -1.166  0.00  0.00    -0.150 OA
BRANCH  21  24
ATOM     24  N   UNL     1      -0.148  -0.022  -0.412  0.00  0.00    -0.199 N 
ATOM     25  H   UNL     1       0.051   0.911  -0.586  0.00  0.00    +0.175 HD
BRANCH  24  29
ATOM     26  C   UNL     1       4.660  -1.050  -0.166  0.00  0.00    +0.066 C 
ATOM     27  C   UNL     1       3.208  -1.450  -0.105  0.00  0.00    +0.044 A 
ATOM     28  C   UNL     1       2.215  -0.509  -0.292  0.00  0.00    +0.068 A 
ATOM     29  C   UNL     1       0.885  -0.927  -0.227  0.00  0.00    +0.141 A 
ATOM     30  N   UNL     1       0.625  -2.210   0.012  0.00  0.00    -0.216 NA
ATOM     31  C   UNL     1       1.604  -3.074   0.184  0.00  0.00    +0.128 A 
ATOM     32  N   UNL     1       2.869  -2.710   0.128  0.00  0.00    -0.237 NA
ATOM     33  C   UNL     1       1.268  -4.518   0.452  0.00  0.00    +0.088 C 
ENDBRANCH  24  29
ENDBRANCH  21  24
ENDBRANCH   1  21
TORSDOF 7
