REMARK  Name = ZINC36555705
REMARK  19 active torsions:
REMARK  status: ('A' for Active; 'I' for Inactive)
REMARK    1  A    between atoms: C_1  and  C_2
REMARK    2  A    between atoms: C_5  and  C_7
REMARK    3  A    between atoms: C_7  and  N_8
REMARK    4  A    between atoms: N_8  and  C_9
REMARK    5  A    between atoms: C_9  and  C_11
REMARK    6  A    between atoms: C_9  and  C_19
REMARK    7  A    between atoms: C_14  and  O_17
REMARK    8  A    between atoms: O_17  and  C_18
REMARK    9  A    between atoms: N_21  and  C_22
REMARK   10  A    between atoms: C_22  and  C_23
REMARK   11  A    between atoms: C_22  and  C_24
REMARK   12  A    between atoms: C_22  and  C_25
REMARK   13  A    between atoms: C_25  and  C_26
REMARK   14  A    between atoms: C_26  and  C_27
REMARK   15  A    between atoms: C_26  and  C_28
REMARK   16  A    between atoms: C_26  and  C_29
REMARK   17  A    between atoms: C_30  and  C_32
REMARK   18  A    between atoms: C_37  and  O_38
REMARK   19  A    between atoms: O_38  and  C_39
REMARK                            x       y       z     vdW  Elec       q    Type
REMARK                         _______ _______ _______ _____ _____    ______ ____
ROOT
ATOM      1  C   UNL     1       3.097  -3.325  -1.324  0.00  0.00    +0.193 C 
ENDROOT
BRANCH   1   2
ATOM      2  C   UNL     1       2.526  -2.203  -2.152  0.00  0.00    -0.018 A 
ATOM      3  C   UNL     1       1.589  -2.476  -3.131  0.00  0.00    +0.009 A 
ATOM      4  C   UNL     1       1.064  -1.449  -3.893  0.00  0.00    +0.046 A 
ATOM      5  C   UNL     1       1.478  -0.144  -3.673  0.00  0.00    +0.120 A 
ATOM      6  C   UNL     1       2.418   0.128  -2.690  0.00  0.00    +0.046 A 
ATOM      7  C   UNL     1       2.936  -0.902  -1.928  0.00  0.00    +0.009 A 
BRANCH   5   8
ATOM      8  O   UNL     1       0.964   0.868  -4.421  0.00  0.00    -0.495 OA
ATOM      9  C   UNL     1       1.436   2.187  -4.140  0.00  0.00    +0.277 C 
ENDBRANCH   5   8
ENDBRANCH   1   2
BRANCH   1  10
ATOM     10  C   UNL     1       4.426  -3.745  -1.896  0.00  0.00    +0.239 C 
ATOM     11  O   UNL     1       4.580  -4.876  -2.305  0.00  0.00    -0.273 OA
ATOM     12  N   UNL     1       5.444  -2.864  -1.952  0.00  0.00    -0.308 N 
ATOM     13  H   UNL     1       5.321  -1.959  -1.625  0.00  0.00    +0.149 HD
BRANCH  12  14
ATOM     14  C   UNL     1       6.737  -3.272  -2.508  0.00  0.00    +0.030 C 
ATOM     15  C   UNL     1       7.432  -4.227  -1.535  0.00  0.00    +0.031 C 
ATOM     16  C   UNL     1       6.516  -3.979  -3.847  0.00  0.00    +0.031 C 
BRANCH  14  17
ATOM     17  C   UNL     1       7.613  -2.036  -2.723  0.00  0.00    +0.031 C 
BRANCH  17  18
ATOM     18  C   UNL     1       6.764  -0.904  -3.304  0.00  0.00    -0.036 C 
ATOM     19  C   UNL     1       5.758  -0.430  -2.254  0.00  0.00    +0.010 C 
ATOM     20  C   UNL     1       7.672   0.261  -3.703  0.00  0.00    +0.010 C 
ATOM     21  C   UNL     1       6.013  -1.411  -4.537  0.00  0.00    +0.010 C 
ENDBRANCH  17  18
ENDBRANCH  14  17
ENDBRANCH  12  14
ENDBRANCH   1  10
BRANCH   1  22
ATOM     22  N   UNL     1       2.176  -4.464  -1.343  0.00  0.00    -0.275 N 
ATOM     23  C   UNL     1       0.967  -4.362  -0.756  0.00  0.00    +0.251 C 
ATOM     24  O   UNL     1       0.179  -5.286  -0.823  0.00  0.00    -0.270 OA
BRANCH  23  25
ATOM     25  C   UNL     1       0.599  -3.130  -0.032  0.00  0.00    +0.078 A 
ATOM     26  C   UNL     1       1.468  -2.037  -0.020  0.00  0.00    +0.017 A 
ATOM     27  C   UNL     1       1.119  -0.889   0.657  0.00  0.00    +0.001 A 
ATOM     28  C   UNL     1      -0.091  -0.814   1.328  0.00  0.00    +0.004 A 
ATOM     29  C   UNL     1      -0.959  -1.887   1.324  0.00  0.00    +0.046 A 
ATOM     30  C   UNL     1      -0.626  -3.048   0.643  0.00  0.00    +0.132 A 
BRANCH  30  31
ATOM     31  O   UNL     1      -1.481  -4.102   0.634  0.00  0.00    -0.494 OA
ATOM     32  C   UNL     1      -2.711  -3.945   1.344  0.00  0.00    +0.277 C 
ENDBRANCH  30  31
ENDBRANCH  23  25
BRANCH  22  33
ATOM     33  C   UNL     1       2.568  -5.713  -2.000  0.00  0.00    +0.183 C 
BRANCH  33  38
ATOM     34  C   UNL     1       6.345  -7.907   0.522  0.00  0.00    +0.086 C 
ATOM     35  C   UNL     1       4.954  -7.538   0.077  0.00  0.00    +0.102 A 
ATOM     36  C   UNL     1       3.809  -8.029   0.585  0.00  0.00    +0.045 A 
ATOM     37  C   UNL     1       2.750  -7.414  -0.122  0.00  0.00    +0.046 A 
ATOM     38  C   UNL     1       3.311  -6.584  -1.019  0.00  0.00    +0.122 A 
ATOM     39  O   UNL     1       4.646  -6.659  -0.890  0.00  0.00    -0.463 OA
ENDBRANCH  33  38
ENDBRANCH  22  33
ENDBRANCH   1  22
TORSDOF 11
