REMARK  Name = ZINC11881219
REMARK  6 active torsions:
REMARK  status: ('A' for Active; 'I' for Inactive)
REMARK    1  A    between atoms: C_4  and  C_26
REMARK    2  A    between atoms: C_5  and  C_7
REMARK    3  A    between atoms: C_7  and  N_51
REMARK    4  A    between atoms: C_8  and  C_9
REMARK    5  A    between atoms: C_8  and  N_51
REMARK    6  A    between atoms: C_17  and  N_18
REMARK                            x       y       z     vdW  Elec       q    Type
REMARK                         _______ _______ _______ _____ _____    ______ ____
ROOT
ATOM      1  C   UNL     1       4.661  -2.331   2.290  0.00  0.00    -0.026 A 
ATOM      2  C   UNL     1       4.307  -1.123   1.766  0.00  0.00    +0.015 A 
ATOM      3  C   UNL     1       2.991  -0.962   1.288  0.00  0.00    +0.002 A 
ATOM      4  C   UNL     1       2.562   0.256   0.737  0.00  0.00    +0.059 A 
ATOM      5  C   UNL     1       1.280   0.381   0.284  0.00  0.00    +0.167 A 
ATOM      6  C   UNL     1       0.385  -0.699   0.363  0.00  0.00    +0.168 A 
ATOM      7  C   UNL     1       0.778  -1.894   0.894  0.00  0.00    +0.075 A 
ATOM      8  C   UNL     1       2.090  -2.053   1.369  0.00  0.00    +0.051 A 
ATOM      9  C   UNL     1       3.724  -3.371   2.343  0.00  0.00    +0.101 A 
ATOM     10  O   UNL     1      -0.814  -0.302  -0.157  0.00  0.00    -0.453 OA
ATOM     11  C   UNL     1      -0.772   1.136  -0.172  0.00  0.00    +0.466 C 
ATOM     12  O   UNL     1       0.630   1.440  -0.284  0.00  0.00    -0.453 OA
ATOM     13  N   UNL     1       2.446  -3.274   1.899  0.00  0.00    -0.343 N 
ATOM     14  H   UNL     1       1.787  -4.059   1.954  0.00  0.00    +0.167 HD
ENDROOT
BRANCH   9  15
ATOM     15  N   UNL     1       4.100  -4.595   2.880  0.00  0.00    -0.316 N 
ATOM     16  C   UNL     1       3.634  -4.725   4.284  0.00  0.00    +0.106 C 
ATOM     17  C   UNL     1       3.655  -6.256   4.523  0.00  0.00    +0.020 C 
ATOM     18  C   UNL     1       3.184  -6.825   3.165  0.00  0.00    +0.020 C 
ATOM     19  C   UNL     1       3.473  -5.712   2.141  0.00  0.00    +0.106 C 
ENDBRANCH   9  15
BRANCH   1  20
ATOM     20  C   UNL     1       6.058  -2.546   2.813  0.00  0.00    -0.043 C 
BRANCH  20  21
ATOM     21  N   UNL     1       6.827  -3.331   1.829  0.00  0.00    +0.384 N 
ATOM     22  H   UNL     1       6.365  -4.237   1.684  0.00  0.00    -0.085 HD
ATOM     23  H   UNL     1       6.862  -2.819   0.940  0.00  0.00    -0.085 HD
BRANCH  21  24
ATOM     24  C   UNL     1       8.201  -3.557   2.316  0.00  0.00    -0.046 C 
BRANCH  24  29
ATOM     25  C   UNL     1      10.603  -4.139  -0.538  0.00  0.00    +0.000 A 
ATOM     26  C   UNL     1      10.466  -5.499  -0.742  0.00  0.00    +0.001 A 
ATOM     27  C   UNL     1       9.596  -6.231   0.044  0.00  0.00    +0.012 A 
ATOM     28  C   UNL     1       8.863  -5.603   1.034  0.00  0.00    +0.056 A 
ATOM     29  C   UNL     1       9.000  -4.242   1.237  0.00  0.00    -0.053 A 
ATOM     30  C   UNL     1       9.866  -3.509   0.447  0.00  0.00    +0.002 A 
BRANCH  28  31
ATOM     31  C   UNL     1       7.914  -6.401   1.891  0.00  0.00    +0.418 C 
ATOM     32  F   UNL     1       7.920  -7.736   1.474  0.00  0.00    -0.166 F 
ATOM     33  F   UNL     1       8.320  -6.328   3.228  0.00  0.00    -0.166 F 
ATOM     34  F   UNL     1       6.622  -5.879   1.766  0.00  0.00    -0.166 F 
ENDBRANCH  28  31
ENDBRANCH  24  29
ENDBRANCH  21  24
ENDBRANCH  20  21
ENDBRANCH   1  20
TORSDOF 6
