REMARK  Name = ZINC15679666
REMARK  12 active torsions:
REMARK  status: ('A' for Active; 'I' for Inactive)
REMARK    1  A    between atoms: C_1  and  C_2
REMARK    2  A    between atoms: C_2  and  N_80
REMARK    3  A    between atoms: C_3  and  C_4
REMARK    4  A    between atoms: C_3  and  N_80
REMARK    5  A    between atoms: C_5  and  C_6
REMARK    6  A    between atoms: C_5  and  N_80
REMARK    7  A    between atoms: C_6  and  C_7
REMARK    8  A    between atoms: C_7  and  N_8
REMARK    9  A    between atoms: C_14  and  C_30
REMARK   10  A    between atoms: C_17  and  C_18
REMARK   11  A    between atoms: C_17  and  C_19
REMARK   12  A    between atoms: N_21  and  C_22
REMARK                            x       y       z     vdW  Elec       q    Type
REMARK                         _______ _______ _______ _____ _____    ______ ____
ROOT
ATOM      1  N   UNL     1       2.987   4.034   0.078  0.00  0.00    -0.281 N 
ATOM      2  C   UNL     1       3.812   3.807   1.128  0.00  0.00    +0.264 C 
ATOM      3  O   UNL     1       3.400   3.357   2.181  0.00  0.00    -0.268 OA
ATOM      4  C   UNL     1       5.230   4.127   0.927  0.00  0.00    +0.105 A 
ATOM      5  C   UNL     1       6.325   3.845   1.692  0.00  0.00    +0.033 A 
ATOM      6  C   UNL     1       7.440   4.363   1.026  0.00  0.00    +0.028 A 
ATOM      7  C   UNL     1       6.995   4.957  -0.140  0.00  0.00    +0.050 A 
ATOM      8  N   UNL     1       5.650   4.822  -0.198  0.00  0.00    -0.334 N 
ATOM      9  C   UNL     1       4.700   5.291  -1.212  0.00  0.00    +0.157 C 
ATOM     10  C   UNL     1       3.500   4.345  -1.251  0.00  0.00    +0.128 C 
ATOM     11  C   UNL     1       2.385   4.995  -2.072  0.00  0.00    +0.043 C 
ENDROOT
BRANCH   7  12
ATOM     12  C   UNL     1       7.843   5.624  -1.150  0.00  0.00    -0.002 A 
ATOM     13  C   UNL     1       7.281   6.530  -2.050  0.00  0.00    +0.010 A 
ATOM     14  C   UNL     1       8.079   7.154  -2.986  0.00  0.00    +0.001 A 
ATOM     15  C   UNL     1       9.433   6.874  -3.041  0.00  0.00    +0.000 A 
ATOM     16  C   UNL     1       9.996   5.972  -2.156  0.00  0.00    +0.001 A 
ATOM     17  C   UNL     1       9.210   5.346  -1.211  0.00  0.00    +0.010 A 
ENDBRANCH   7  12
BRANCH  10  18
ATOM     18  C   UNL     1       3.913   3.062  -1.926  0.00  0.00    +0.238 C 
ATOM     19  O   UNL     1       3.764   2.931  -3.122  0.00  0.00    -0.273 OA
ATOM     20  N   UNL     1       4.449   2.061  -1.199  0.00  0.00    -0.311 N 
ATOM     21  H   UNL     1       4.568   2.166  -0.242  0.00  0.00    +0.149 HD
BRANCH  20  22
ATOM     22  C   UNL     1       4.851   0.814  -1.855  0.00  0.00    +0.073 C 
ATOM     23  C   UNL     1       3.640  -0.114  -1.971  0.00  0.00    +0.022 C 
ATOM     24  C   UNL     1       3.941  -1.220  -2.984  0.00  0.00    +0.002 C 
ATOM     25  C   UNL     1       4.615  -0.615  -4.217  0.00  0.00    +0.000 C 
ATOM     26  C   UNL     1       6.060  -1.111  -4.303  0.00  0.00    +0.000 C 
ATOM     27  C   UNL     1       6.915  -0.370  -3.272  0.00  0.00    +0.000 C 
ATOM     28  C   UNL     1       6.635  -0.934  -1.878  0.00  0.00    +0.002 C 
ATOM     29  C   UNL     1       5.940   0.130  -1.027  0.00  0.00    +0.022 C 
ENDBRANCH  20  22
ENDBRANCH  10  18
BRANCH   1  30
ATOM     30  C   UNL     1       1.538   3.973   0.285  0.00  0.00    +0.107 C 
BRANCH  30  31
ATOM     31  C   UNL     1       1.048   2.545   0.034  0.00  0.00    +0.000 C 
BRANCH  31  32
ATOM     32  C   UNL     1      -0.466   2.481   0.250  0.00  0.00    -0.077 C 
BRANCH  32  33
ATOM     33  N   UNL     1      -0.921   1.093   0.025  0.00  0.00    +0.379 N 
ATOM     34  H   UNL     1      -0.345   0.457   0.590  0.00  0.00    -0.082 HD
BRANCH  33  36
ATOM     35  C   UNL     1      -2.397   0.864   1.960  0.00  0.00    -0.017 C 
ATOM     36  C   UNL     1      -2.334   0.952   0.433  0.00  0.00    -0.082 C 
ENDBRANCH  33  36
BRANCH  33  37
ATOM     37  C   UNL     1      -0.769   0.737  -1.401  0.00  0.00    -0.082 C 
ATOM     38  C   UNL     1      -0.882  -0.783  -1.543  0.00  0.00    -0.017 C 
ENDBRANCH  33  37
ENDBRANCH  32  33
ENDBRANCH  31  32
ENDBRANCH  30  31
ENDBRANCH   1  30
TORSDOF 9
