REMARK  Name = ZINC44458070
REMARK  3 active torsions:
REMARK  status: ('A' for Active; 'I' for Inactive)
REMARK    1  A    between atoms: C_3  and  N_4
REMARK    2  A    between atoms: C_10  and  C_13
REMARK    3  A    between atoms: N_15  and  C_16
REMARK                            x       y       z     vdW  Elec       q    Type
REMARK                         _______ _______ _______ _____ _____    ______ ____
ROOT
ATOM      1  C   UNL     1      -4.513  -3.134  -5.047  0.00  0.00    +0.217 C 
ATOM      2  O   UNL     1      -4.953  -2.071  -5.432  0.00  0.00    -0.275 OA
ATOM      3  N   UNL     1      -5.223  -4.264  -5.230  0.00  0.00    -0.310 N 
ATOM      4  H   UNL     1      -4.871  -5.114  -4.923  0.00  0.00    +0.149 HD
ENDROOT
BRANCH   1  11
ATOM      5  N   UNL     1      -0.392  -0.679  -1.237  0.00  0.00    -0.296 N 
ATOM      6  C   UNL     1      -0.877  -1.935  -1.196  0.00  0.00    +0.302 C 
ATOM      7  O   UNL     1      -0.904  -2.542  -0.142  0.00  0.00    -0.253 OA
ATOM      8  N   UNL     1      -1.333  -2.520  -2.321  0.00  0.00    -0.286 N 
ATOM      9  C   UNL     1      -1.201  -1.846  -3.620  0.00  0.00    +0.110 C 
ATOM     10  C   UNL     1      -2.580  -1.780  -4.284  0.00  0.00    +0.032 C 
ATOM     11  C   UNL     1      -3.171  -3.190  -4.364  0.00  0.00    +0.078 C 
ATOM     12  C   UNL     1      -3.341  -3.755  -2.952  0.00  0.00    +0.032 C 
ATOM     13  C   UNL     1      -1.965  -3.845  -2.274  0.00  0.00    +0.110 C 
ATOM     14  H   UNL     1      -0.302  -0.222  -2.088  0.00  0.00    +0.151 HD
BRANCH   5  17
ATOM     15  C   UNL     1      -0.022   1.527   0.011  0.00  0.00    +0.024 C 
ATOM     16  C   UNL     1       1.313   0.781  -0.005  0.00  0.00    +0.024 C 
ATOM     17  C   UNL     1      -0.000  -0.003   0.002  0.00  0.00    +0.075 C 
ENDBRANCH   5  17
ENDBRANCH   1  11
BRANCH   3  18
ATOM     18  C   UNL     1      -6.528  -4.210  -5.894  0.00  0.00    +0.035 C 
ATOM     19  C   UNL     1      -6.359  -3.647  -7.307  0.00  0.00    +0.029 C 
ATOM     20  C   UNL     1      -7.721  -3.590  -8.000  0.00  0.00    -0.008 C 
ATOM     21  C   UNL     1      -8.312  -4.999  -8.080  0.00  0.00    +0.007 C 
ATOM     22  C   UNL     1      -8.482  -5.562  -6.668  0.00  0.00    -0.008 C 
ATOM     23  C   UNL     1      -7.119  -5.619  -5.974  0.00  0.00    +0.029 C 
ATOM     24  C   UNL     1      -9.423  -4.659  -5.869  0.00  0.00    +0.007 C 
ATOM     25  C   UNL     1      -8.832  -3.249  -5.788  0.00  0.00    -0.008 C 
ATOM     26  C   UNL     1      -8.663  -2.687  -7.201  0.00  0.00    +0.007 C 
ATOM     27  C   UNL     1      -7.470  -3.307  -5.095  0.00  0.00    +0.029 C 
ENDBRANCH   3  18
TORSDOF 3
