REMARK  Name = ZINC63150396
REMARK  11 active torsions:
REMARK  status: ('A' for Active; 'I' for Inactive)
REMARK    1  A    between atoms: C_1  and  C_2
REMARK    2  A    between atoms: C_5  and  O_8
REMARK    3  A    between atoms: O_8  and  C_9
REMARK    4  A    between atoms: C_9  and  C_10
REMARK    5  A    between atoms: C_12  and  C_15
REMARK    6  A    between atoms: N_17  and  C_18
REMARK    7  A    between atoms: C_18  and  C_20
REMARK    8  A    between atoms: C_18  and  C_30
REMARK    9  A    between atoms: C_20  and  C_21
REMARK   10  A    between atoms: C_30  and  O_32
REMARK   11  A    between atoms: O_32  and  C_33
REMARK                            x       y       z     vdW  Elec       q    Type
REMARK                         _______ _______ _______ _____ _____    ______ ____
ROOT
ATOM      1  C   UNL     1       2.028  -9.327   0.620  0.00  0.00    +0.264 C 
ATOM      2  O   UNL     1       1.796 -10.510   0.457  0.00  0.00    -0.268 OA
ATOM      3  N   UNL     1       3.303  -8.892   0.677  0.00  0.00    -0.297 N 
ATOM      4  H   UNL     1       3.488  -7.949   0.807  0.00  0.00    +0.150 HD
ENDROOT
BRANCH   1   7
ATOM      5  C   UNL     1       0.090  -6.277   1.043  0.00  0.00    +0.116 A 
ATOM      6  N   UNL     1       1.127  -7.062   0.933  0.00  0.00    -0.236 NA
ATOM      7  C   UNL     1       0.917  -8.370   0.754  0.00  0.00    +0.133 A 
ATOM      8  C   UNL     1      -0.392  -8.768   0.702  0.00  0.00    +0.080 A 
ATOM      9  S   UNL     1      -1.219  -7.320   0.909  0.00  0.00    -0.076 S 
BRANCH   5  10
ATOM     10  C   UNL     1       0.072  -4.785   1.249  0.00  0.00    +0.291 C 
BRANCH  10  11
ATOM     11  O   UNL     1       0.057  -4.129  -0.021  0.00  0.00    -0.485 OA
BRANCH  11  16
ATOM     12  C   UNL     1      -0.018   1.503   0.010  0.00  0.00    +0.044 C 
ATOM     13  C   UNL     1       0.002  -0.004   0.002  0.00  0.00    -0.050 A 
ATOM     14  C   UNL     1       0.006  -0.688  -1.200  0.00  0.00    +0.007 A 
ATOM     15  C   UNL     1       0.024  -2.069  -1.210  0.00  0.00    +0.046 A 
ATOM     16  C   UNL     1       0.039  -2.770  -0.013  0.00  0.00    +0.121 A 
ATOM     17  C   UNL     1       0.036  -2.082   1.191  0.00  0.00    +0.046 A 
ATOM     18  C   UNL     1       0.023  -0.701   1.196  0.00  0.00    +0.007 A 
ENDBRANCH  11  16
ENDBRANCH  10  11
ENDBRANCH   5  10
ENDBRANCH   1   7
BRANCH   3  19
ATOM     19  C   UNL     1       4.408  -9.844   0.544  0.00  0.00    +0.186 C 
BRANCH  19  20
ATOM     20  C   UNL     1       4.704 -10.069  -0.916  0.00  0.00    +0.328 C 
ATOM     21  O   UNL     1       4.057  -9.494  -1.759  0.00  0.00    -0.249 OA
BRANCH  20  22
ATOM     22  O   UNL     1       5.685 -10.909  -1.281  0.00  0.00    -0.467 OA
ATOM     23  C   UNL     1       5.910 -11.076  -2.682  0.00  0.00    +0.280 C 
ENDBRANCH  20  22
ENDBRANCH  19  20
BRANCH  19  24
ATOM     24  C   UNL     1       5.652  -9.281   1.235  0.00  0.00    +0.067 C 
BRANCH  24  25
ATOM     25  C   UNL     1       5.398  -9.170   2.716  0.00  0.00    -0.039 C 
ATOM     26  C   UNL     1       5.727 -10.073   3.667  0.00  0.00    -0.001 A 
ATOM     27  C   UNL     1       6.395 -11.379   3.610  0.00  0.00    +0.010 A 
ATOM     28  C   UNL     1       6.589 -12.068   4.758  0.00  0.00    +0.001 A 
ATOM     29  C   UNL     1       6.169 -11.567   5.997  0.00  0.00    +0.002 A 
ATOM     30  C   UNL     1       5.549 -10.375   6.131  0.00  0.00    +0.026 A 
ATOM     31  C   UNL     1       5.294  -9.566   4.989  0.00  0.00    +0.043 A 
ATOM     32  N   UNL     1       4.719  -8.396   4.860  0.00  0.00    -0.380 N 
ATOM     33  C   UNL     1       4.728  -8.024   3.441  0.00  0.00    +0.144 C 
ATOM     34  H   UNL     1       4.353  -7.862   5.582  0.00  0.00    +0.160 HD
ENDBRANCH  24  25
ENDBRANCH  19  24
ENDBRANCH   3  19
TORSDOF 9
