REMARK  Name = ZINC63974723
REMARK  3 active torsions:
REMARK  status: ('A' for Active; 'I' for Inactive)
REMARK    1  A    between atoms: C_1  and  C_2
REMARK    2  A    between atoms: C_4  and  C_12
REMARK    3  A    between atoms: C_24  and  C_27
REMARK                            x       y       z     vdW  Elec       q    Type
REMARK                         _______ _______ _______ _____ _____    ______ ____
ROOT
ATOM      1  C   UNL     1       0.159  -0.288  -2.597  0.00  0.00    -0.043 C 
ATOM      2  C   UNL     1      -0.875   0.529  -2.758  0.00  0.00    -0.004 C 
ATOM      3  C   UNL     1      -1.480   0.838  -4.100  0.00  0.00    +0.137 C 
ATOM      4  N   UNL     1      -0.596   0.323  -5.156  0.00  0.00    -0.281 N 
ATOM      5  C   UNL     1      -0.026  -1.022  -4.968  0.00  0.00    +0.114 C 
ATOM      6  C   UNL     1       0.865  -0.986  -3.722  0.00  0.00    +0.054 C 
ATOM      7  C   UNL     1      -0.319   1.054  -6.254  0.00  0.00    +0.308 C 
ATOM      8  O   UNL     1       0.342   0.572  -7.154  0.00  0.00    -0.252 OA
ATOM      9  N   UNL     1      -0.773   2.319  -6.354  0.00  0.00    -0.247 N 
ATOM     10  C   UNL     1      -0.399   3.109  -7.438  0.00  0.00    +0.180 C 
ATOM     11  N   UNL     1       0.367   2.789  -8.434  0.00  0.00    -0.163 NA
ATOM     12  N   UNL     1       0.674   3.653  -9.460  0.00  0.00    -0.254 N 
ATOM     13  C   UNL     1       0.064   4.998  -9.357  0.00  0.00    +0.151 C 
ATOM     14  S   UNL     1      -0.870   4.797  -7.783  0.00  0.00    -0.065 S 
ATOM     15  C   UNL     1       1.132   6.087  -9.242  0.00  0.00    +0.041 C 
ATOM     16  H   UNL     1      -1.361   2.679  -5.672  0.00  0.00    +0.158 HD
ATOM     17  H   UNL     1       1.249   3.399 -10.199  0.00  0.00    +0.169 HD
ENDROOT
BRANCH   1  20
ATOM     18  C   UNL     1       0.146   1.592  -0.032  0.00  0.00    +0.035 C 
ATOM     19  C   UNL     1       0.063   0.064  -0.004  0.00  0.00    +0.107 C 
ATOM     20  C   UNL     1       0.626  -0.511  -1.286  0.00  0.00    -0.013 C 
ATOM     21  C   UNL     1       1.699  -1.304  -0.900  0.00  0.00    +0.003 A 
ATOM     22  C   UNL     1       2.615  -2.095  -1.633  0.00  0.00    +0.010 A 
ATOM     23  C   UNL     1       3.585  -2.780  -0.979  0.00  0.00    +0.001 A 
ATOM     24  C   UNL     1       3.709  -2.727   0.414  0.00  0.00    +0.002 A 
ATOM     25  C   UNL     1       2.869  -1.991   1.179  0.00  0.00    +0.026 A 
ATOM     26  C   UNL     1       1.826  -1.245   0.568  0.00  0.00    +0.043 A 
ATOM     27  N   UNL     1       0.895  -0.467   1.080  0.00  0.00    -0.377 N 
ATOM     28  H   UNL     1       0.777  -0.276   2.023  0.00  0.00    +0.160 HD
ENDBRANCH   1  20
TORSDOF 1
