REMARK  Name = ZINC01901264
REMARK  15 active torsions:
REMARK  status: ('A' for Active; 'I' for Inactive)
REMARK    1  A    between atoms: C_1  and  C_2
REMARK    2  A    between atoms: C_2  and  C_3
REMARK    3  A    between atoms: C_6  and  C_9
REMARK    4  A    between atoms: N_10  and  N_11
REMARK    5  A    between atoms: C_12  and  C_14
REMARK    6  A    between atoms: C_14  and  S_15
REMARK    7  A    between atoms: S_15  and  C_16
REMARK    8  A    between atoms: C_19  and  C_29
REMARK    9  A    between atoms: N_20  and  C_21
REMARK   10  A    between atoms: C_24  and  O_27
REMARK   11  A    between atoms: O_27  and  C_28
REMARK   12  A    between atoms: C_32  and  C_35
REMARK   13  A    between atoms: C_35  and  C_36
REMARK   14  A    between atoms: C_35  and  C_37
REMARK   15  A    between atoms: C_35  and  C_38
REMARK                            x       y       z     vdW  Elec       q    Type
REMARK                         _______ _______ _______ _____ _____    ______ ____
ROOT
ATOM      1  C   UNL     1      -0.016   1.310   0.009  0.00  0.00    +0.197 A 
ATOM      2  N   UNL     1       0.002  -0.004   0.002  0.00  0.00    -0.122 NA
ATOM      3  N   UNL     1       1.214  -0.430  -0.012  0.00  0.00    -0.128 NA
ATOM      4  C   UNL     1       2.047   0.585  -0.014  0.00  0.00    +0.169 A 
ATOM      5  N   UNL     1       1.285   1.733  -0.001  0.00  0.00    -0.270 N 
ENDROOT
BRANCH   5   6
ATOM      6  C   UNL     1       1.747   3.058   0.001  0.00  0.00    +0.051 A 
ATOM      7  C   UNL     1       2.449   3.550  -1.090  0.00  0.00    +0.030 A 
ATOM      8  C   UNL     1       2.899   4.856  -1.090  0.00  0.00    +0.047 A 
ATOM      9  C   UNL     1       2.658   5.672   0.005  0.00  0.00    +0.120 A 
ATOM     10  C   UNL     1       1.961   5.179   1.099  0.00  0.00    +0.047 A 
ATOM     11  C   UNL     1       1.506   3.875   1.097  0.00  0.00    +0.030 A 
BRANCH   9  12
ATOM     12  O   UNL     1       3.106   6.956   0.007  0.00  0.00    -0.495 OA
ATOM     13  C   UNL     1       3.816   7.397  -1.151  0.00  0.00    +0.277 C 
ENDBRANCH   9  12
ENDBRANCH   5   6
BRANCH   4  14
ATOM     14  C   UNL     1       3.523   0.511  -0.028  0.00  0.00    +0.020 A 
ATOM     15  C   UNL     1       4.285   1.640   0.278  0.00  0.00    +0.012 A 
ATOM     16  C   UNL     1       5.662   1.563   0.267  0.00  0.00    +0.005 A 
ATOM     17  C   UNL     1       6.289   0.372  -0.056  0.00  0.00    -0.042 A 
ATOM     18  C   UNL     1       5.540  -0.750  -0.365  0.00  0.00    +0.005 A 
ATOM     19  C   UNL     1       4.162  -0.687  -0.353  0.00  0.00    +0.012 A 
BRANCH  17  20
ATOM     20  C   UNL     1       7.794   0.296  -0.070  0.00  0.00    -0.013 C 
ATOM     21  C   UNL     1       8.271  -0.095  -1.471  0.00  0.00    +0.015 C 
ATOM     22  C   UNL     1       8.377   1.660   0.305  0.00  0.00    +0.015 C 
ATOM     23  C   UNL     1       8.262  -0.754   0.939  0.00  0.00    +0.015 C 
ENDBRANCH  17  20
ENDBRANCH   4  14
BRANCH   1  24
ATOM     24  S   UNL     1      -1.448   2.337   0.022  0.00  0.00    -0.076 S 
BRANCH  24  25
ATOM     25  C   UNL     1      -2.742   1.070   0.022  0.00  0.00    +0.174 C 
BRANCH  25  27
ATOM     26  N   UNL     1      -5.214   0.984   0.035  0.00  0.00    -0.206 N 
ATOM     27  C   UNL     1      -4.094   1.734   0.033  0.00  0.00    +0.242 C 
ATOM     28  O   UNL     1      -4.176   2.945   0.039  0.00  0.00    -0.273 OA
ATOM     29  H   UNL     1      -5.149   0.016   0.029  0.00  0.00    +0.177 HD
BRANCH  26  31
ATOM     30  C   UNL     1      -7.549   0.878   0.046  0.00  0.00    +0.138 C 
ATOM     31  N   UNL     1      -6.471   1.601   0.044  0.00  0.00    -0.188 NA
BRANCH  30  35
ATOM     32  C   UNL     1     -11.359   2.748   0.077  0.00  0.00    -0.048 A 
ATOM     33  C   UNL     1     -11.270   1.367   0.069  0.00  0.00    +0.004 A 
ATOM     34  C   UNL     1     -10.035   0.753   0.059  0.00  0.00    +0.010 A 
ATOM     35  C   UNL     1      -8.873   1.528   0.057  0.00  0.00    -0.005 A 
ATOM     36  C   UNL     1      -8.970   2.921   0.070  0.00  0.00    +0.010 A 
ATOM     37  C   UNL     1     -10.212   3.522   0.075  0.00  0.00    +0.004 A 
BRANCH  32  39
ATOM     38  C   UNL     1     -13.161   3.629   1.536  0.00  0.00    +0.009 C 
ATOM     39  C   UNL     1     -12.712   3.412   0.089  0.00  0.00    +0.032 C 
ENDBRANCH  32  39
ENDBRANCH  30  35
ENDBRANCH  26  31
ENDBRANCH  25  27
ENDBRANCH  24  25
ENDBRANCH   1  24
TORSDOF 10
