REMARK  Name = ZINC50310068
REMARK  10 active torsions:
REMARK  status: ('A' for Active; 'I' for Inactive)
REMARK    1  A    between atoms: C_1  and  C_2
REMARK    2  A    between atoms: C_2  and  N_3
REMARK    3  A    between atoms: N_3  and  C_4
REMARK    4  A    between atoms: C_4  and  C_5
REMARK    5  A    between atoms: C_5  and  C_7
REMARK    6  A    between atoms: C_8  and  C_10
REMARK    7  A    between atoms: C_11  and  N_19
REMARK    8  A    between atoms: C_12  and  C_16
REMARK    9  A    between atoms: C_16  and  C_17
REMARK   10  A    between atoms: C_16  and  C_18
REMARK                            x       y       z     vdW  Elec       q    Type
REMARK                         _______ _______ _______ _____ _____    ______ ____
ROOT
ATOM      1  C   UNL     1      -1.258  -0.599   2.453  0.00  0.00    +0.168 A 
ATOM      2  C   UNL     1      -1.696  -0.990   3.745  0.00  0.00    +0.078 A 
ATOM      3  C   UNL     1      -0.735  -0.550   4.601  0.00  0.00    +0.060 A 
ATOM      4  N   UNL     1       0.216   0.065   3.850  0.00  0.00    -0.279 N 
ATOM      5  H   UNL     1       1.022   0.475   4.202  0.00  0.00    +0.189 HD
ATOM      6  N   UNL     1      -0.103   0.021   2.606  0.00  0.00    -0.167 NA
ENDROOT
BRANCH   1   8
ATOM      7  N   UNL     1      -1.371  -0.515   0.012  0.00  0.00    -0.292 N 
ATOM      8  C   UNL     1      -1.958  -0.846   1.179  0.00  0.00    +0.269 C 
ATOM      9  O   UNL     1      -3.066  -1.349   1.181  0.00  0.00    -0.268 OA
BRANCH   7  11
ATOM     10  C   UNL     1       0.003   1.499   0.215  0.00  0.00    +0.024 C 
ATOM     11  C   UNL     1       0.007  -0.016   0.001  0.00  0.00    +0.105 C 
ENDBRANCH   7  11
BRANCH   7  12
ATOM     12  C   UNL     1      -2.110  -0.653  -1.245  0.00  0.00    +0.138 C 
BRANCH  12  13
ATOM     13  C   UNL     1      -1.883  -2.031  -1.812  0.00  0.00    -0.063 C 
ATOM     14  C   UNL     1      -2.740  -2.990  -1.566  0.00  0.00    +0.009 C 
ATOM     15  C   UNL     1      -0.669  -2.305  -2.663  0.00  0.00    +0.040 C 
ENDBRANCH  12  13
ENDBRANCH   7  12
ENDBRANCH   1   8
BRANCH   3  16
ATOM     16  C   UNL     1      -0.726  -0.714   6.099  0.00  0.00    +0.033 C 
ATOM     17  C   UNL     1       0.513  -1.507   6.518  0.00  0.00    +0.014 C 
ATOM     18  C   UNL     1      -0.698   0.664   6.762  0.00  0.00    +0.014 C 
ENDBRANCH   3  16
BRANCH   2  19
ATOM     19  N   UNL     1      -2.871  -1.682   4.071  0.00  0.00    -0.355 N 
ATOM     20  H   UNL     1      -3.488  -1.947   3.370  0.00  0.00    +0.142 HD
ATOM     21  H   UNL     1      -3.068  -1.896   4.996  0.00  0.00    +0.142 HD
ENDBRANCH   2  19
TORSDOF 6
