REMARK  Name = ZINC46438340
REMARK  3 active torsions:
REMARK  status: ('A' for Active; 'I' for Inactive)
REMARK    1  A    between atoms: C_1  and  C_2
REMARK    2  A    between atoms: C_14  and  C_16
REMARK    3  A    between atoms: C_19  and  O_22
REMARK                            x       y       z     vdW  Elec       q    Type
REMARK                         _______ _______ _______ _____ _____    ______ ____
ROOT
ATOM      1  C   UNL     1      -0.019   1.526   0.010  0.00  0.00    +0.008 C 
ATOM      2  C   UNL     1       0.002  -0.004   0.002  0.00  0.00    -0.009 C 
ATOM      3  C   UNL     1       0.736  -0.501  -1.247  0.00  0.00    +0.008 C 
ATOM      4  C   UNL     1       0.547  -2.011  -1.393  0.00  0.00    +0.037 C 
ATOM      5  C   UNL     1       0.949  -2.688  -0.086  0.00  0.00    -0.023 A 
ATOM      6  C   UNL     1       1.022  -1.976   1.064  0.00  0.00    -0.004 A 
ATOM      7  S   UNL     1       1.516  -3.146   2.305  0.00  0.00    -0.073 S 
ATOM      8  C   UNL     1       1.624  -4.582   1.284  0.00  0.00    +0.116 A 
ATOM      9  C   UNL     1       1.270  -4.102   0.002  0.00  0.00    +0.075 A 
ATOM     10  C   UNL     1       1.263  -5.051  -1.075  0.00  0.00    +0.260 A 
ATOM     11  O   UNL     1       0.971  -4.734  -2.215  0.00  0.00    -0.267 OA
ATOM     12  N   UNL     1       1.601  -6.320  -0.745  0.00  0.00    -0.306 N 
ATOM     13  H   UNL     1       1.609  -6.993  -1.443  0.00  0.00    +0.170 HD
ATOM     14  C   UNL     1       1.930  -6.694   0.525  0.00  0.00    +0.142 A 
ATOM     15  N   UNL     1       1.946  -5.842   1.541  0.00  0.00    -0.222 NA
ATOM     16  C   UNL     1       0.744  -0.516   1.245  0.00  0.00    +0.046 C 
ENDROOT
BRANCH  14  17
ATOM     17  C   UNL     1       2.283  -8.104   0.779  0.00  0.00    +0.018 A 
ATOM     18  C   UNL     1       2.282  -9.026  -0.271  0.00  0.00    +0.015 A 
ATOM     19  C   UNL     1       2.612 -10.342  -0.030  0.00  0.00    +0.046 A 
ATOM     20  C   UNL     1       2.946 -10.752   1.254  0.00  0.00    +0.117 A 
ATOM     21  C   UNL     1       2.948  -9.839   2.301  0.00  0.00    +0.046 A 
ATOM     22  C   UNL     1       2.625  -8.520   2.068  0.00  0.00    +0.015 A 
BRANCH  20  23
ATOM     23  O   UNL     1       3.270 -12.050   1.488  0.00  0.00    -0.507 OA
ATOM     24  H   UNL     1       4.213 -12.243   1.393  0.00  0.00    +0.292 HD
ENDBRANCH  20  23
ENDBRANCH  14  17
TORSDOF 2
