REMARK  Name = ZINC38683923
REMARK  17 active torsions:
REMARK  status: ('A' for Active; 'I' for Inactive)
REMARK    1  A    between atoms: C_1  and  C_2
REMARK    2  A    between atoms: C_2  and  C_3
REMARK    3  A    between atoms: C_3  and  O_4
REMARK    4  A    between atoms: O_4  and  C_5
REMARK    5  A    between atoms: C_8  and  C_14
REMARK    6  A    between atoms: C_10  and  O_11
REMARK    7  A    between atoms: O_11  and  C_12
REMARK    8  A    between atoms: C_12  and  C_13
REMARK    9  A    between atoms: C_19  and  O_28
REMARK   10  A    between atoms: C_23  and  N_27
REMARK   11  A    between atoms: C_24  and  C_25
REMARK   12  A    between atoms: O_28  and  C_29
REMARK   13  A    between atoms: C_29  and  C_31
REMARK   14  A    between atoms: C_31  and  O_32
REMARK   15  A    between atoms: O_32  and  C_33
REMARK   16  A    between atoms: C_37  and  C_40
REMARK   17  A    between atoms: C_38  and  C_39
REMARK                            x       y       z     vdW  Elec       q    Type
REMARK                         _______ _______ _______ _____ _____    ______ ____
ROOT
ATOM      1  C   UNL     1       3.333  -4.428   5.576  0.00  0.00    +0.098 C 
ATOM      2  C   UNL     1       4.780  -4.014   5.604  0.00  0.00    +0.008 A 
ATOM      3  C   UNL     1       5.682  -4.636   4.758  0.00  0.00    +0.012 A 
ATOM      4  C   UNL     1       7.013  -4.270   4.769  0.00  0.00    +0.047 A 
ATOM      5  C   UNL     1       7.452  -3.275   5.632  0.00  0.00    +0.135 A 
ATOM      6  C   UNL     1       6.552  -2.651   6.480  0.00  0.00    +0.093 A 
ATOM      7  C   UNL     1       5.213  -3.020   6.467  0.00  0.00    +0.138 A 
ATOM      8  O   UNL     1       4.345  -2.399   7.303  0.00  0.00    -0.441 OA
ATOM      9  C   UNL     1       3.166  -2.975   7.593  0.00  0.00    +0.199 C 
ATOM     10  C   UNL     1       2.633  -3.941   6.813  0.00  0.00    +0.098 C 
ENDROOT
BRANCH   1  14
ATOM     11  C   UNL     1       1.447  -2.740   2.128  0.00  0.00    +0.162 A 
ATOM     12  C   UNL     1       2.015  -1.914   3.085  0.00  0.00    +0.050 A 
ATOM     13  C   UNL     1       2.624  -2.462   4.198  0.00  0.00    +0.008 A 
ATOM     14  C   UNL     1       2.668  -3.835   4.360  0.00  0.00    -0.031 A 
ATOM     15  C   UNL     1       2.103  -4.665   3.410  0.00  0.00    +0.054 A 
ATOM     16  C   UNL     1       1.486  -4.121   2.294  0.00  0.00    +0.162 A 
BRANCH  11  17
ATOM     17  O   UNL     1       0.848  -2.202   1.033  0.00  0.00    -0.488 OA
BRANCH  17  18
ATOM     18  C   UNL     1       0.846  -0.776   0.929  0.00  0.00    +0.229 C 
BRANCH  18  20
ATOM     19  C   UNL     1       0.130   1.166  -0.471  0.00  0.00    +0.007 C 
ATOM     20  C   UNL     1       0.132  -0.360  -0.359  0.00  0.00    +0.038 C 
ENDBRANCH  18  20
ENDBRANCH  17  18
ENDBRANCH  11  17
BRANCH  16  21
ATOM     21  O   UNL     1       0.925  -4.936   1.361  0.00  0.00    -0.489 OA
BRANCH  21  22
ATOM     22  C   UNL     1       1.002  -6.343   1.597  0.00  0.00    +0.226 C 
ATOM     23  C   UNL     1       0.322  -7.091   0.449  0.00  0.00    +0.048 C 
ENDBRANCH  21  22
ENDBRANCH  16  21
ENDBRANCH   1  14
BRANCH   9  24
ATOM     24  N   UNL     1       2.484  -2.569   8.713  0.00  0.00    -0.328 N 
ATOM     25  H   UNL     1       2.855  -1.877   9.282  0.00  0.00    +0.145 HD
ATOM     26  H   UNL     1       1.632  -2.975   8.936  0.00  0.00    +0.145 HD
ENDBRANCH   9  24
BRANCH  10  27
ATOM     27  C   UNL     1       1.371  -4.513   7.177  0.00  0.00    +0.101 C 
ATOM     28  N   UNL     1       0.371  -4.967   7.466  0.00  0.00    -0.191 NA
ENDBRANCH  10  27
BRANCH   5  29
ATOM     29  O   UNL     1       8.762  -2.914   5.645  0.00  0.00    -0.423 OA
BRANCH  29  30
ATOM     30  C   UNL     1       9.491  -3.227   6.728  0.00  0.00    +0.350 C 
ATOM     31  O   UNL     1       9.009  -3.901   7.607  0.00  0.00    -0.247 OA
BRANCH  30  32
ATOM     32  C   UNL     1      10.911  -2.737   6.848  0.00  0.00    +0.349 C 
BRANCH  32  33
ATOM     33  O   UNL     1      11.472  -3.197   8.079  0.00  0.00    -0.481 OA
BRANCH  33  34
ATOM     34  C   UNL     1      12.756  -2.840   8.344  0.00  0.00    +0.124 A 
ATOM     35  C   UNL     1      13.460  -2.058   7.439  0.00  0.00    +0.046 A 
ATOM     36  C   UNL     1      14.765  -1.696   7.711  0.00  0.00    +0.004 A 
ATOM     37  C   UNL     1      15.370  -2.112   8.883  0.00  0.00    +0.004 A 
ATOM     38  C   UNL     1      14.671  -2.892   9.785  0.00  0.00    -0.044 A 
ATOM     39  C   UNL     1      13.364  -3.252   9.521  0.00  0.00    -0.006 A 
ATOM     40  C   UNL     1      12.600  -4.097  10.507  0.00  0.00    +0.048 C 
ATOM     41  C   UNL     1      15.333  -3.345  11.061  0.00  0.00    +0.044 C 
ENDBRANCH  33  34
ENDBRANCH  32  33
ENDBRANCH  30  32
ENDBRANCH  29  30
ENDBRANCH   5  29
TORSDOF 13
