REMARK  Name = ZINC16764457
REMARK  3 active torsions:
REMARK  status: ('A' for Active; 'I' for Inactive)
REMARK    1  A    between atoms: C_3  and  C_6
REMARK    2  A    between atoms: C_9  and  C_11
REMARK    3  A    between atoms: C_11  and  C_13
REMARK                            x       y       z     vdW  Elec       q    Type
REMARK                         _______ _______ _______ _____ _____    ______ ____
ROOT
ATOM      1  C   UNL     1      -0.442   2.223  -1.257  0.00  0.00    +0.167 C 
ATOM      2  O   UNL     1      -0.315   1.666  -2.327  0.00  0.00    -0.292 OA
ENDROOT
BRANCH   1   3
ATOM      3  C   UNL     1      -1.008   3.576  -1.196  0.00  0.00    +0.021 A 
ATOM      4  C   UNL     1      -1.162   4.220   0.038  0.00  0.00    +0.015 A 
ATOM      5  C   UNL     1      -1.689   5.489   0.090  0.00  0.00    +0.050 A 
ATOM      6  C   UNL     1      -2.082   6.135  -1.078  0.00  0.00    +0.162 A 
ATOM      7  C   UNL     1      -1.935   5.500  -2.310  0.00  0.00    +0.163 A 
ATOM      8  C   UNL     1      -1.402   4.226  -2.372  0.00  0.00    +0.060 A 
ATOM      9  O   UNL     1      -2.307   6.123  -3.462  0.00  0.00    -0.485 OA
ATOM     10  C   UNL     1      -3.178   7.251  -3.332  0.00  0.00    +0.270 C 
ATOM     11  C   UNL     1      -2.637   8.149  -2.211  0.00  0.00    +0.270 C 
ATOM     12  O   UNL     1      -2.608   7.386  -1.000  0.00  0.00    -0.485 OA
ENDBRANCH   1   3
BRANCH   1  15
ATOM     13  C   UNL     1       0.002  -0.004   0.002  0.00  0.00    +0.066 C 
ATOM     14  C   UNL     1       1.317   0.779  -0.006  0.00  0.00    +0.024 C 
ATOM     15  C   UNL     1      -0.019   1.526   0.010  0.00  0.00    +0.071 C 
BRANCH  13  18
ATOM     16  C   UNL     1      -1.392  -1.995   2.772  0.00  0.00    +0.041 A 
ATOM     17  C   UNL     1      -1.401  -1.574   1.423  0.00  0.00    +0.045 A 
ATOM     18  C   UNL     1      -0.379  -0.712   1.277  0.00  0.00    +0.109 A 
ATOM     19  O   UNL     1       0.249  -0.594   2.458  0.00  0.00    -0.468 OA
ATOM     20  C   UNL     1      -0.365  -1.365   3.370  0.00  0.00    +0.195 A 
ENDBRANCH  13  18
ENDBRANCH   1  15
TORSDOF 3
