REMARK  Name = ZINC13026232
REMARK  15 active torsions:
REMARK  status: ('A' for Active; 'I' for Inactive)
REMARK    1  A    between atoms: C_1  and  C_2
REMARK    2  A    between atoms: C_4  and  C_39
REMARK    3  A    between atoms: C_5  and  N_9
REMARK    4  A    between atoms: C_6  and  C_8
REMARK    5  A    between atoms: N_9  and  C_10
REMARK    6  A    between atoms: C_10  and  C_12
REMARK    7  A    between atoms: C_10  and  C_24
REMARK    8  A    between atoms: C_14  and  O_22
REMARK    9  A    between atoms: C_15  and  O_20
REMARK   10  A    between atoms: C_16  and  O_18
REMARK   11  A    between atoms: O_18  and  C_19
REMARK   12  A    between atoms: O_20  and  C_21
REMARK   13  A    between atoms: O_22  and  C_23
REMARK   14  A    between atoms: N_26  and  C_27
REMARK   15  A    between atoms: C_32  and  C_34
REMARK                            x       y       z     vdW  Elec       q    Type
REMARK                         _______ _______ _______ _____ _____    ______ ____
ROOT
ATOM      1  C   UNL     1      -1.408   1.096  -0.425  0.00  0.00    +0.198 C 
ENDROOT
BRANCH   1   2
ATOM      2  C   UNL     1      -0.058   0.464  -0.647  0.00  0.00    -0.011 A 
ATOM      3  C   UNL     1       0.069  -0.912  -0.630  0.00  0.00    +0.055 A 
ATOM      4  C   UNL     1       1.310  -1.498  -0.829  0.00  0.00    +0.166 A 
ATOM      5  C   UNL     1       2.427  -0.700  -1.044  0.00  0.00    +0.204 A 
ATOM      6  C   UNL     1       2.295   0.684  -1.060  0.00  0.00    +0.166 A 
ATOM      7  C   UNL     1       1.050   1.262  -0.862  0.00  0.00    +0.055 A 
BRANCH   6   8
ATOM      8  O   UNL     1       3.385   1.470  -1.270  0.00  0.00    -0.491 OA
ATOM      9  C   UNL     1       3.174   2.883  -1.274  0.00  0.00    +0.277 C 
ENDBRANCH   6   8
BRANCH   5  10
ATOM     10  O   UNL     1       3.647  -1.270  -1.238  0.00  0.00    -0.488 OA
ATOM     11  C   UNL     1       4.445  -1.507  -0.076  0.00  0.00    +0.277 C 
ENDBRANCH   5  10
BRANCH   4  12
ATOM     12  O   UNL     1       1.435  -2.852  -0.812  0.00  0.00    -0.491 OA
ATOM     13  C   UNL     1       0.231  -3.613  -0.695  0.00  0.00    +0.277 C 
ENDBRANCH   4  12
ENDBRANCH   1   2
BRANCH   1  14
ATOM     14  C   UNL     1      -1.858   0.837   0.990  0.00  0.00    +0.239 C 
ATOM     15  O   UNL     1      -2.007   1.763   1.758  0.00  0.00    -0.273 OA
ATOM     16  N   UNL     1      -2.094  -0.425   1.401  0.00  0.00    -0.311 N 
ATOM     17  H   UNL     1      -1.885  -1.172   0.819  0.00  0.00    +0.149 HD
BRANCH  16  18
ATOM     18  C   UNL     1      -2.668  -0.668   2.726  0.00  0.00    +0.073 C 
ATOM     19  C   UNL     1      -1.545  -0.767   3.779  0.00  0.00    +0.022 C 
ATOM     20  C   UNL     1      -2.033  -1.868   4.753  0.00  0.00    +0.002 C 
ATOM     21  C   UNL     1      -2.705  -2.891   3.803  0.00  0.00    +0.002 C 
ATOM     22  C   UNL     1      -3.406  -2.018   2.742  0.00  0.00    +0.022 C 
ENDBRANCH  16  18
ENDBRANCH   1  14
BRANCH   1  23
ATOM     23  N   UNL     1      -1.313   2.541  -0.650  0.00  0.00    -0.248 N 
ATOM     24  C   UNL     1      -0.585   3.307   0.186  0.00  0.00    +0.287 C 
ATOM     25  O   UNL     1      -0.584   4.517   0.057  0.00  0.00    -0.266 OA
BRANCH  23  30
ATOM     26  C   UNL     1      -4.013   4.910  -5.040  0.00  0.00    +0.044 C 
ATOM     27  C   UNL     1      -3.296   4.281  -3.874  0.00  0.00    -0.050 A 
ATOM     28  C   UNL     1      -3.968   4.066  -2.685  0.00  0.00    +0.008 A 
ATOM     29  C   UNL     1      -3.314   3.489  -1.614  0.00  0.00    -0.028 A 
ATOM     30  C   UNL     1      -1.979   3.125  -1.732  0.00  0.00    +0.044 A 
ATOM     31  C   UNL     1      -1.304   3.348  -2.926  0.00  0.00    -0.028 A 
ATOM     32  C   UNL     1      -1.966   3.919  -3.995  0.00  0.00    +0.008 A 
ATOM     33  C   UNL     1       0.146   2.961  -3.057  0.00  0.00    +0.046 C 
ATOM     34  C   UNL     1      -4.048   3.254  -0.319  0.00  0.00    +0.046 C 
ENDBRANCH  23  30
BRANCH  24  35
ATOM     35  C   UNL     1       0.206   2.682   1.251  0.00  0.00    +0.190 A 
ATOM     36  C   UNL     1       0.925   3.340   2.208  0.00  0.00    +0.054 A 
ATOM     37  C   UNL     1       1.519   2.356   3.014  0.00  0.00    +0.042 A 
ATOM     38  C   UNL     1       1.141   1.156   2.520  0.00  0.00    +0.196 A 
ATOM     39  O   UNL     1       0.346   1.357   1.461  0.00  0.00    -0.458 OA
ENDBRANCH  24  35
ENDBRANCH   1  23
TORSDOF 9
