REMARK  Name = ZINC17919744
REMARK  11 active torsions:
REMARK  status: ('A' for Active; 'I' for Inactive)
REMARK    1  A    between atoms: C_1  and  O_2
REMARK    2  A    between atoms: O_2  and  C_3
REMARK    3  A    between atoms: C_6  and  O_36
REMARK    4  A    between atoms: C_7  and  N_9
REMARK    5  A    between atoms: C_10  and  C_12
REMARK    6  A    between atoms: C_12  and  C_13
REMARK    7  A    between atoms: N_17  and  C_28
REMARK    8  A    between atoms: N_19  and  C_20
REMARK    9  A    between atoms: C_28  and  C_29
REMARK   10  A    between atoms: C_29  and  C_30
REMARK   11  A    between atoms: O_36  and  C_37
REMARK                            x       y       z     vdW  Elec       q    Type
REMARK                         _______ _______ _______ _____ _____    ______ ____
ROOT
ATOM      1  C   UNL     1       0.420  -6.854  -0.025  0.00  0.00    +0.149 C 
ATOM      2  C   UNL     1       0.531  -8.370  -0.029  0.00  0.00    +0.235 C 
ATOM      3  O   UNL     1      -0.015  -9.054  -0.868  0.00  0.00    -0.274 OA
ATOM      4  N   UNL     1       1.261  -8.896   0.940  0.00  0.00    -0.249 N 
ATOM      5  C   UNL     1       1.886  -8.126   1.898  0.00  0.00    +0.164 C 
ATOM      6  N   UNL     1       2.632  -8.526   2.900  0.00  0.00    -0.226 NA
ATOM      7  S   UNL     1       1.442  -6.452   1.453  0.00  0.00    -0.077 S 
ENDROOT
BRANCH   6   8
ATOM      8  C   UNL     1       3.176  -7.608   3.760  0.00  0.00    +0.067 A 
ATOM      9  C   UNL     1       3.777  -6.451   3.260  0.00  0.00    +0.030 A 
ATOM     10  C   UNL     1       4.323  -5.530   4.131  0.00  0.00    +0.040 A 
ATOM     11  C   UNL     1       4.275  -5.752   5.497  0.00  0.00    +0.124 A 
ATOM     12  C   UNL     1       3.679  -6.898   5.998  0.00  0.00    +0.040 A 
ATOM     13  C   UNL     1       3.125  -7.823   5.138  0.00  0.00    +0.030 A 
ATOM     14  F   UNL     1       4.811  -4.846   6.345  0.00  0.00    -0.205 F 
ENDBRANCH   6   8
BRANCH   1  15
ATOM     15  C   UNL     1       1.022  -6.250  -1.296  0.00  0.00    +0.120 C 
BRANCH  15  17
ATOM     16  N   UNL     1       1.323  -4.003  -2.285  0.00  0.00    -0.282 N 
ATOM     17  C   UNL     1       0.864  -4.752  -1.263  0.00  0.00    +0.219 C 
ATOM     18  O   UNL     1       0.324  -4.219  -0.316  0.00  0.00    -0.275 OA
ATOM     19  H   UNL     1       1.683  -4.433  -3.078  0.00  0.00    +0.155 HD
BRANCH  16  24
ATOM     20  C   UNL     1       1.228  -0.598  -0.888  0.00  0.00    +0.122 A 
ATOM     21  C   UNL     1       1.201   0.162  -2.048  0.00  0.00    +0.049 A 
ATOM     22  C   UNL     1       1.214  -0.457  -3.284  0.00  0.00    +0.051 A 
ATOM     23  C   UNL     1       1.255  -1.839  -3.367  0.00  0.00    +0.141 A 
ATOM     24  C   UNL     1       1.283  -2.605  -2.204  0.00  0.00    +0.079 A 
ATOM     25  C   UNL     1       1.274  -1.981  -0.966  0.00  0.00    +0.072 A 
BRANCH  20  27
ATOM     26  C   UNL     1       1.167   1.443   0.331  0.00  0.00    +0.277 C 
ATOM     27  O   UNL     1       1.215   0.015   0.326  0.00  0.00    -0.495 OA
ENDBRANCH  20  27
BRANCH  23  28
ATOM     28  O   UNL     1       1.268  -2.448  -4.584  0.00  0.00    -0.493 OA
ATOM     29  C   UNL     1       1.238  -1.601  -5.734  0.00  0.00    +0.277 C 
ENDBRANCH  23  28
ENDBRANCH  16  24
ENDBRANCH  15  17
ENDBRANCH   1  15
BRANCH   4  30
ATOM     30  C   UNL     1       1.412 -10.352   0.997  0.00  0.00    +0.120 C 
BRANCH  30  31
ATOM     31  C   UNL     1       2.637 -10.771   0.182  0.00  0.00    +0.050 C 
BRANCH  31  32
ATOM     32  C   UNL     1       2.792 -12.269   0.241  0.00  0.00    -0.072 C 
ATOM     33  C   UNL     1       2.287 -12.970  -0.723  0.00  0.00    -0.028 C 
ATOM     34  C   UNL     1       2.353 -14.467  -0.797  0.00  0.00    +0.027 C 
ATOM     35  C   UNL     1       3.429 -14.996   0.154  0.00  0.00    +0.004 C 
ATOM     36  C   UNL     1       3.220 -14.350   1.530  0.00  0.00    +0.005 C 
ATOM     37  C   UNL     1       3.528 -12.854   1.411  0.00  0.00    +0.030 C 
ENDBRANCH  31  32
ENDBRANCH  30  31
ENDBRANCH   4  30
TORSDOF 9
