REMARK  Name = ZINC39576285
REMARK  9 active torsions:
REMARK  status: ('A' for Active; 'I' for Inactive)
REMARK    1  A    between atoms: C_1  and  C_2
REMARK    2  A    between atoms: C_7  and  N_8
REMARK    3  A    between atoms: C_12  and  S_13
REMARK    4  A    between atoms: S_13  and  C_14
REMARK    5  A    between atoms: C_14  and  C_15
REMARK    6  A    between atoms: N_17  and  C_18
REMARK    7  A    between atoms: C_18  and  C_19
REMARK    8  A    between atoms: C_19  and  N_20
REMARK    9  A    between atoms: C_24  and  C_25
REMARK                            x       y       z     vdW  Elec       q    Type
REMARK                         _______ _______ _______ _____ _____    ______ ____
ROOT
ATOM      1  C   UNL     1      -4.450   3.525   4.028  0.00  0.00    +0.223 C 
ATOM      2  O   UNL     1      -4.510   3.089   2.898  0.00  0.00    -0.275 OA
ATOM      3  N   UNL     1      -5.500   4.188   4.551  0.00  0.00    -0.313 N 
ATOM      4  H   UNL     1      -5.452   4.536   5.455  0.00  0.00    +0.149 HD
ENDROOT
BRANCH   1   5
ATOM      5  C   UNL     1      -3.200   3.325   4.847  0.00  0.00    +0.173 C 
BRANCH   5   6
ATOM      6  S   UNL     1      -1.979   2.405   3.871  0.00  0.00    -0.076 S 
BRANCH   6  11
ATOM      7  N   UNL     1       0.591   1.634   4.674  0.00  0.00    -0.277 N 
ATOM      8  C   UNL     1       1.355   1.775   5.802  0.00  0.00    +0.230 A 
ATOM      9  N   UNL     1       0.643   2.433   6.673  0.00  0.00    -0.137 NA
ATOM     10  N   UNL     1      -0.509   2.715   6.179  0.00  0.00    -0.122 NA
ATOM     11  C   UNL     1      -0.596   2.255   4.952  0.00  0.00    +0.196 A 
BRANCH   7  18
ATOM     12  C   UNL     1       0.827   3.208   2.315  0.00  0.00    +0.046 C 
ATOM     13  C   UNL     1       1.078   1.722   2.308  0.00  0.00    -0.027 A 
ATOM     14  C   UNL     1       1.439   1.088   1.135  0.00  0.00    +0.005 A 
ATOM     15  C   UNL     1       1.669  -0.275   1.128  0.00  0.00    +0.000 A 
ATOM     16  C   UNL     1       1.539  -1.008   2.294  0.00  0.00    +0.002 A 
ATOM     17  C   UNL     1       1.178  -0.379   3.469  0.00  0.00    +0.026 A 
ATOM     18  C   UNL     1       0.952   0.991   3.481  0.00  0.00    +0.053 A 
ENDBRANCH   7  18
ENDBRANCH   6  11
ENDBRANCH   5   6
ENDBRANCH   1   5
BRANCH   3  19
ATOM     19  C   UNL     1      -6.714   4.382   3.756  0.00  0.00    +0.123 C 
BRANCH  19  20
ATOM     20  C   UNL     1      -7.745   5.158   4.578  0.00  0.00    +0.136 C 
BRANCH  20  21
ATOM     21  N   UNL     1      -8.959   5.352   3.782  0.00  0.00    -0.227 N 
ATOM     22  C   UNL     1      -9.068   6.429   3.022  0.00  0.00    +0.260 C 
ATOM     23  O   UNL     1      -8.185   7.264   2.965  0.00  0.00    -0.269 OA
ATOM     24  C   UNL     1     -10.318   6.566   2.244  0.00  0.00    +0.080 C 
ATOM     25  C   UNL     1     -10.702   7.547   1.392  0.00  0.00    +0.029 C 
ATOM     26  S   UNL     1     -11.181   5.079   2.734  0.00  0.00    -0.026 S 
ATOM     27  C   UNL     1      -9.938   4.426   3.837  0.00  0.00    +0.286 C 
ATOM     28  O   UNL     1      -9.967   3.397   4.484  0.00  0.00    -0.262 OA
BRANCH  25  29
ATOM     29  C   UNL     1      -9.752   8.601   1.006  0.00  0.00    -0.006 A 
ATOM     30  C   UNL     1      -8.405   8.292   0.761  0.00  0.00    +0.011 A 
ATOM     31  C   UNL     1      -7.553   9.320   0.401  0.00  0.00    +0.020 A 
ATOM     32  C   UNL     1      -8.050  10.607   0.296  0.00  0.00    +0.111 A 
ATOM     33  N   UNL     1      -9.321  10.870   0.532  0.00  0.00    -0.263 NA
ATOM     34  C   UNL     1     -10.175   9.927   0.872  0.00  0.00    +0.118 A 
ENDBRANCH  25  29
ENDBRANCH  20  21
ENDBRANCH  19  20
ENDBRANCH   3  19
TORSDOF 8
