REMARK  Name = ZINC04543370
REMARK  8 active torsions:
REMARK  status: ('A' for Active; 'I' for Inactive)
REMARK    1  A    between atoms: C_1  and  C_2
REMARK    2  A    between atoms: C_14  and  C_17
REMARK    3  A    between atoms: C_19  and  O_27
REMARK    4  A    between atoms: C_20  and  O_25
REMARK    5  A    between atoms: C_21  and  O_23
REMARK    6  A    between atoms: O_23  and  C_24
REMARK    7  A    between atoms: O_25  and  C_26
REMARK    8  A    between atoms: O_27  and  C_28
REMARK                            x       y       z     vdW  Elec       q    Type
REMARK                         _______ _______ _______ _____ _____    ______ ____
ROOT
ATOM      1  C   UNL     1      -6.731   0.149   0.633  0.00  0.00    +0.008 C 
ATOM      2  C   UNL     1      -5.271   0.580   0.789  0.00  0.00    -0.009 C 
ATOM      3  C   UNL     1      -4.371  -0.346  -0.035  0.00  0.00    +0.008 C 
ATOM      4  C   UNL     1      -2.904  -0.083   0.306  0.00  0.00    +0.037 C 
ATOM      5  C   UNL     1      -2.625   1.409   0.161  0.00  0.00    -0.023 A 
ATOM      6  C   UNL     1      -3.636   2.305   0.154  0.00  0.00    -0.004 A 
ATOM      7  S   UNL     1      -2.849   3.883  -0.035  0.00  0.00    -0.078 S 
ATOM      8  C   UNL     1      -1.219   3.362  -0.104  0.00  0.00    +0.080 A 
ATOM      9  C   UNL     1      -1.289   1.967   0.019  0.00  0.00    +0.068 A 
ATOM     10  C   UNL     1      -0.014   1.213   0.009  0.00  0.00    +0.248 C 
ATOM     11  O   UNL     1       0.002  -0.004   0.002  0.00  0.00    -0.270 OA
ATOM     12  N   UNL     1       1.128   1.931   0.002  0.00  0.00    -0.289 N 
ATOM     13  C   UNL     1       1.177   3.369   0.250  0.00  0.00    +0.190 C 
ATOM     14  N   UNL     1      -0.036   4.040  -0.250  0.00  0.00    -0.316 N 
ATOM     15  C   UNL     1      -5.101   2.018   0.279  0.00  0.00    +0.046 C 
ATOM     16  H   UNL     1       1.961   1.468  -0.178  0.00  0.00    +0.151 HD
ATOM     17  H   UNL     1       0.000   4.918  -0.661  0.00  0.00    +0.149 HD
ENDROOT
BRANCH  13  18
ATOM     18  C   UNL     1       1.298   3.609   1.733  0.00  0.00    -0.002 A 
ATOM     19  C   UNL     1       0.770   4.758   2.291  0.00  0.00    +0.056 A 
ATOM     20  C   UNL     1       0.875   4.980   3.655  0.00  0.00    +0.166 A 
ATOM     21  C   UNL     1       1.522   4.052   4.461  0.00  0.00    +0.204 A 
ATOM     22  C   UNL     1       2.058   2.900   3.896  0.00  0.00    +0.166 A 
ATOM     23  C   UNL     1       1.943   2.683   2.531  0.00  0.00    +0.056 A 
BRANCH  22  24
ATOM     24  O   UNL     1       2.693   1.989   4.680  0.00  0.00    -0.491 OA
ATOM     25  C   UNL     1       3.219   0.829   4.031  0.00  0.00    +0.277 C 
ENDBRANCH  22  24
BRANCH  21  26
ATOM     26  O   UNL     1       1.633   4.269   5.800  0.00  0.00    -0.488 OA
ATOM     27  C   UNL     1       2.789   4.979   6.248  0.00  0.00    +0.277 C 
ENDBRANCH  21  26
BRANCH  20  28
ATOM     28  O   UNL     1       0.349   6.109   4.204  0.00  0.00    -0.491 OA
ATOM     29  C   UNL     1      -0.302   7.019   3.316  0.00  0.00    +0.277 C 
ENDBRANCH  20  28
ENDBRANCH  13  18
TORSDOF 4
