REMARK  Name = ZINC67560582
REMARK  11 active torsions:
REMARK  status: ('A' for Active; 'I' for Inactive)
REMARK    1  A    between atoms: C_1  and  C_2
REMARK    2  A    between atoms: C_5  and  O_8
REMARK    3  A    between atoms: O_8  and  C_9
REMARK    4  A    between atoms: C_9  and  C_10
REMARK    5  A    between atoms: C_10  and  C_12
REMARK    6  A    between atoms: C_10  and  N_13
REMARK    7  A    between atoms: N_16  and  C_17
REMARK    8  A    between atoms: C_17  and  C_19
REMARK    9  A    between atoms: C_17  and  C_20
REMARK   10  A    between atoms: C_24  and  S_26
REMARK   11  A    between atoms: S_26  and  N_29
REMARK                            x       y       z     vdW  Elec       q    Type
REMARK                         _______ _______ _______ _____ _____    ______ ____
ROOT
ATOM      1  N   UNL     1      -1.160  -6.721   0.402  0.00  0.00    -0.294 N 
ATOM      2  C   UNL     1      -1.607  -7.982   0.562  0.00  0.00    +0.300 C 
ATOM      3  O   UNL     1      -0.974  -8.771   1.236  0.00  0.00    -0.253 OA
ATOM      4  N   UNL     1      -2.757  -8.368  -0.026  0.00  0.00    -0.293 N 
ATOM      5  H   UNL     1      -1.665  -6.091  -0.136  0.00  0.00    +0.151 HD
ATOM      6  H   UNL     1      -3.262  -7.739  -0.564  0.00  0.00    +0.151 HD
ENDROOT
BRANCH   1   7
ATOM      7  C   UNL     1       0.090  -6.300   1.040  0.00  0.00    +0.109 C 
ATOM      8  C   UNL     1       1.272  -6.677   0.145  0.00  0.00    +0.031 C 
BRANCH   7   9
ATOM      9  C   UNL     1       0.072  -4.785   1.249  0.00  0.00    +0.251 C 
BRANCH   9  10
ATOM     10  O   UNL     1       0.057  -4.129  -0.021  0.00  0.00    -0.490 OA
BRANCH  10  15
ATOM     11  C   UNL     1      -0.018   1.503   0.010  0.00  0.00    +0.044 C 
ATOM     12  C   UNL     1       0.002  -0.004   0.002  0.00  0.00    -0.050 A 
ATOM     13  C   UNL     1       0.006  -0.688  -1.200  0.00  0.00    +0.007 A 
ATOM     14  C   UNL     1       0.024  -2.069  -1.210  0.00  0.00    +0.046 A 
ATOM     15  C   UNL     1       0.039  -2.770  -0.013  0.00  0.00    +0.121 A 
ATOM     16  C   UNL     1       0.036  -2.082   1.191  0.00  0.00    +0.046 A 
ATOM     17  C   UNL     1       0.023  -0.701   1.196  0.00  0.00    +0.007 A 
ENDBRANCH  10  15
ENDBRANCH   9  10
ENDBRANCH   7   9
ENDBRANCH   1   7
BRANCH   4  18
ATOM     18  C   UNL     1      -3.244  -9.739   0.148  0.00  0.00    +0.102 C 
ATOM     19  C   UNL     1      -4.046  -9.834   1.447  0.00  0.00    +0.033 C 
BRANCH  18  20
ATOM     20  C   UNL     1      -4.125 -10.111  -1.016  0.00  0.00    -0.026 A 
ATOM     21  C   UNL     1      -5.007  -9.183  -1.539  0.00  0.00    +0.005 A 
ATOM     22  C   UNL     1      -5.816  -9.524  -2.607  0.00  0.00    +0.002 A 
ATOM     23  C   UNL     1      -5.743 -10.792  -3.152  0.00  0.00    +0.028 A 
ATOM     24  C   UNL     1      -4.862 -11.720  -2.629  0.00  0.00    +0.105 A 
ATOM     25  C   UNL     1      -4.050 -11.377  -1.564  0.00  0.00    +0.034 A 
BRANCH  24  26
ATOM     26  S   UNL     1      -4.770 -13.337  -3.323  0.00  0.00    +0.056 S 
ATOM     27  O   UNL     1      -4.258 -14.187  -2.306  0.00  0.00    -0.153 OA
ATOM     28  O   UNL     1      -6.017 -13.577  -3.960  0.00  0.00    -0.153 OA
BRANCH  26  29
ATOM     29  N   UNL     1      -3.628 -13.291  -4.521  0.00  0.00    -0.204 NA
ATOM     30  H   UNL     1      -3.160 -12.464  -4.714  0.00  0.00    +0.144 HD
ATOM     31  H   UNL     1      -3.427 -14.092  -5.030  0.00  0.00    +0.144 HD
ENDBRANCH  26  29
ENDBRANCH  24  26
ENDBRANCH  18  20
ENDBRANCH   4  18
TORSDOF 8
