REMARK  Name = ZINC13064302
REMARK  13 active torsions:
REMARK  status: ('A' for Active; 'I' for Inactive)
REMARK    1  A    between atoms: C_1  and  C_2
REMARK    2  A    between atoms: C_2  and  C_3
REMARK    3  A    between atoms: C_3  and  C_5
REMARK    4  A    between atoms: C_3  and  N_71
REMARK    5  A    between atoms: N_9  and  C_10
REMARK    6  A    between atoms: C_10  and  C_11
REMARK    7  A    between atoms: C_14  and  O_17
REMARK    8  A    between atoms: O_17  and  C_18
REMARK    9  A    between atoms: C_19  and  C_20
REMARK   10  A    between atoms: C_19  and  N_71
REMARK   11  A    between atoms: C_25  and  O_32
REMARK   12  A    between atoms: O_32  and  C_33
REMARK   13  A    between atoms: C_34  and  N_71
REMARK                            x       y       z     vdW  Elec       q    Type
REMARK                         _______ _______ _______ _____ _____    ______ ____
ROOT
ATOM      1  N   UNL     1      -8.240  -1.118   3.853  0.00  0.00    +0.391 N 
ATOM      2  H   UNL     1      -7.357  -1.579   3.604  0.00  0.00    -0.080 HD
ENDROOT
BRANCH   1   3
ATOM      3  C   UNL     1      -8.086  -0.465   5.170  0.00  0.00    -0.067 C 
ATOM      4  C   UNL     1      -9.119   0.666   5.351  0.00  0.00    -0.015 C 
ATOM      5  C   UNL     1      -8.344   1.770   6.113  0.00  0.00    -0.002 C 
ATOM      6  C   UNL     1      -6.933   1.698   5.477  0.00  0.00    -0.002 C 
ATOM      7  C   UNL     1      -6.696   0.191   5.251  0.00  0.00    -0.015 C 
ENDBRANCH   1   3
BRANCH   1   8
ATOM      8  C   UNL     1      -9.311  -2.135   3.916  0.00  0.00    +0.003 C 
BRANCH   8   9
ATOM      9  C   UNL     1     -10.666  -1.479   3.843  0.00  0.00    +0.138 A 
ATOM     10  N   UNL     1     -11.073  -0.445   4.537  0.00  0.00    -0.115 NA
ATOM     11  N   UNL     1     -12.286  -0.185   4.189  0.00  0.00    -0.023 NA
ATOM     12  N   UNL     1     -12.666  -1.031   3.296  0.00  0.00    -0.044 NA
ATOM     13  N   UNL     1     -11.695  -1.846   3.056  0.00  0.00    -0.226 N 
BRANCH  13  14
ATOM     14  C   UNL     1     -11.709  -2.961   2.106  0.00  0.00    +0.182 C 
BRANCH  14  15
ATOM     15  C   UNL     1     -12.188  -4.208   2.802  0.00  0.00    -0.026 A 
ATOM     16  C   UNL     1     -11.277  -5.050   3.413  0.00  0.00    +0.009 A 
ATOM     17  C   UNL     1     -11.714  -6.192   4.057  0.00  0.00    +0.046 A 
ATOM     18  C   UNL     1     -13.066  -6.499   4.080  0.00  0.00    +0.120 A 
ATOM     19  C   UNL     1     -13.978  -5.655   3.462  0.00  0.00    +0.046 A 
ATOM     20  C   UNL     1     -13.536  -4.512   2.824  0.00  0.00    +0.009 A 
BRANCH  18  21
ATOM     21  O   UNL     1     -13.498  -7.624   4.709  0.00  0.00    -0.495 OA
ATOM     22  C   UNL     1     -12.504  -8.445   5.324  0.00  0.00    +0.277 C 
ENDBRANCH  18  21
ENDBRANCH  14  15
ENDBRANCH  13  14
ENDBRANCH   8   9
BRANCH   8  24
ATOM     23  C   UNL     1      -7.818  -3.583   5.300  0.00  0.00    +0.002 C 
ATOM     24  C   UNL     1      -9.191  -2.913   5.228  0.00  0.00    -0.011 C 
ENDBRANCH   8  24
ENDBRANCH   1   8
BRANCH   1  25
ATOM     25  C   UNL     1      -8.563  -0.108   2.823  0.00  0.00    -0.036 C 
BRANCH  25  26
ATOM     26  C   UNL     1      -8.317  -0.710   1.463  0.00  0.00    +0.001 A 
ATOM     27  C   UNL     1      -9.361  -1.175   0.731  0.00  0.00    +0.017 A 
ATOM     28  C   UNL     1      -9.091  -1.752  -0.585  0.00  0.00    -0.001 A 
ATOM     29  C   UNL     1     -10.128  -2.248  -1.384  0.00  0.00    +0.013 A 
ATOM     30  C   UNL     1      -9.846  -2.776  -2.610  0.00  0.00    +0.046 A 
ATOM     31  C   UNL     1      -8.530  -2.837  -3.069  0.00  0.00    +0.122 A 
ATOM     32  C   UNL     1      -7.491  -2.352  -2.294  0.00  0.00    +0.072 A 
ATOM     33  C   UNL     1      -7.760  -1.806  -1.046  0.00  0.00    +0.053 A 
ATOM     34  N   UNL     1      -6.744  -1.316  -0.252  0.00  0.00    -0.322 N 
ATOM     35  H   UNL     1      -5.829  -1.353  -0.571  0.00  0.00    +0.169 HD
ATOM     36  C   UNL     1      -7.004  -0.786   0.956  0.00  0.00    +0.251 A 
ATOM     37  O   UNL     1      -6.081  -0.363   1.630  0.00  0.00    -0.268 OA
BRANCH  31  38
ATOM     38  O   UNL     1      -8.268  -3.370  -4.289  0.00  0.00    -0.495 OA
ATOM     39  C   UNL     1      -9.384  -3.853  -5.040  0.00  0.00    +0.277 C 
ENDBRANCH  31  38
ENDBRANCH  25  26
ENDBRANCH   1  25
TORSDOF 10
