REMARK  Name = ZINC49421091
REMARK  5 active torsions:
REMARK  status: ('A' for Active; 'I' for Inactive)
REMARK    1  A    between atoms: C_1  and  C_2
REMARK    2  A    between atoms: C_7  and  C_8
REMARK    3  A    between atoms: C_8  and  N_9
REMARK    4  A    between atoms: C_10  and  C_12
REMARK    5  A    between atoms: C_26  and  C_29
REMARK                            x       y       z     vdW  Elec       q    Type
REMARK                         _______ _______ _______ _____ _____    ______ ____
ROOT
ATOM      1  C   UNL     1      -2.984   1.612   4.271  0.00  0.00    +0.078 C 
ATOM      2  C   UNL     1      -3.514   2.523   3.161  0.00  0.00    +0.032 C 
ATOM      3  C   UNL     1      -4.949   2.944   3.493  0.00  0.00    +0.108 C 
ATOM      4  N   UNL     1      -4.966   3.550   4.831  0.00  0.00    -0.301 N 
ATOM      5  C   UNL     1      -4.398   2.795   5.956  0.00  0.00    +0.108 C 
ATOM      6  C   UNL     1      -2.969   2.376   5.597  0.00  0.00    +0.032 C 
ATOM      7  C   UNL     1      -5.504   4.799   5.027  0.00  0.00    +0.199 A 
ATOM      8  N   UNL     1      -5.601   5.277   6.302  0.00  0.00    -0.294 N 
ATOM      9  H   UNL     1      -5.294   4.740   7.050  0.00  0.00    +0.172 HD
ATOM     10  C   UNL     1      -6.127   6.506   6.514  0.00  0.00    +0.267 A 
ATOM     11  O   UNL     1      -6.226   6.960   7.642  0.00  0.00    -0.267 OA
ATOM     12  C   UNL     1      -6.554   7.240   5.407  0.00  0.00    +0.103 A 
ATOM     13  C   UNL     1      -6.442   6.722   4.108  0.00  0.00    +0.095 A 
ATOM     14  N   UNL     1      -5.897   5.482   3.984  0.00  0.00    -0.215 NA
ATOM     15  C   UNL     1      -6.940   7.635   3.092  0.00  0.00    +0.018 A 
ATOM     16  C   UNL     1      -7.436   8.832   3.494  0.00  0.00    +0.056 A 
ATOM     17  S   UNL     1      -7.284   8.834   5.165  0.00  0.00    -0.089 S 
ENDROOT
BRANCH  15  18
ATOM     18  C   UNL     1      -6.906   7.267   1.656  0.00  0.00    +0.020 A 
ATOM     19  C   UNL     1      -6.102   7.981   0.770  0.00  0.00    +0.011 A 
ATOM     20  C   UNL     1      -6.074   7.634  -0.566  0.00  0.00    +0.001 A 
ATOM     21  C   UNL     1      -6.843   6.580  -1.027  0.00  0.00    +0.003 A 
ATOM     22  C   UNL     1      -7.644   5.867  -0.153  0.00  0.00    +0.039 A 
ATOM     23  C   UNL     1      -7.676   6.201   1.188  0.00  0.00    +0.131 A 
ATOM     24  F   UNL     1      -8.455   5.501   2.041  0.00  0.00    -0.205 F 
ENDBRANCH  15  18
BRANCH   1  26
ATOM     25  N   UNL     1      -1.354   0.474   2.799  0.00  0.00    -0.311 N 
ATOM     26  C   UNL     1      -1.585   1.168   3.931  0.00  0.00    +0.216 C 
ATOM     27  O   UNL     1      -0.666   1.437   4.675  0.00  0.00    -0.276 OA
ATOM     28  H   UNL     1      -2.089   0.259   2.203  0.00  0.00    +0.149 HD
BRANCH  25  29
ATOM     29  C   UNL     1       0.007   0.043   2.469  0.00  0.00    +0.139 C 
BRANCH  29  36
ATOM     30  C   UNL     1      -0.065   1.489  -0.031  0.00  0.00    +0.044 C 
ATOM     31  C   UNL     1      -0.042  -0.018  -0.033  0.00  0.00    -0.046 A 
ATOM     32  C   UNL     1      -0.050  -0.708  -1.231  0.00  0.00    +0.003 A 
ATOM     33  C   UNL     1      -0.029  -2.090  -1.233  0.00  0.00    +0.000 A 
ATOM     34  C   UNL     1       0.000  -2.782  -0.036  0.00  0.00    +0.000 A 
ATOM     35  C   UNL     1       0.009  -2.092   1.161  0.00  0.00    +0.005 A 
ATOM     36  C   UNL     1      -0.008  -0.710   1.163  0.00  0.00    -0.027 A 
ENDBRANCH  29  36
ENDBRANCH  25  29
ENDBRANCH   1  26
TORSDOF 4
