REMARK  Name = ZINC04091906
REMARK  10 active torsions:
REMARK  status: ('A' for Active; 'I' for Inactive)
REMARK    1  A    between atoms: C_1  and  C_2
REMARK    2  A    between atoms: C_2  and  C_4
REMARK    3  A    between atoms: C_2  and  N_10
REMARK    4  A    between atoms: N_10  and  C_11
REMARK    5  A    between atoms: C_13  and  N_20
REMARK    6  A    between atoms: C_16  and  N_17
REMARK    7  A    between atoms: N_23  and  S_26
REMARK    8  A    between atoms: S_26  and  C_29
REMARK    9  A    between atoms: C_32  and  N_35
REMARK   10  A    between atoms: C_36  and  C_38
REMARK                            x       y       z     vdW  Elec       q    Type
REMARK                         _______ _______ _______ _____ _____    ______ ____
ROOT
ATOM      1  N   UNL     1      -0.912   8.672   4.017  0.00  0.00    -0.327 N 
ATOM      2  C   UNL     1       0.231   8.239   3.203  0.00  0.00    +0.122 C 
ATOM      3  C   UNL     1       0.188   8.953   1.847  0.00  0.00    +0.128 C 
ATOM      4  N   UNL     1      -1.131   8.723   1.240  0.00  0.00    -0.174 NA
ATOM      5  C   UNL     1      -2.328   9.011   2.045  0.00  0.00    +0.128 C 
ATOM      6  C   UNL     1      -2.186   8.289   3.394  0.00  0.00    +0.122 C 
ENDROOT
BRANCH   1   9
ATOM      7  C   UNL     1      -1.710   7.964   7.538  0.00  0.00    +0.060 A 
ATOM      8  C   UNL     1      -1.802   8.470   6.249  0.00  0.00    +0.048 A 
ATOM      9  C   UNL     1      -0.820   8.170   5.317  0.00  0.00    +0.032 A 
ATOM     10  C   UNL     1       0.260   7.373   5.680  0.00  0.00    +0.025 A 
ATOM     11  C   UNL     1       0.352   6.875   6.965  0.00  0.00    +0.036 A 
ATOM     12  C   UNL     1      -0.628   7.168   7.894  0.00  0.00    +0.147 A 
BRANCH  12  13
ATOM     13  N   UNL     1      -0.525   6.633   9.271  0.00  0.00    +0.058 N 
ATOM     14  O   UNL     1       0.469   6.018   9.612  0.00  0.00    -0.126 OA
ATOM     15  O   UNL     1      -1.434   6.809  10.062  0.00  0.00    -0.126 OA
ENDBRANCH  12  13
BRANCH   7  16
ATOM     16  N   UNL     1      -2.699   8.260   8.479  0.00  0.00    -0.335 N 
ATOM     17  H   UNL     1      -2.674   7.846   9.355  0.00  0.00    +0.147 HD
BRANCH  16  19
ATOM     18  C   UNL     1      -3.306  10.628   8.400  0.00  0.00    +0.033 C 
ATOM     19  C   UNL     1      -3.775   9.195   8.140  0.00  0.00    +0.098 C 
BRANCH  19  20
ATOM     20  C   UNL     1      -4.984   8.900   8.991  0.00  0.00    -0.028 A 
ATOM     21  C   UNL     1      -4.826   8.564  10.322  0.00  0.00    +0.005 A 
ATOM     22  C   UNL     1      -5.935   8.297  11.104  0.00  0.00    +0.000 A 
ATOM     23  C   UNL     1      -7.200   8.357  10.551  0.00  0.00    +0.000 A 
ATOM     24  C   UNL     1      -7.358   8.688   9.218  0.00  0.00    +0.000 A 
ATOM     25  C   UNL     1      -6.249   8.959   8.438  0.00  0.00    +0.005 A 
ENDBRANCH  19  20
ENDBRANCH  16  19
ENDBRANCH   7  16
ENDBRANCH   1   9
BRANCH   4  26
ATOM     26  S   UNL     1      -1.266   8.162  -0.312  0.00  0.00    +0.061 S 
ATOM     27  O   UNL     1      -0.062   8.517  -0.979  0.00  0.00    -0.153 OA
ATOM     28  O   UNL     1      -2.544   8.569  -0.782  0.00  0.00    -0.153 OA
BRANCH  26  29
ATOM     29  C   UNL     1      -1.296   6.402  -0.229  0.00  0.00    +0.106 A 
ATOM     30  C   UNL     1      -2.503   5.738  -0.102  0.00  0.00    +0.030 A 
ATOM     31  C   UNL     1      -2.530   4.359  -0.037  0.00  0.00    +0.025 A 
ATOM     32  C   UNL     1      -1.344   3.639  -0.099  0.00  0.00    +0.033 A 
ATOM     33  C   UNL     1      -0.134   4.309  -0.221  0.00  0.00    +0.025 A 
ATOM     34  C   UNL     1      -0.114   5.688  -0.292  0.00  0.00    +0.030 A 
BRANCH  32  35
ATOM     35  N   UNL     1      -1.368   2.241  -0.033  0.00  0.00    -0.286 N 
ATOM     36  C   UNL     1      -2.385   1.558  -0.594  0.00  0.00    +0.214 C 
ATOM     37  O   UNL     1      -3.321   2.155  -1.082  0.00  0.00    -0.276 OA
ATOM     38  C   UNL     1      -2.361   0.051  -0.610  0.00  0.00    +0.109 C 
ATOM     39  H   UNL     1      -0.653   1.765   0.417  0.00  0.00    +0.155 HD
ENDBRANCH  32  35
ENDBRANCH  26  29
ENDBRANCH   4  26
TORSDOF 8
