REMARK  Name = ZINC06178041
REMARK  10 active torsions:
REMARK  status: ('A' for Active; 'I' for Inactive)
REMARK    1  A    between atoms: C_1  and  C_2
REMARK    2  A    between atoms: C_4  and  C_40
REMARK    3  A    between atoms: C_9  and  C_14
REMARK    4  A    between atoms: C_14  and  C_16
REMARK    5  A    between atoms: C_14  and  N_72
REMARK    6  A    between atoms: N_20  and  C_21
REMARK    7  A    between atoms: C_27  and  C_28
REMARK    8  A    between atoms: C_27  and  N_72
REMARK    9  A    between atoms: C_34  and  C_35
REMARK   10  A    between atoms: C_34  and  N_72
REMARK                            x       y       z     vdW  Elec       q    Type
REMARK                         _______ _______ _______ _____ _____    ______ ____
ROOT
ATOM      1  C   UNL     1       0.509  -3.742  -1.295  0.00  0.00    +0.040 C 
ENDROOT
BRANCH   1  10
ATOM      2  C   UNL     1       2.772  -9.677  -5.203  0.00  0.00    +0.044 C 
ATOM      3  C   UNL     1       2.040  -8.363  -5.115  0.00  0.00    -0.050 A 
ATOM      4  C   UNL     1       1.412  -7.848  -6.241  0.00  0.00    +0.008 A 
ATOM      5  C   UNL     1       0.736  -6.648  -6.183  0.00  0.00    -0.026 A 
ATOM      6  C   UNL     1       0.684  -5.943  -4.985  0.00  0.00    +0.052 A 
ATOM      7  C   UNL     1       1.322  -6.467  -3.846  0.00  0.00    -0.001 A 
ATOM      8  C   UNL     1       2.001  -7.688  -3.928  0.00  0.00    +0.013 A 
ATOM      9  C   UNL     1       1.266  -5.715  -2.591  0.00  0.00    +0.017 A 
ATOM     10  C   UNL     1       0.590  -4.540  -2.571  0.00  0.00    +0.011 A 
ATOM     11  C   UNL     1      -0.034  -4.058  -3.742  0.00  0.00    +0.251 A 
ATOM     12  O   UNL     1      -0.633  -2.997  -3.703  0.00  0.00    -0.268 OA
ATOM     13  N   UNL     1       0.017  -4.739  -4.900  0.00  0.00    -0.322 N 
ATOM     14  H   UNL     1      -0.422  -4.379  -5.686  0.00  0.00    +0.169 HD
ATOM     15  C   UNL     1       0.058  -6.102  -7.413  0.00  0.00    +0.046 C 
ENDBRANCH   1  10
BRANCH   1  16
ATOM     16  C   UNL     1      -0.884  -3.843  -0.727  0.00  0.00    +0.143 A 
ATOM     17  N   UNL     1      -1.955  -3.229  -1.167  0.00  0.00    -0.115 NA
ATOM     18  N   UNL     1      -2.946  -3.574  -0.420  0.00  0.00    -0.023 NA
ATOM     19  N   UNL     1      -2.534  -4.386   0.490  0.00  0.00    -0.044 NA
ATOM     20  N   UNL     1      -1.268  -4.577   0.334  0.00  0.00    -0.227 N 
BRANCH  20  21
ATOM     21  C   UNL     1      -0.409  -5.431   1.158  0.00  0.00    +0.111 C 
ATOM     22  C   UNL     1      -0.916  -6.873   1.098  0.00  0.00    +0.027 C 
ATOM     23  C   UNL     1      -0.019  -7.766   1.958  0.00  0.00    +0.002 C 
ATOM     24  C   UNL     1      -0.050  -7.274   3.407  0.00  0.00    +0.000 C 
ATOM     25  C   UNL     1       0.458  -5.832   3.467  0.00  0.00    +0.002 C 
ATOM     26  C   UNL     1      -0.439  -4.940   2.607  0.00  0.00    +0.027 C 
ENDBRANCH  20  21
ENDBRANCH   1  16
BRANCH   1  27
ATOM     27  N   UNL     1       0.807  -2.327  -1.599  0.00  0.00    +0.397 N 
ATOM     28  H   UNL     1       0.284  -2.049  -2.438  0.00  0.00    -0.079 HD
BRANCH  27  29
ATOM     29  C   UNL     1       0.394  -1.469  -0.469  0.00  0.00    -0.039 C 
BRANCH  29  30
ATOM     30  C   UNL     1       0.503  -0.026  -0.889  0.00  0.00    -0.046 A 
ATOM     31  C   UNL     1       1.678   0.680  -0.677  0.00  0.00    +0.005 A 
ATOM     32  C   UNL     1       1.733   2.005  -1.080  0.00  0.00    +0.020 A 
ATOM     33  C   UNL     1       0.623   2.575  -1.675  0.00  0.00    +0.111 A 
ATOM     34  N   UNL     1      -0.477   1.873  -1.861  0.00  0.00    -0.263 NA
ATOM     35  C   UNL     1      -0.566   0.611  -1.490  0.00  0.00    +0.112 A 
ENDBRANCH  29  30
ENDBRANCH  27  29
BRANCH  27  36
ATOM     36  C   UNL     1       2.253  -2.160  -1.858  0.00  0.00    -0.001 C 
BRANCH  36  37
ATOM     37  C   UNL     1       2.561  -2.687  -3.236  0.00  0.00    +0.089 A 
ATOM     38  C   UNL     1       2.383  -2.020  -4.391  0.00  0.00    +0.042 A 
ATOM     39  C   UNL     1       2.799  -2.883  -5.431  0.00  0.00    +0.041 A 
ATOM     40  C   UNL     1       3.206  -4.026  -4.849  0.00  0.00    +0.195 A 
ATOM     41  O   UNL     1       3.065  -3.899  -3.520  0.00  0.00    -0.470 OA
ENDBRANCH  36  37
ENDBRANCH  27  36
ENDBRANCH   1  27
TORSDOF 8
