REMARK  Name = ZINC16319324
REMARK  11 active torsions:
REMARK  status: ('A' for Active; 'I' for Inactive)
REMARK    1  A    between atoms: C_1  and  C_2
REMARK    2  A    between atoms: C_2  and  O_3
REMARK    3  A    between atoms: O_3  and  C_4
REMARK    4  A    between atoms: C_7  and  N_10
REMARK    5  A    between atoms: N_10  and  C_11
REMARK    6  A    between atoms: C_11  and  N_13
REMARK    7  A    between atoms: C_14  and  C_26
REMARK    8  A    between atoms: N_15  and  C_16
REMARK    9  A    between atoms: C_16  and  C_17
REMARK   10  A    between atoms: C_20  and  N_23
REMARK   11  A    between atoms: C_29  and  C_32
REMARK                            x       y       z     vdW  Elec       q    Type
REMARK                         _______ _______ _______ _____ _____    ______ ____
ROOT
ATOM      1  N   UNL     1       1.532  -7.760   3.463  0.00  0.00    -0.285 N 
ATOM      2  C   UNL     1       2.320  -8.172   4.439  0.00  0.00    +0.097 C 
ATOM      3  N   UNL     1       3.086  -7.270   5.126  0.00  0.00    -0.328 N 
ATOM      4  H   UNL     1       3.728  -7.581   5.783  0.00  0.00    +0.148 HD
ATOM      5  H   UNL     1       0.840  -8.346   3.118  0.00  0.00    +0.155 HD
ENDROOT
BRANCH   2   6
ATOM      6  C   UNL     1       2.374  -9.605   4.790  0.00  0.00    +0.011 A 
ATOM      7  C   UNL     1       3.545 -10.155   5.315  0.00  0.00    +0.011 A 
ATOM      8  C   UNL     1       3.589 -11.495   5.640  0.00  0.00    +0.004 A 
ATOM      9  C   UNL     1       2.476 -12.293   5.447  0.00  0.00    -0.050 A 
ATOM     10  C   UNL     1       1.312 -11.755   4.926  0.00  0.00    +0.004 A 
ATOM     11  C   UNL     1       1.252 -10.416   4.602  0.00  0.00    +0.011 A 
ATOM     12  C   UNL     1       2.531 -13.757   5.804  0.00  0.00    +0.044 C 
ENDBRANCH   2   6
BRANCH   1  13
ATOM     13  C   UNL     1       1.687  -6.530   2.948  0.00  0.00    +0.140 C 
ATOM     14  S   UNL     1       0.559  -5.297   3.320  0.00  0.00    -0.018 S 
BRANCH  13  15
ATOM     15  N   UNL     1       2.732  -6.266   2.139  0.00  0.00    -0.297 N 
ATOM     16  H   UNL     1       3.330  -6.981   1.870  0.00  0.00    +0.154 HD
BRANCH  15  20
ATOM     17  C   UNL     1       3.392  -2.377   0.788  0.00  0.00    +0.121 A 
ATOM     18  C   UNL     1       4.436  -3.108   1.336  0.00  0.00    +0.047 A 
ATOM     19  C   UNL     1       4.218  -4.396   1.784  0.00  0.00    +0.027 A 
ATOM     20  C   UNL     1       2.954  -4.960   1.685  0.00  0.00    +0.033 A 
ATOM     21  C   UNL     1       1.909  -4.228   1.136  0.00  0.00    +0.027 A 
ATOM     22  C   UNL     1       2.127  -2.939   0.694  0.00  0.00    +0.047 A 
BRANCH  17  23
ATOM     23  O   UNL     1       3.607  -1.109   0.347  0.00  0.00    -0.492 OA
BRANCH  23  25
ATOM     24  C   UNL     1       4.981   0.835  -0.069  0.00  0.00    +0.048 C 
ATOM     25  C   UNL     1       4.934  -0.595   0.475  0.00  0.00    +0.225 C 
ENDBRANCH  23  25
ENDBRANCH  17  23
ENDBRANCH  15  20
ENDBRANCH  13  15
ENDBRANCH   1  13
BRANCH   3  26
ATOM     26  C   UNL     1       2.936  -5.836   4.870  0.00  0.00    +0.138 C 
BRANCH  26  27
ATOM     27  C   UNL     1       3.737  -5.058   5.882  0.00  0.00    -0.030 A 
ATOM     28  C   UNL     1       3.157  -4.675   7.076  0.00  0.00    +0.007 A 
ATOM     29  C   UNL     1       3.892  -3.962   8.005  0.00  0.00    +0.033 A 
ATOM     30  C   UNL     1       5.208  -3.631   7.738  0.00  0.00    +0.126 A 
ATOM     31  C   UNL     1       5.788  -4.015   6.543  0.00  0.00    +0.033 A 
ATOM     32  C   UNL     1       5.054  -4.732   5.617  0.00  0.00    +0.007 A 
BRANCH  30  33
ATOM     33  N   UNL     1       5.995  -2.867   8.731  0.00  0.00    +0.056 N 
ATOM     34  O   UNL     1       5.487  -2.531   9.776  0.00  0.00    -0.126 OA
ATOM     35  O   UNL     1       7.145  -2.578   8.498  0.00  0.00    -0.126 OA
ENDBRANCH  30  33
ENDBRANCH  26  27
ENDBRANCH   3  26
TORSDOF 9
