REMARK  Name = ZINC21324149
REMARK  10 active torsions:
REMARK  status: ('A' for Active; 'I' for Inactive)
REMARK    1  A    between atoms: C_1  and  C_2
REMARK    2  A    between atoms: C_2  and  C_27
REMARK    3  A    between atoms: N_3  and  N_4
REMARK    4  A    between atoms: C_8  and  S_11
REMARK    5  A    between atoms: N_9  and  N_10
REMARK    6  A    between atoms: S_11  and  C_12
REMARK    7  A    between atoms: C_12  and  C_13
REMARK    8  A    between atoms: N_15  and  C_16
REMARK    9  A    between atoms: C_18  and  C_23
REMARK   10  A    between atoms: C_28  and  C_29
REMARK                            x       y       z     vdW  Elec       q    Type
REMARK                         _______ _______ _______ _____ _____    ______ ____
ROOT
ATOM      1  N   UNL     1       1.185   7.706  -0.036  0.00  0.00    -0.204 N 
ATOM      2  C   UNL     1      -0.021   8.390  -0.011  0.00  0.00    +0.254 A 
ATOM      3  N   UNL     1      -1.217   7.857   0.002  0.00  0.00    -0.109 NA
ATOM      4  N   UNL     1      -2.111   8.780   0.025  0.00  0.00    -0.119 NA
ATOM      5  C   UNL     1      -1.539   9.959   0.029  0.00  0.00    +0.210 A 
ATOM      6  N   UNL     1      -0.185   9.752   0.012  0.00  0.00    -0.211 N 
ATOM      7  H   UNL     1       2.134   8.264  -0.044  0.00  0.00    +0.178 HD
ENDROOT
BRANCH   1  10
ATOM      8  C   UNL     1       3.629   6.427  -0.086  0.00  0.00    +0.067 C 
ATOM      9  C   UNL     1       2.330   5.663  -0.075  0.00  0.00    +0.056 C 
ATOM     10  N   UNL     1       1.196   6.305  -0.051  0.00  0.00    -0.185 NA
BRANCH   9  11
ATOM     11  C   UNL     1       2.341   4.246  -0.090  0.00  0.00    +0.025 C 
ATOM     12  C   UNL     1       1.178   3.562  -0.080  0.00  0.00    +0.010 C 
BRANCH  12  13
ATOM     13  C   UNL     1       1.190   2.090  -0.096  0.00  0.00    -0.025 A 
ATOM     14  C   UNL     1      -0.014   1.378  -0.086  0.00  0.00    +0.008 A 
ATOM     15  C   UNL     1       0.006  -0.001  -0.101  0.00  0.00    +0.001 A 
ATOM     16  C   UNL     1       1.212  -0.679  -0.127  0.00  0.00    +0.000 A 
ATOM     17  C   UNL     1       2.407   0.018  -0.137  0.00  0.00    +0.001 A 
ATOM     18  C   UNL     1       2.404   1.397  -0.122  0.00  0.00    +0.008 A 
ENDBRANCH  12  13
ENDBRANCH   9  11
ENDBRANCH   1  10
BRANCH   6  19
ATOM     19  N   UNL     1       0.796  10.702   0.015  0.00  0.00    -0.294 N 
ATOM     20  H   UNL     1       0.529  11.768   0.034  0.00  0.00    +0.163 HD
ATOM     21  H   UNL     1       1.854  10.400  -0.002  0.00  0.00    +0.163 HD
ENDBRANCH   6  19
BRANCH   5  22
ATOM     22  S   UNL     1      -2.358  11.519   0.057  0.00  0.00    -0.075 S 
BRANCH  22  23
ATOM     23  C   UNL     1      -4.082  10.969   0.078  0.00  0.00    +0.173 C 
BRANCH  23  24
ATOM     24  C   UNL     1      -4.992  12.169   0.104  0.00  0.00    +0.228 C 
ATOM     25  O   UNL     1      -4.522  13.287   0.108  0.00  0.00    -0.275 OA
ATOM     26  N   UNL     1      -6.329  12.001   0.124  0.00  0.00    -0.284 N 
ATOM     27  H   UNL     1      -6.758  10.991   0.046  0.00  0.00    +0.155 HD
BRANCH  26  28
ATOM     28  C   UNL     1      -7.173  13.112   0.243  0.00  0.00    +0.052 A 
ATOM     29  C   UNL     1      -6.822  14.319  -0.347  0.00  0.00    +0.037 A 
ATOM     30  C   UNL     1      -7.658  15.412  -0.231  0.00  0.00    +0.057 A 
ATOM     31  C   UNL     1      -8.840  15.308   0.479  0.00  0.00    +0.014 A 
ATOM     32  C   UNL     1      -9.192  14.109   1.071  0.00  0.00    +0.022 A 
ATOM     33  C   UNL     1      -8.361  13.010   0.956  0.00  0.00    +0.062 A 
ATOM     34 CL   UNL     1      -8.803  11.505   1.700  0.00  0.00    -0.082 Cl
BRANCH  30  35
ATOM     35  C   UNL     1      -7.279  16.721  -0.874  0.00  0.00    +0.417 C 
ATOM     36  F   UNL     1      -8.272  17.672  -0.617  0.00  0.00    -0.166 F 
ATOM     37  F   UNL     1      -6.061  17.164  -0.348  0.00  0.00    -0.166 F 
ATOM     38  F   UNL     1      -7.152  16.542  -2.256  0.00  0.00    -0.166 F 
ENDBRANCH  30  35
ENDBRANCH  26  28
ENDBRANCH  23  24
ENDBRANCH  22  23
ENDBRANCH   5  22
TORSDOF 9
