REMARK  Name = ZINC09243769
REMARK  8 active torsions:
REMARK  status: ('A' for Active; 'I' for Inactive)
REMARK    1  A    between atoms: C_1  and  C_2
REMARK    2  A    between atoms: C_4  and  O_35
REMARK    3  A    between atoms: C_5  and  C_9
REMARK    4  A    between atoms: N_17  and  C_28
REMARK    5  A    between atoms: C_18  and  C_20
REMARK    6  A    between atoms: C_23  and  S_26
REMARK    7  A    between atoms: S_26  and  C_27
REMARK    8  A    between atoms: C_28  and  C_29
REMARK                            x       y       z     vdW  Elec       q    Type
REMARK                         _______ _______ _______ _____ _____    ______ ____
ROOT
ATOM      1  C   UNL     1      -0.060  -4.508  -0.144  0.00  0.00    +0.075 A 
ATOM      2  C   UNL     1       1.069  -5.196  -0.460  0.00  0.00    +0.035 A 
ATOM      3  C   UNL     1       0.748  -6.563  -0.303  0.00  0.00    +0.153 A 
ATOM      4  N   UNL     1      -0.511  -6.620   0.085  0.00  0.00    -0.168 NA
ATOM      5  N   UNL     1      -1.003  -5.437   0.190  0.00  0.00    -0.276 N 
ATOM      6  H   UNL     1      -1.911  -5.235   0.465  0.00  0.00    +0.189 HD
ATOM      7  C   UNL     1       1.949  -7.351  -0.636  0.00  0.00    +0.268 C 
ATOM      8  O   UNL     1       2.013  -8.564  -0.604  0.00  0.00    -0.268 OA
ATOM      9  N   UNL     1       2.962  -6.538  -0.981  0.00  0.00    -0.281 N 
ATOM     10  C   UNL     1       2.506  -5.146  -0.902  0.00  0.00    +0.142 C 
ENDROOT
BRANCH   1  15
ATOM     11  C   UNL     1      -0.729   1.212  -0.191  0.00  0.00    +0.045 C 
ATOM     12  C   UNL     1      -0.553  -0.285  -0.177  0.00  0.00    -0.029 A 
ATOM     13  C   UNL     1       0.320  -0.866   0.725  0.00  0.00    +0.050 A 
ATOM     14  C   UNL     1       0.487  -2.240   0.742  0.00  0.00    +0.126 A 
ATOM     15  C   UNL     1      -0.232  -3.039  -0.155  0.00  0.00    +0.043 A 
ATOM     16  C   UNL     1      -1.109  -2.443  -1.060  0.00  0.00    +0.034 A 
ATOM     17  C   UNL     1      -1.269  -1.071  -1.062  0.00  0.00    +0.045 A 
ATOM     18 CL   UNL     1      -2.368  -0.330  -2.184  0.00  0.00    -0.083 Cl
BRANCH  14  19
ATOM     19  O   UNL     1       1.345  -2.812   1.627  0.00  0.00    -0.506 OA
ATOM     20  H   UNL     1       0.958  -2.979   2.498  0.00  0.00    +0.292 HD
ENDBRANCH  14  19
ENDBRANCH   1  15
BRANCH  10  21
ATOM     21  C   UNL     1       2.608  -4.489  -2.254  0.00  0.00    -0.022 A 
ATOM     22  C   UNL     1       2.097  -5.125  -3.370  0.00  0.00    +0.007 A 
ATOM     23  C   UNL     1       2.189  -4.527  -4.612  0.00  0.00    +0.015 A 
ATOM     24  C   UNL     1       2.798  -3.284  -4.738  0.00  0.00    +0.008 A 
ATOM     25  C   UNL     1       3.310  -2.647  -3.614  0.00  0.00    +0.015 A 
ATOM     26  C   UNL     1       3.209  -3.249  -2.376  0.00  0.00    +0.007 A 
BRANCH  24  27
ATOM     27  S   UNL     1       2.919  -2.517  -6.320  0.00  0.00    -0.129 S 
ATOM     28  C   UNL     1       3.769  -0.950  -5.984  0.00  0.00    +0.090 C 
ENDBRANCH  24  27
ENDBRANCH  10  21
BRANCH   9  29
ATOM     29  C   UNL     1       4.305  -6.972  -1.373  0.00  0.00    +0.145 C 
BRANCH  29  30
ATOM     30  C   UNL     1       4.351  -7.179  -2.865  0.00  0.00    -0.012 A 
ATOM     31  C   UNL     1       4.041  -8.415  -3.412  0.00  0.00    +0.008 A 
ATOM     32  C   UNL     1       4.097  -8.559  -4.790  0.00  0.00    +0.020 A 
ATOM     33  C   UNL     1       4.456  -7.473  -5.566  0.00  0.00    +0.111 A 
ATOM     34  N   UNL     1       4.745  -6.313  -5.011  0.00  0.00    -0.263 NA
ATOM     35  C   UNL     1       4.697  -6.138  -3.705  0.00  0.00    +0.115 A 
ENDBRANCH  29  30
ENDBRANCH   9  29
TORSDOF 6
