REMARK  Name = ZINC35445487
REMARK  5 active torsions:
REMARK  status: ('A' for Active; 'I' for Inactive)
REMARK    1  A    between atoms: C_6  and  S_7
REMARK    2  A    between atoms: S_7  and  N_10
REMARK    3  A    between atoms: N_16  and  C_26
REMARK    4  A    between atoms: C_26  and  C_27
REMARK    5  A    between atoms: N_29  and  C_30
REMARK                            x       y       z     vdW  Elec       q    Type
REMARK                         _______ _______ _______ _____ _____    ______ ____
ROOT
ATOM      1  C   UNL     1      -0.017   1.378   0.010  0.00  0.00    +0.030 A 
ATOM      2  C   UNL     1       1.169   2.091   0.002  0.00  0.00    +0.027 A 
ATOM      3  C   UNL     1       2.378   1.415  -0.015  0.00  0.00    +0.052 A 
ATOM      4  C   UNL     1       2.397   0.023  -0.032  0.00  0.00    +0.060 A 
ATOM      5  C   UNL     1       1.206  -0.685  -0.018  0.00  0.00    +0.054 A 
ATOM      6  C   UNL     1       0.002  -0.004   0.002  0.00  0.00    +0.107 A 
ATOM      7  N   UNL     1       3.624  -0.650  -0.080  0.00  0.00    -0.259 N 
ATOM      8  C   UNL     1       4.770   0.007   0.156  0.00  0.00    +0.241 C 
ATOM      9  O   UNL     1       5.816  -0.605   0.124  0.00  0.00    -0.273 OA
ATOM     10  C   UNL     1       4.798   1.482   0.459  0.00  0.00    +0.160 C 
ATOM     11  N   UNL     1       3.587   2.136  -0.009  0.00  0.00    -0.317 N 
ATOM     12  C   UNL     1       3.535   3.533  -0.440  0.00  0.00    +0.106 C 
ATOM     13  C   UNL     1       4.825   3.941  -1.144  0.00  0.00    +0.019 C 
ATOM     14  C   UNL     1       6.003   3.589  -0.230  0.00  0.00    +0.004 C 
ATOM     15  C   UNL     1       6.080   2.072  -0.104  0.00  0.00    +0.032 C 
ENDROOT
BRANCH   6  16
ATOM     16  S   UNL     1      -1.514  -0.902   0.018  0.00  0.00    +0.061 S 
ATOM     17  O   UNL     1      -1.221  -2.184   0.558  0.00  0.00    -0.153 OA
ATOM     18  O   UNL     1      -2.490  -0.041   0.587  0.00  0.00    -0.153 OA
BRANCH  16  19
ATOM     19  N   UNL     1      -1.956  -1.143  -1.560  0.00  0.00    -0.177 NA
ATOM     20  C   UNL     1      -2.796  -0.162  -2.260  0.00  0.00    +0.109 C 
ATOM     21  C   UNL     1      -2.096   0.247  -3.560  0.00  0.00    +0.017 C 
ATOM     22  C   UNL     1      -1.778  -1.006  -4.379  0.00  0.00    +0.003 C 
ATOM     23  C   UNL     1      -0.832  -1.910  -3.585  0.00  0.00    +0.017 C 
ATOM     24  C   UNL     1      -1.512  -2.340  -2.287  0.00  0.00    +0.109 C 
ENDBRANCH  16  19
ENDBRANCH   6  16
BRANCH   7  25
ATOM     25  C   UNL     1       3.657  -2.082  -0.390  0.00  0.00    +0.209 C 
BRANCH  25  26
ATOM     26  C   UNL     1       3.780  -2.271  -1.880  0.00  0.00    +0.231 C 
ATOM     27  O   UNL     1       3.834  -1.305  -2.611  0.00  0.00    -0.274 OA
ATOM     28  N   UNL     1       3.829  -3.513  -2.400  0.00  0.00    -0.311 N 
ATOM     29  H   UNL     1       3.785  -4.286  -1.815  0.00  0.00    +0.149 HD
BRANCH  28  30
ATOM     30  C   UNL     1       3.948  -3.697  -3.849  0.00  0.00    +0.073 C 
ATOM     31  C   UNL     1       2.558  -3.644  -4.486  0.00  0.00    +0.022 C 
ATOM     32  C   UNL     1       2.682  -3.836  -5.998  0.00  0.00    +0.002 C 
ATOM     33  C   UNL     1       3.325  -5.194  -6.289  0.00  0.00    +0.000 C 
ATOM     34  C   UNL     1       4.715  -5.247  -5.652  0.00  0.00    +0.002 C 
ATOM     35  C   UNL     1       4.591  -5.055  -4.139  0.00  0.00    +0.022 C 
ENDBRANCH  28  30
ENDBRANCH  25  26
ENDBRANCH   7  25
TORSDOF 5
