REMARK  Name = ZINC39686196
REMARK  9 active torsions:
REMARK  status: ('A' for Active; 'I' for Inactive)
REMARK    1  A    between atoms: C_1  and  C_2
REMARK    2  A    between atoms: C_2  and  C_3
REMARK    3  A    between atoms: C_2  and  C_4
REMARK    4  A    between atoms: C_4  and  C_5
REMARK    5  A    between atoms: C_10  and  N_13
REMARK    6  A    between atoms: C_14  and  C_16
REMARK    7  A    between atoms: C_27  and  C_29
REMARK    8  A    between atoms: C_29  and  C_30
REMARK    9  A    between atoms: C_30  and  C_31
REMARK                            x       y       z     vdW  Elec       q    Type
REMARK                         _______ _______ _______ _____ _____    ______ ____
ROOT
ATOM      1  C   UNL     1      -7.881  -4.418  -4.332  0.00  0.00    +0.100 C 
ATOM      2  C   UNL     1      -6.965  -4.941  -5.462  0.00  0.00    +0.121 C 
ATOM      3  N   UNL     1      -7.898  -5.409  -6.514  0.00  0.00    -0.300 N 
ATOM      4  C   UNL     1      -8.985  -4.401  -6.518  0.00  0.00    +0.115 C 
ATOM      5  C   UNL     1      -9.205  -4.064  -5.030  0.00  0.00    -0.004 C 
ATOM      6  C   UNL     1      -9.508  -2.577  -4.865  0.00  0.00    -0.010 C 
ATOM      7  C   UNL     1     -10.857  -2.260  -5.517  0.00  0.00    -0.082 C 
ATOM      8  N   UNL     1     -11.909  -3.067  -4.886  0.00  0.00    +0.379 N 
ATOM      9  C   UNL     1     -11.659  -4.493  -5.129  0.00  0.00    -0.082 C 
ATOM     10  C   UNL     1     -10.344  -4.904  -4.461  0.00  0.00    -0.010 C 
ATOM     11  C   UNL     1      -7.785  -6.505  -7.291  0.00  0.00    +0.216 C 
ATOM     12  O   UNL     1      -8.639  -6.755  -8.115  0.00  0.00    -0.276 OA
ATOM     13  H   UNL     1     -11.914  -2.893  -3.892  0.00  0.00    -0.086 HD
ATOM     14  H   UNL     1     -12.804  -2.812  -5.274  0.00  0.00    -0.086 HD
ENDROOT
BRANCH   1  16
ATOM     15  N   UNL     1      -7.543  -2.907  -2.404  0.00  0.00    -0.312 N 
ATOM     16  C   UNL     1      -7.280  -3.193  -3.694  0.00  0.00    +0.218 C 
ATOM     17  O   UNL     1      -6.559  -2.464  -4.342  0.00  0.00    -0.275 OA
ATOM     18  H   UNL     1      -8.120  -3.490  -1.886  0.00  0.00    +0.149 HD
BRANCH  15  24
ATOM     19  C   UNL     1      -5.401  -0.036   1.626  0.00  0.00    +0.216 C 
ATOM     20  O   UNL     1      -4.242  -0.253   1.911  0.00  0.00    -0.276 OA
ATOM     21  N   UNL     1      -5.841  -0.267   0.374  0.00  0.00    -0.301 N 
ATOM     22  C   UNL     1      -7.241  -0.002   0.012  0.00  0.00    +0.109 C 
ATOM     23  C   UNL     1      -7.836  -1.267  -0.613  0.00  0.00    +0.041 C 
ATOM     24  C   UNL     1      -6.958  -1.716  -1.783  0.00  0.00    +0.076 C 
ATOM     25  C   UNL     1      -5.553  -2.044  -1.273  0.00  0.00    +0.041 C 
ATOM     26  C   UNL     1      -4.931  -0.782  -0.657  0.00  0.00    +0.109 C 
BRANCH  19  27
ATOM     27  C   UNL     1      -6.347   0.493   2.673  0.00  0.00    +0.099 C 
BRANCH  27  29
ATOM     28  C   UNL     1      -4.526   1.744   3.840  0.00  0.00    +0.008 C 
ATOM     29  C   UNL     1      -5.600   0.665   3.997  0.00  0.00    -0.008 C 
ATOM     30  C   UNL     1      -6.587   1.083   5.089  0.00  0.00    +0.008 C 
ENDBRANCH  27  29
ENDBRANCH  19  27
ENDBRANCH  15  24
ENDBRANCH   1  16
BRANCH  11  31
ATOM     31  C   UNL     1      -6.597  -7.418  -7.136  0.00  0.00    +0.096 C 
BRANCH  31  32
ATOM     32  C   UNL     1      -6.711  -8.576  -8.130  0.00  0.00    +0.013 C 
BRANCH  32  33
ATOM     33  C   UNL     1      -5.505  -9.504  -7.972  0.00  0.00    -0.011 C 
ATOM     34  C   UNL     1      -4.221  -8.785  -8.435  0.00  0.00    +0.003 C 
ATOM     35  C   UNL     1      -3.392  -9.896  -9.128  0.00  0.00    +0.000 C 
ATOM     36  C   UNL     1      -4.477 -10.726  -9.857  0.00  0.00    +0.000 C 
ATOM     37  C   UNL     1      -5.668 -10.739  -8.877  0.00  0.00    +0.003 C 
ENDBRANCH  32  33
ENDBRANCH  31  32
ENDBRANCH  11  31
TORSDOF 7
