REMARK  Name = ZINC01375202
REMARK  14 active torsions:
REMARK  status: ('A' for Active; 'I' for Inactive)
REMARK    1  A    between atoms: C_1  and  C_2
REMARK    2  A    between atoms: C_2  and  C_3
REMARK    3  A    between atoms: C_3  and  C_5
REMARK    4  A    between atoms: C_3  and  N_14
REMARK    5  A    between atoms: N_9  and  C_10
REMARK    6  A    between atoms: C_10  and  C_11
REMARK    7  A    between atoms: C_10  and  C_12
REMARK    8  A    between atoms: C_10  and  C_13
REMARK    9  A    between atoms: N_14  and  C_15
REMARK   10  A    between atoms: N_14  and  C_23
REMARK   11  A    between atoms: C_15  and  C_16
REMARK   12  A    between atoms: C_23  and  C_24
REMARK   13  A    between atoms: C_27  and  C_37
REMARK   14  A    between atoms: C_29  and  C_36
REMARK                            x       y       z     vdW  Elec       q    Type
REMARK                         _______ _______ _______ _____ _____    ______ ____
ROOT
ATOM      1  N   UNL     1      -2.621  -0.210  -0.590  0.00  0.00    -0.284 NA
ENDROOT
BRANCH   1   2
ATOM      2  C   UNL     1      -1.899  -0.297  -1.866  0.00  0.00    +0.127 C 
BRANCH   2   3
ATOM      3  C   UNL     1      -1.610   1.091  -2.376  0.00  0.00    +0.169 A 
ATOM      4  N   UNL     1      -2.330   2.167  -2.169  0.00  0.00    -0.112 NA
ATOM      5  N   UNL     1      -1.754   3.153  -2.766  0.00  0.00    -0.023 NA
ATOM      6  N   UNL     1      -0.685   2.734  -3.348  0.00  0.00    -0.043 NA
ATOM      7  N   UNL     1      -0.558   1.470  -3.126  0.00  0.00    -0.222 N 
BRANCH   7   8
ATOM      8  C   UNL     1       0.524   0.606  -3.604  0.00  0.00    +0.059 C 
ATOM      9  C   UNL     1      -0.069  -0.662  -4.220  0.00  0.00    +0.036 C 
ATOM     10  C   UNL     1       1.342   1.352  -4.661  0.00  0.00    +0.036 C 
ATOM     11  C   UNL     1       1.431   0.228  -2.431  0.00  0.00    +0.036 C 
ENDBRANCH   7   8
ENDBRANCH   2   3
BRANCH   2  13
ATOM     12  C   UNL     1      -2.957  -2.491  -2.424  0.00  0.00    +0.006 C 
ATOM     13  C   UNL     1      -2.758  -1.046  -2.887  0.00  0.00    +0.023 C 
ENDBRANCH   2  13
ENDBRANCH   1   2
BRANCH   1  14
ATOM     14  C   UNL     1      -4.072  -0.147  -0.808  0.00  0.00    +0.120 C 
BRANCH  14  15
ATOM     15  C   UNL     1      -4.447   1.228  -1.300  0.00  0.00    -0.033 A 
ATOM     16  C   UNL     1      -4.695   2.241  -0.393  0.00  0.00    +0.008 A 
ATOM     17  C   UNL     1      -5.038   3.502  -0.843  0.00  0.00    +0.038 A 
ATOM     18  C   UNL     1      -5.133   3.750  -2.201  0.00  0.00    +0.123 A 
ATOM     19  C   UNL     1      -4.885   2.734  -3.109  0.00  0.00    +0.038 A 
ATOM     20  C   UNL     1      -4.536   1.475  -2.657  0.00  0.00    +0.008 A 
ATOM     21  F   UNL     1      -5.469   4.982  -2.642  0.00  0.00    -0.205 F 
ENDBRANCH  14  15
ENDBRANCH   1  14
BRANCH   1  22
ATOM     22  C   UNL     1      -2.269  -1.332   0.291  0.00  0.00    +0.126 C 
BRANCH  22  23
ATOM     23  C   UNL     1      -0.930  -1.069   0.930  0.00  0.00    +0.032 A 
ATOM     24  C   UNL     1      -0.868  -0.479   2.149  0.00  0.00    +0.020 A 
ATOM     25  C   UNL     1       0.449  -0.237   2.743  0.00  0.00    +0.002 A 
ATOM     26  C   UNL     1       0.577   0.367   3.998  0.00  0.00    -0.041 A 
ATOM     27  C   UNL     1       1.820   0.578   4.524  0.00  0.00    +0.007 A 
ATOM     28  C   UNL     1       2.957   0.199   3.824  0.00  0.00    -0.048 A 
ATOM     29  C   UNL     1       2.855  -0.398   2.586  0.00  0.00    +0.029 A 
ATOM     30  C   UNL     1       1.600  -0.624   2.030  0.00  0.00    +0.050 A 
ATOM     31  N   UNL     1       1.468  -1.220   0.794  0.00  0.00    -0.322 N 
ATOM     32  H   UNL     1       2.262  -1.486   0.305  0.00  0.00    +0.169 HD
ATOM     33  C   UNL     1       0.255  -1.442   0.260  0.00  0.00    +0.254 A 
ATOM     34  O   UNL     1       0.176  -1.976  -0.833  0.00  0.00    -0.268 OA
ATOM     35  C   UNL     1       4.318   0.442   4.425  0.00  0.00    +0.044 C 
ATOM     36  C   UNL     1      -0.651   0.784   4.766  0.00  0.00    +0.044 C 
ENDBRANCH  22  23
ENDBRANCH   1  22
TORSDOF 8
