REMARK  Name = ZINC64813735
REMARK  7 active torsions:
REMARK  status: ('A' for Active; 'I' for Inactive)
REMARK    1  A    between atoms: C_1  and  C_2
REMARK    2  A    between atoms: C_3  and  C_26
REMARK    3  A    between atoms: N_9  and  C_10
REMARK    4  A    between atoms: C_10  and  C_11
REMARK    5  A    between atoms: C_18  and  C_20
REMARK    6  A    between atoms: C_26  and  C_27
REMARK    7  A    between atoms: N_29  and  C_30
REMARK                            x       y       z     vdW  Elec       q    Type
REMARK                         _______ _______ _______ _____ _____    ______ ____
ROOT
ATOM      1  C   UNL     1       0.245   1.500  -0.031  0.00  0.00    +0.061 C 
ATOM      2  C   UNL     1       0.128  -0.002  -0.019  0.00  0.00    +0.015 C 
ATOM      3  C   UNL     1      -0.086  -0.664  -1.176  0.00  0.00    +0.042 C 
ATOM      4  C   UNL     1      -0.189  -2.084  -1.183  0.00  0.00    +0.267 C 
ATOM      5  O   UNL     1      -0.305  -2.712  -2.220  0.00  0.00    -0.268 OA
ATOM      6  N   UNL     1      -0.150  -2.696   0.014  0.00  0.00    -0.150 N 
ATOM      7  C   UNL     1      -0.466  -1.968   1.269  0.00  0.00    +0.279 C 
ATOM      8  N   UNL     1       0.246  -0.685   1.172  0.00  0.00    -0.294 N 
ATOM      9  N   UNL     1       0.096  -2.841   2.303  0.00  0.00    -0.293 N 
ATOM     10  C   UNL     1       0.362  -4.058   1.678  0.00  0.00    +0.147 C 
ATOM     11  N   UNL     1       0.182  -3.987   0.393  0.00  0.00    -0.158 NA
ATOM     12  H   UNL     1       0.251  -2.617   3.234  0.00  0.00    +0.151 HD
ENDROOT
BRANCH  10  13
ATOM     13  C   UNL     1       0.797  -5.279   2.390  0.00  0.00    +0.016 A 
ATOM     14  C   UNL     1       0.960  -5.263   3.776  0.00  0.00    +0.011 A 
ATOM     15  C   UNL     1       1.367  -6.405   4.434  0.00  0.00    +0.001 A 
ATOM     16  C   UNL     1       1.613  -7.566   3.722  0.00  0.00    +0.000 A 
ATOM     17  C   UNL     1       1.453  -7.589   2.348  0.00  0.00    +0.001 A 
ATOM     18  C   UNL     1       1.042  -6.455   1.679  0.00  0.00    +0.011 A 
ENDBRANCH  10  13
BRANCH   8  19
ATOM     19  C   UNL     1       1.037  -0.155   2.285  0.00  0.00    +0.143 C 
BRANCH  19  20
ATOM     20  C   UNL     1       2.484  -0.531   2.096  0.00  0.00    -0.030 A 
ATOM     21  C   UNL     1       2.990  -1.663   2.707  0.00  0.00    +0.005 A 
ATOM     22  C   UNL     1       4.318  -2.007   2.533  0.00  0.00    +0.000 A 
ATOM     23  C   UNL     1       5.139  -1.219   1.749  0.00  0.00    +0.000 A 
ATOM     24  C   UNL     1       4.633  -0.087   1.138  0.00  0.00    +0.000 A 
ATOM     25  C   UNL     1       3.304   0.254   1.308  0.00  0.00    +0.005 A 
ENDBRANCH  19  20
ENDBRANCH   8  19
BRANCH   3  26
ATOM     26  C   UNL     1      -0.217   0.104  -2.466  0.00  0.00    +0.137 C 
BRANCH  26  27
ATOM     27  C   UNL     1       1.123   0.168  -3.151  0.00  0.00    +0.220 C 
ATOM     28  O   UNL     1       2.090  -0.358  -2.642  0.00  0.00    -0.275 OA
ATOM     29  N   UNL     1       1.248   0.810  -4.330  0.00  0.00    -0.278 N 
ATOM     30  H   UNL     1       0.474   1.231  -4.737  0.00  0.00    +0.152 HD
BRANCH  29  31
ATOM     31  C   UNL     1       2.551   0.873  -4.996  0.00  0.00    +0.269 C 
ATOM     32  N   UNL     1       3.395   1.891  -4.357  0.00  0.00    -0.348 N 
ATOM     33  C   UNL     1       3.681   2.783  -5.261  0.00  0.00    +0.061 A 
ATOM     34  C   UNL     1       4.476   4.019  -5.228  0.00  0.00    +0.027 A 
ATOM     35  C   UNL     1       4.599   4.760  -6.347  0.00  0.00    +0.002 A 
ATOM     36  C   UNL     1       3.994   4.401  -7.565  0.00  0.00    +0.002 A 
ATOM     37  C   UNL     1       3.244   3.289  -7.704  0.00  0.00    +0.027 A 
ATOM     38  C   UNL     1       3.041   2.403  -6.550  0.00  0.00    +0.061 A 
ATOM     39  N   UNL     1       2.383   1.291  -6.393  0.00  0.00    -0.348 N 
ATOM     40  H   UNL     1       3.686   1.897  -3.432  0.00  0.00    +0.163 HD
ATOM     41  H   UNL     1       1.876   0.823  -7.075  0.00  0.00    +0.163 HD
ENDBRANCH  29  31
ENDBRANCH  26  27
ENDBRANCH   3  26
TORSDOF 6
