REMARK  Name = ZINC08444235
REMARK  2 active torsions:
REMARK  status: ('A' for Active; 'I' for Inactive)
REMARK    1  A    between atoms: C_9  and  C_12
REMARK    2  A    between atoms: C_17  and  C_22
REMARK                            x       y       z     vdW  Elec       q    Type
REMARK                         _______ _______ _______ _____ _____    ______ ____
ROOT
ATOM      1  C   UNL     1      -5.059   3.693   0.068  0.00  0.00    +0.143 C 
ATOM      2  C   UNL     1      -5.375   4.181  -1.326  0.00  0.00    +0.037 C 
ATOM      3  C   UNL     1      -6.287   3.660  -2.159  0.00  0.00    +0.017 C 
ATOM      4  C   UNL     1      -6.472   4.231  -3.555  0.00  0.00    +0.059 C 
ATOM      5  C   UNL     1      -6.213   5.729  -3.542  0.00  0.00    +0.033 C 
ATOM      6  C   UNL     1      -4.771   5.947  -3.069  0.00  0.00    +0.088 C 
ATOM      7  C   UNL     1      -4.603   5.296  -1.729  0.00  0.00    +0.163 C 
ATOM      8  O   UNL     1      -3.774   5.743  -0.961  0.00  0.00    -0.292 OA
ATOM      9  N   UNL     1      -7.094   2.609  -1.866  0.00  0.00    -0.316 N 
ATOM     10  C   UNL     1      -6.666   1.419  -1.288  0.00  0.00    +0.052 A 
ATOM     11  C   UNL     1      -6.782   0.201  -1.934  0.00  0.00    +0.025 A 
ATOM     12  C   UNL     1      -6.436  -0.960  -1.262  0.00  0.00    +0.002 A 
ATOM     13  C   UNL     1      -5.979  -0.900   0.042  0.00  0.00    +0.002 A 
ATOM     14  C   UNL     1      -5.843   0.319   0.682  0.00  0.00    +0.025 A 
ATOM     15  C   UNL     1      -6.172   1.484   0.007  0.00  0.00    +0.049 A 
ATOM     16  N   UNL     1      -6.010   2.737   0.594  0.00  0.00    -0.331 N 
ATOM     17  H   UNL     1      -8.037   2.693  -2.076  0.00  0.00    +0.152 HD
ATOM     18  H   UNL     1      -6.545   2.973   1.369  0.00  0.00    +0.147 HD
ENDROOT
BRANCH   1  27
ATOM     19  C   UNL     1       0.412   1.511   2.157  0.00  0.00    +0.001 A 
ATOM     20  C   UNL     1       0.851   1.079   0.913  0.00  0.00    +0.004 A 
ATOM     21  C   UNL     1       0.064   1.244  -0.207  0.00  0.00    +0.047 A 
ATOM     22  C   UNL     1      -1.180   1.853  -0.096  0.00  0.00    +0.138 A 
ATOM     23  C   UNL     1      -1.625   2.284   1.164  0.00  0.00    +0.064 A 
ATOM     24  C   UNL     1      -0.821   2.112   2.289  0.00  0.00    +0.015 A 
ATOM     25  C   UNL     1      -2.953   2.922   1.256  0.00  0.00    +0.198 A 
ATOM     26  O   UNL     1      -3.393   3.322   2.320  0.00  0.00    -0.287 OA
ATOM     27  C   UNL     1      -3.695   3.051   0.052  0.00  0.00    +0.059 A 
ATOM     28  C   UNL     1      -3.174   2.597  -1.102  0.00  0.00    +0.205 A 
ATOM     29  O   UNL     1      -1.970   2.020  -1.177  0.00  0.00    -0.462 OA
ENDBRANCH   1  27
BRANCH   5  30
ATOM     30  C   UNL     1      -6.386   6.288  -4.931  0.00  0.00    -0.025 A 
ATOM     31  C   UNL     1      -5.620   5.800  -5.973  0.00  0.00    +0.005 A 
ATOM     32  C   UNL     1      -5.779   6.313  -7.247  0.00  0.00    +0.000 A 
ATOM     33  C   UNL     1      -6.703   7.315  -7.479  0.00  0.00    +0.001 A 
ATOM     34  C   UNL     1      -7.468   7.804  -6.438  0.00  0.00    +0.020 A 
ATOM     35  C   UNL     1      -7.314   7.287  -5.164  0.00  0.00    +0.044 A 
ATOM     36 CL   UNL     1      -8.281   7.896  -3.857  0.00  0.00    -0.083 Cl
ENDBRANCH   5  30
TORSDOF 2
