REMARK  Name = ZINC33034048
REMARK  12 active torsions:
REMARK  status: ('A' for Active; 'I' for Inactive)
REMARK    1  A    between atoms: C_1  and  C_2
REMARK    2  A    between atoms: C_2  and  C_3
REMARK    3  A    between atoms: C_3  and  C_5
REMARK    4  A    between atoms: C_3  and  N_6
REMARK    5  A    between atoms: C_7  and  C_9
REMARK    6  A    between atoms: C_12  and  N_28
REMARK    7  A    between atoms: C_13  and  N_15
REMARK    8  A    between atoms: N_15  and  S_16
REMARK    9  A    between atoms: S_16  and  C_19
REMARK   10  A    between atoms: C_20  and  C_27
REMARK   11  A    between atoms: C_22  and  C_26
REMARK   12  A    between atoms: C_24  and  C_25
REMARK                            x       y       z     vdW  Elec       q    Type
REMARK                         _______ _______ _______ _____ _____    ______ ____
ROOT
ATOM      1  C   UNL     1       0.874   1.706   1.242  0.00  0.00    +0.039 A 
ATOM      2  C   UNL     1       2.030   0.921   1.249  0.00  0.00    +0.015 A 
ATOM      3  C   UNL     1       3.262   1.505   1.046  0.00  0.00    +0.026 A 
ATOM      4  C   UNL     1       3.359   2.877   0.846  0.00  0.00    +0.052 A 
ATOM      5  C   UNL     1       2.207   3.668   0.843  0.00  0.00    +0.070 A 
ATOM      6  C   UNL     1       0.970   3.086   1.040  0.00  0.00    +0.039 A 
ENDROOT
BRANCH   4   7
ATOM      7  N   UNL     1       4.607   3.464   0.647  0.00  0.00    -0.332 N 
ATOM      8  C   UNL     1       5.689   2.510   0.929  0.00  0.00    +0.086 C 
ATOM      9  C   UNL     1       7.039   3.214   0.776  0.00  0.00    -0.063 C 
ATOM     10  N   UNL     1       7.157   3.753  -0.586  0.00  0.00    +0.381 N 
ATOM     11  C   UNL     1       6.075   4.707  -0.867  0.00  0.00    -0.063 C 
ATOM     12  C   UNL     1       4.725   4.003  -0.715  0.00  0.00    +0.086 C 
ATOM     13  H   UNL     1       8.122   4.270  -0.693  0.00  0.00    -0.086 HD
ATOM     14  H   UNL     1       7.100   2.929  -1.312  0.00  0.00    -0.086 HD
ENDBRANCH   4   7
BRANCH   1  16
ATOM     15  N   UNL     1      -0.536  -0.251   1.646  0.00  0.00    -0.309 N 
ATOM     16  C   UNL     1      -0.445   1.079   1.452  0.00  0.00    +0.244 C 
ATOM     17  O   UNL     1      -1.451   1.763   1.445  0.00  0.00    -0.270 OA
ATOM     18  H   UNL     1       0.374  -0.870   1.648  0.00  0.00    +0.149 HD
BRANCH  15  19
ATOM     19  C   UNL     1      -1.845  -0.873   1.855  0.00  0.00    +0.070 C 
ATOM     20  C   UNL     1      -2.224  -0.780   3.335  0.00  0.00    +0.028 C 
BRANCH  19  22
ATOM     21  C   UNL     1      -1.529  -2.435  -0.069  0.00  0.00    +0.005 C 
ATOM     22  C   UNL     1      -1.784  -2.344   1.437  0.00  0.00    +0.018 C 
ENDBRANCH  19  22
ENDBRANCH  15  19
ENDBRANCH   1  16
BRANCH   5  23
ATOM     23  N   UNL     1       2.307   5.050   0.640  0.00  0.00    -0.214 N 
ATOM     24  H   UNL     1       2.353   5.454  -0.382  0.00  0.00    +0.174 HD
BRANCH  23  25
ATOM     25  S   UNL     1       2.355   6.076   1.939  0.00  0.00    +0.073 S 
ATOM     26  O   UNL     1       2.504   7.389   1.415  0.00  0.00    -0.150 OA
ATOM     27  O   UNL     1       1.273   5.712   2.785  0.00  0.00    -0.150 OA
BRANCH  25  28
ATOM     28  C   UNL     1       3.833   5.720   2.830  0.00  0.00    +0.114 A 
ATOM     29  C   UNL     1       4.990   6.427   2.561  0.00  0.00    -0.023 A 
ATOM     30  C   UNL     1       6.148   6.151   3.264  0.00  0.00    +0.008 A 
ATOM     31  C   UNL     1       6.152   5.160   4.227  0.00  0.00    -0.050 A 
ATOM     32  C   UNL     1       4.997   4.448   4.492  0.00  0.00    +0.008 A 
ATOM     33  C   UNL     1       3.837   4.729   3.794  0.00  0.00    -0.023 A 
ATOM     34  C   UNL     1       2.577   3.953   4.082  0.00  0.00    +0.046 C 
ATOM     35  C   UNL     1       7.416   4.855   4.990  0.00  0.00    +0.044 C 
ATOM     36  C   UNL     1       4.987   7.503   1.506  0.00  0.00    +0.046 C 
ENDBRANCH  25  28
ENDBRANCH  23  25
ENDBRANCH   5  23
TORSDOF 7
