REMARK  Name = ZINC27789174
REMARK  6 active torsions:
REMARK  status: ('A' for Active; 'I' for Inactive)
REMARK    1  A    between atoms: C_1  and  C_2
REMARK    2  A    between atoms: C_7  and  N_8
REMARK    3  A    between atoms: C_9  and  C_11
REMARK    4  A    between atoms: C_12  and  N_27
REMARK    5  A    between atoms: C_14  and  C_26
REMARK    6  A    between atoms: C_16  and  C_20
REMARK                            x       y       z     vdW  Elec       q    Type
REMARK                         _______ _______ _______ _____ _____    ______ ____
ROOT
ATOM      1  C   UNL     1      -0.553  -1.901   0.142  0.00  0.00    +0.097 A 
ATOM      2  C   UNL     1      -0.855  -0.556   0.140  0.00  0.00    +0.055 A 
ATOM      3  C   UNL     1       0.241   0.398   0.116  0.00  0.00    +0.050 A 
ATOM      4  C   UNL     1       0.201   1.812   0.109  0.00  0.00    +0.052 A 
ATOM      5  N   UNL     1       1.325   2.491   0.086  0.00  0.00    -0.232 NA
ATOM      6  C   UNL     1       2.514   1.893   0.068  0.00  0.00    +0.161 A 
ATOM      7  N   UNL     1       2.618   0.571   0.073  0.00  0.00    -0.220 NA
ATOM      8  C   UNL     1       1.536  -0.178   0.096  0.00  0.00    +0.115 A 
ATOM      9  S   UNL     1       1.230  -1.925   0.111  0.00  0.00    -0.062 S 
ATOM     10  C   UNL     1      -1.122   2.535   0.122  0.00  0.00    +0.066 C 
ENDROOT
BRANCH   6  11
ATOM     11  C   UNL     1       3.744   2.720   0.043  0.00  0.00    +0.019 A 
ATOM     12  C   UNL     1       3.651   4.112   0.031  0.00  0.00    +0.011 A 
ATOM     13  C   UNL     1       4.800   4.876   0.014  0.00  0.00    +0.001 A 
ATOM     14  C   UNL     1       6.041   4.265  -0.005  0.00  0.00    +0.000 A 
ATOM     15  C   UNL     1       6.138   2.885   0.000  0.00  0.00    +0.001 A 
ATOM     16  C   UNL     1       4.997   2.110   0.024  0.00  0.00    +0.011 A 
ENDBRANCH   6  11
BRANCH   1  18
ATOM     17  N   UNL     1      -0.963  -4.260   0.163  0.00  0.00    -0.281 N 
ATOM     18  C   UNL     1      -1.445  -3.001   0.165  0.00  0.00    +0.257 C 
ATOM     19  O   UNL     1      -2.647  -2.810   0.186  0.00  0.00    -0.269 OA
ATOM     20  H   UNL     1       0.122  -4.433   0.216  0.00  0.00    +0.155 HD
BRANCH  17  27
ATOM     21  C   UNL     1      -0.126  -6.577  -1.260  0.00  0.00    +0.045 C 
ATOM     22  C   UNL     1      -1.474  -6.496  -0.590  0.00  0.00    -0.029 A 
ATOM     23  C   UNL     1      -2.344  -7.566  -0.656  0.00  0.00    +0.005 A 
ATOM     24  C   UNL     1      -3.581  -7.493  -0.041  0.00  0.00    +0.000 A 
ATOM     25  C   UNL     1      -3.950  -6.348   0.641  0.00  0.00    +0.002 A 
ATOM     26  C   UNL     1      -3.083  -5.276   0.715  0.00  0.00    +0.023 A 
ATOM     27  C   UNL     1      -1.842  -5.345   0.094  0.00  0.00    +0.037 A 
ENDBRANCH  17  27
ENDBRANCH   1  18
BRANCH   2  28
ATOM     28  N   UNL     1      -2.173  -0.123   0.162  0.00  0.00    -0.356 N 
ATOM     29  H   UNL     1      -2.399   0.954   0.160  0.00  0.00    +0.142 HD
ATOM     30  H   UNL     1      -2.993  -0.857   0.180  0.00  0.00    +0.142 HD
ENDBRANCH   2  28
TORSDOF 4
