REMARK  Name = ZINC11840754
REMARK  11 active torsions:
REMARK  status: ('A' for Active; 'I' for Inactive)
REMARK    1  A    between atoms: C_1  and  C_2
REMARK    2  A    between atoms: C_2  and  C_4
REMARK    3  A    between atoms: C_2  and  N_23
REMARK    4  A    between atoms: C_13  and  C_14
REMARK    5  A    between atoms: C_13  and  N_67
REMARK    6  A    between atoms: C_17  and  N_20
REMARK    7  A    between atoms: N_20  and  C_21
REMARK    8  A    between atoms: N_20  and  C_22
REMARK    9  A    between atoms: C_24  and  C_26
REMARK   10  A    between atoms: C_26  and  C_27
REMARK   11  A    between atoms: C_27  and  C_28
REMARK                            x       y       z     vdW  Elec       q    Type
REMARK                         _______ _______ _______ _____ _____    ______ ____
ROOT
ATOM      1  C   UNL     1      -0.091   3.460   2.868  0.00  0.00    +0.154 A 
ATOM      2  N   UNL     1       0.450   4.643   2.733  0.00  0.00    -0.132 NA
ATOM      3  N   UNL     1       0.743   4.849   1.496  0.00  0.00    -0.134 NA
ATOM      4  C   UNL     1       0.409   3.808   0.791  0.00  0.00    +0.132 A 
ATOM      5  N   UNL     1      -0.145   2.906   1.638  0.00  0.00    -0.315 N 
ATOM      6  C   UNL     1      -0.706   1.606   1.265  0.00  0.00    +0.106 C 
ATOM      7  C   UNL     1      -0.001   1.099   0.004  0.00  0.00    -0.056 C 
ATOM      8  C   UNL     1      -0.713   3.043  -1.274  0.00  0.00    -0.071 C 
ATOM      9  C   UNL     1       0.589   3.600  -0.690  0.00  0.00    +0.058 C 
ATOM     10  N   UNL     1      -0.741   1.566  -1.190  0.00  0.00    +0.384 N 
ATOM     11  H   UNL     1      -1.717   1.258  -1.115  0.00  0.00    -0.081 HD
ENDROOT
BRANCH   1  13
ATOM     12  C   UNL     1       0.643   2.371   4.971  0.00  0.00    +0.036 C 
ATOM     13  C   UNL     1      -0.565   2.834   4.154  0.00  0.00    +0.138 C 
BRANCH  13  14
ATOM     14  N   UNL     1      -1.327   3.819   4.925  0.00  0.00    -0.306 N 
ATOM     15  C   UNL     1      -2.251   3.409   5.816  0.00  0.00    +0.214 C 
ATOM     16  O   UNL     1      -2.451   2.224   5.980  0.00  0.00    -0.276 OA
ATOM     17  H   UNL     1      -1.168   4.767   4.794  0.00  0.00    +0.149 HD
BRANCH  15  18
ATOM     18  C   UNL     1      -3.036   4.422   6.609  0.00  0.00    +0.100 C 
BRANCH  18  19
ATOM     19  C   UNL     1      -4.009   3.697   7.541  0.00  0.00    +0.044 C 
BRANCH  19  20
ATOM     20  C   UNL     1      -4.794   4.711   8.334  0.00  0.00    -0.047 A 
ATOM     21  C   UNL     1      -4.320   5.149   9.556  0.00  0.00    +0.003 A 
ATOM     22  C   UNL     1      -5.038   6.082  10.281  0.00  0.00    +0.000 A 
ATOM     23  C   UNL     1      -6.234   6.569   9.788  0.00  0.00    +0.000 A 
ATOM     24  C   UNL     1      -6.710   6.127   8.569  0.00  0.00    +0.000 A 
ATOM     25  C   UNL     1      -5.990   5.198   7.841  0.00  0.00    +0.003 A 
ENDBRANCH  19  20
ENDBRANCH  18  19
ENDBRANCH  15  18
ENDBRANCH  13  14
ENDBRANCH   1  13
BRANCH  10  26
ATOM     26  C   UNL     1      -0.149   0.985  -2.409  0.00  0.00    -0.043 C 
BRANCH  26  27
ATOM     27  C   UNL     1      -1.043   1.305  -3.578  0.00  0.00    -0.064 A 
ATOM     28  C   UNL     1      -2.075   0.448  -3.913  0.00  0.00    +0.003 A 
ATOM     29  C   UNL     1      -2.900   0.741  -4.981  0.00  0.00    +0.023 A 
ATOM     30  C   UNL     1      -2.685   1.894  -5.726  0.00  0.00    +0.029 A 
ATOM     31  C   UNL     1      -1.644   2.751  -5.391  0.00  0.00    +0.023 A 
ATOM     32  C   UNL     1      -0.827   2.454  -4.318  0.00  0.00    +0.003 A 
BRANCH  30  33
ATOM     33  N   UNL     1      -3.514   2.191  -6.811  0.00  0.00    -0.336 N 
ATOM     34  C   UNL     1      -3.366   3.466  -7.518  0.00  0.00    +0.129 C 
ATOM     35  C   UNL     1      -4.530   1.228  -7.242  0.00  0.00    +0.129 C 
ENDBRANCH  30  33
ENDBRANCH  26  27
ENDBRANCH  10  26
TORSDOF 8
