REMARK  Name = ZINC55504091
REMARK  7 active torsions:
REMARK  status: ('A' for Active; 'I' for Inactive)
REMARK    1  A    between atoms: C_1  and  C_2
REMARK    2  A    between atoms: C_8  and  C_17
REMARK    3  A    between atoms: C_12  and  C_13
REMARK    4  A    between atoms: C_13  and  O_15
REMARK    5  A    between atoms: O_15  and  C_16
REMARK    6  A    between atoms: C_20  and  C_23
REMARK    7  A    between atoms: C_23  and  C_25
REMARK                            x       y       z     vdW  Elec       q    Type
REMARK                         _______ _______ _______ _____ _____    ______ ____
ROOT
ATOM      1  C   UNL     1       0.003   1.504   0.009  0.00  0.00    +0.046 C 
ATOM      2  C   UNL     1       0.013  -0.003   0.001  0.00  0.00    -0.015 A 
ATOM      3  C   UNL     1       0.016  -0.696  -1.210  0.00  0.00    +0.076 A 
ATOM      4  C   UNL     1       0.012  -0.160  -2.591  0.00  0.00    +0.260 A 
ATOM      5  O   UNL     1       0.004   1.040  -2.795  0.00  0.00    -0.267 OA
ATOM      6  N   UNL     1       0.016  -1.034  -3.617  0.00  0.00    -0.306 N 
ATOM      7  H   UNL     1       0.014  -0.699  -4.527  0.00  0.00    +0.170 HD
ATOM      8  C   UNL     1       0.025  -2.382  -3.398  0.00  0.00    +0.142 A 
ATOM      9  N   UNL     1       0.029  -2.884  -2.183  0.00  0.00    -0.222 NA
ATOM     10  C   UNL     1       0.025  -2.108  -1.112  0.00  0.00    +0.117 A 
ATOM     11  S   UNL     1       0.028  -2.395   0.640  0.00  0.00    -0.062 S 
ATOM     12  C   UNL     1       0.024  -0.694   1.180  0.00  0.00    +0.102 A 
ENDROOT
BRANCH   8  13
ATOM     13  C   UNL     1       0.029  -3.300  -4.557  0.00  0.00    +0.017 A 
ATOM     14  C   UNL     1       0.031  -2.784  -5.856  0.00  0.00    +0.012 A 
ATOM     15  C   UNL     1       0.035  -3.638  -6.935  0.00  0.00    +0.012 A 
ATOM     16  C   UNL     1       0.039  -5.022  -6.732  0.00  0.00    +0.017 A 
ATOM     17  C   UNL     1       0.037  -5.537  -5.431  0.00  0.00    +0.012 A 
ATOM     18  C   UNL     1       0.038  -4.682  -4.353  0.00  0.00    +0.012 A 
BRANCH  16  19
ATOM     19  C   UNL     1       0.043  -5.936  -7.886  0.00  0.00    +0.160 C 
ATOM     20  O   UNL     1      -0.057  -5.493  -9.011  0.00  0.00    -0.292 OA
ATOM     21  C   UNL     1       0.172  -7.422  -7.670  0.00  0.00    +0.091 C 
ENDBRANCH  16  19
ENDBRANCH   8  13
BRANCH  12  22
ATOM     22  C   UNL     1       0.028  -0.168   2.547  0.00  0.00    +0.346 C 
ATOM     23  O   UNL     1       0.022   1.033   2.737  0.00  0.00    -0.244 OA
BRANCH  22  24
ATOM     24  O   UNL     1       0.040  -1.017   3.595  0.00  0.00    -0.464 OA
ATOM     25  C   UNL     1       0.044  -0.435   4.901  0.00  0.00    +0.280 C 
ENDBRANCH  22  24
ENDBRANCH  12  22
TORSDOF 4
