REMARK  Name = ZINC02219218
REMARK  3 active torsions:
REMARK  status: ('A' for Active; 'I' for Inactive)
REMARK    1  A    between atoms: C_4  and  C_7
REMARK    2  A    between atoms: C_8  and  C_9
REMARK    3  A    between atoms: N_10  and  N_11
REMARK                            x       y       z     vdW  Elec       q    Type
REMARK                         _______ _______ _______ _____ _____    ______ ____
ROOT
ATOM      1  N   UNL     1      -2.564   5.256   0.051  0.00  0.00    -0.219 N 
ATOM      2  C   UNL     1      -2.528   3.870   0.046  0.00  0.00    +0.167 A 
ATOM      3  C   UNL     1      -1.236   3.173   0.029  0.00  0.00    +0.029 A 
ATOM      4  C   UNL     1      -0.028   3.870   0.021  0.00  0.00    +0.012 A 
ATOM      5  C   UNL     1       1.160   3.174   0.007  0.00  0.00    +0.001 A 
ATOM      6  C   UNL     1       1.168   1.785   0.001  0.00  0.00    +0.001 A 
ATOM      7  C   UNL     1      -0.013   1.076   0.008  0.00  0.00    +0.012 A 
ATOM      8  C   UNL     1      -1.227   1.761   0.017  0.00  0.00    +0.031 A 
ATOM      9  C   UNL     1      -2.515   1.060   0.033  0.00  0.00    +0.185 A 
ATOM     10  N   UNL     1      -2.863  -0.210   0.031  0.00  0.00    -0.128 NA
ATOM     11  N   UNL     1      -4.146  -0.303   0.044  0.00  0.00    -0.136 NA
ATOM     12  C   UNL     1      -4.684   0.890   0.055  0.00  0.00    +0.249 A 
ATOM     13  N   UNL     1      -3.671   1.796   0.048  0.00  0.00    -0.198 N 
ATOM     14  N   UNL     1      -3.644   3.190   0.054  0.00  0.00    -0.146 NA
ATOM     15  H   UNL     1      -1.737   5.763   0.045  0.00  0.00    +0.176 HD
ENDROOT
BRANCH   1  17
ATOM     16  C   UNL     1      -3.829   7.227   0.072  0.00  0.00    +0.130 C 
ATOM     17  N   UNL     1      -3.795   5.925   0.067  0.00  0.00    -0.189 NA
BRANCH  16  19
ATOM     18  C   UNL     1      -5.111   9.252   0.094  0.00  0.00    +0.009 C 
ATOM     19  C   UNL     1      -5.075   7.903   0.088  0.00  0.00    +0.022 C 
BRANCH  18  23
ATOM     20  C   UNL     1      -8.838  11.276   0.140  0.00  0.00    +0.000 A 
ATOM     21  C   UNL     1      -7.661  12.002   0.131  0.00  0.00    +0.001 A 
ATOM     22  C   UNL     1      -6.445  11.352   0.116  0.00  0.00    +0.008 A 
ATOM     23  C   UNL     1      -6.404   9.954   0.110  0.00  0.00    -0.025 A 
ATOM     24  C   UNL     1      -7.598   9.227   0.114  0.00  0.00    +0.008 A 
ATOM     25  C   UNL     1      -8.806   9.892   0.134  0.00  0.00    +0.001 A 
ENDBRANCH  18  23
ENDBRANCH  16  19
ENDBRANCH   1  17
TORSDOF 3
