REMARK  Name = ZINC33986196
REMARK  9 active torsions:
REMARK  status: ('A' for Active; 'I' for Inactive)
REMARK    1  A    between atoms: C_1  and  C_2
REMARK    2  A    between atoms: C_2  and  C_4
REMARK    3  A    between atoms: C_4  and  O_6
REMARK    4  A    between atoms: O_6  and  C_7
REMARK    5  A    between atoms: C_7  and  C_8
REMARK    6  A    between atoms: C_7  and  O_12
REMARK    7  A    between atoms: O_12  and  C_13
REMARK    8  A    between atoms: C_13  and  C_15
REMARK    9  A    between atoms: C_15  and  C_17
REMARK                            x       y       z     vdW  Elec       q    Type
REMARK                         _______ _______ _______ _____ _____    ______ ____
ROOT
ATOM      1  C   UNL     1       0.182  -0.719  -3.449  0.00  0.00    +0.421 C 
ENDROOT
BRANCH   1   2
ATOM      2  C   UNL     1       0.099   0.218  -4.656  0.00  0.00    +0.264 C 
ATOM      3 CL   UNL     1       1.601   1.211  -4.749  0.00  0.00    -0.076 Cl
ATOM      4 CL   UNL     1      -0.072  -0.756  -6.163  0.00  0.00    -0.076 Cl
ATOM      5 CL   UNL     1      -1.330   1.304  -4.476  0.00  0.00    -0.076 Cl
ENDBRANCH   1   2
BRANCH   1   6
ATOM      6  O   UNL     1       0.317   0.053  -2.255  0.00  0.00    -0.417 OA
BRANCH   6   7
ATOM      7  C   UNL     1      -0.270  -0.433  -1.142  0.00  0.00    +0.337 C 
ATOM      8  O   UNL     1      -0.962  -1.429  -1.206  0.00  0.00    -0.245 OA
BRANCH   7  10
ATOM      9  C   UNL     1       0.786   1.479   0.227  0.00  0.00    +0.050 C 
ATOM     10  C   UNL     1      -0.072   0.243   0.147  0.00  0.00    +0.027 C 
ATOM     11  C   UNL     1      -0.652  -0.236   1.245  0.00  0.00    +0.019 C 
ENDBRANCH   7  10
ENDBRANCH   6   7
ENDBRANCH   1   6
BRANCH   1  12
ATOM     12  O   UNL     1       1.314  -1.580  -3.592  0.00  0.00    -0.417 OA
BRANCH  12  13
ATOM     13  C   UNL     1       1.391  -2.634  -2.755  0.00  0.00    +0.337 C 
ATOM     14  O   UNL     1       0.472  -2.876  -1.997  0.00  0.00    -0.245 OA
BRANCH  13  15
ATOM     15  C   UNL     1       2.586  -3.489  -2.757  0.00  0.00    +0.027 C 
ATOM     16  C   UNL     1       2.662  -4.529  -1.931  0.00  0.00    +0.019 C 
ATOM     17  C   UNL     1       3.725  -3.187  -3.696  0.00  0.00    +0.050 C 
ENDBRANCH  13  15
ENDBRANCH  12  13
ENDBRANCH   1  12
TORSDOF 7
