REMARK  Name = ZINC59889915
REMARK  9 active torsions:
REMARK  status: ('A' for Active; 'I' for Inactive)
REMARK    1  A    between atoms: C_1  and  C_2
REMARK    2  A    between atoms: C_2  and  C_3
REMARK    3  A    between atoms: C_3  and  C_4
REMARK    4  A    between atoms: C_4  and  C_25
REMARK    5  A    between atoms: N_5  and  N_6
REMARK    6  A    between atoms: C_9  and  S_12
REMARK    7  A    between atoms: S_12  and  C_13
REMARK    8  A    between atoms: C_13  and  C_14
REMARK    9  A    between atoms: N_16  and  C_17
REMARK                            x       y       z     vdW  Elec       q    Type
REMARK                         _______ _______ _______ _____ _____    ______ ____
ROOT
ATOM      1  N   UNL     1       1.896  -4.044   1.140  0.00  0.00    -0.205 N 
ATOM      2  C   UNL     1       3.097  -4.719   1.018  0.00  0.00    +0.232 A 
ATOM      3  N   UNL     1       4.286  -4.167   0.901  0.00  0.00    -0.186 NA
ATOM      4  C   UNL     1       5.218  -5.121   0.804  0.00  0.00    +0.211 A 
ATOM      5  N   UNL     1       4.633  -6.294   0.858  0.00  0.00    -0.144 NA
ATOM      6  N   UNL     1       3.257  -6.059   1.003  0.00  0.00    -0.245 N 
ATOM      7  H   UNL     1       1.067  -4.541   1.226  0.00  0.00    +0.177 HD
ATOM      8  H   UNL     1       2.558  -6.728   1.075  0.00  0.00    +0.192 HD
ENDROOT
BRANCH   1  10
ATOM      9  C   UNL     1       0.764  -2.019   1.254  0.00  0.00    +0.034 C 
ATOM     10  N   UNL     1       1.876  -2.643   1.141  0.00  0.00    -0.189 NA
ATOM     11  C   UNL     1      -0.524  -2.791   1.387  0.00  0.00    +0.062 C 
BRANCH   9  12
ATOM     12  C   UNL     1       0.743  -0.512   1.255  0.00  0.00    +0.052 C 
BRANCH  12  14
ATOM     13  C   UNL     1      -0.026   1.518   0.017  0.00  0.00    +0.004 C 
ATOM     14  C   UNL     1      -0.004  -0.012   0.017  0.00  0.00    +0.002 C 
ENDBRANCH  12  14
ENDBRANCH   9  12
ENDBRANCH   1  10
BRANCH   4  15
ATOM     15  S   UNL     1       6.950  -4.847   0.632  0.00  0.00    -0.075 S 
BRANCH  15  16
ATOM     16  C   UNL     1       7.653  -6.518   0.555  0.00  0.00    +0.173 C 
BRANCH  16  17
ATOM     17  C   UNL     1       9.150  -6.427   0.406  0.00  0.00    +0.227 C 
ATOM     18  O   UNL     1       9.689  -5.342   0.355  0.00  0.00    -0.275 OA
ATOM     19  N   UNL     1       9.889  -7.551   0.328  0.00  0.00    -0.285 N 
ATOM     20  H   UNL     1       9.466  -8.418   0.435  0.00  0.00    +0.155 HD
BRANCH  19  21
ATOM     21  C   UNL     1      11.266  -7.468   0.092  0.00  0.00    +0.036 A 
ATOM     22  C   UNL     1      11.898  -8.434  -0.681  0.00  0.00    +0.043 A 
ATOM     23  C   UNL     1      13.258  -8.349  -0.912  0.00  0.00    +0.044 A 
ATOM     24  C   UNL     1      13.989  -7.304  -0.375  0.00  0.00    +0.040 A 
ATOM     25  C   UNL     1      13.362  -6.342   0.395  0.00  0.00    +0.044 A 
ATOM     26  C   UNL     1      12.001  -6.418   0.625  0.00  0.00    +0.043 A 
ATOM     27 CL   UNL     1      14.283  -5.033   1.068  0.00  0.00    -0.083 Cl
ATOM     28 CL   UNL     1      14.050  -9.556  -1.878  0.00  0.00    -0.083 Cl
ENDBRANCH  19  21
ENDBRANCH  16  17
ENDBRANCH  15  16
ENDBRANCH   4  15
TORSDOF 7
