REMARK  Name = ZINC63122378
REMARK  7 active torsions:
REMARK  status: ('A' for Active; 'I' for Inactive)
REMARK    1  A    between atoms: C_7  and  C_10
REMARK    2  A    between atoms: C_10  and  C_12
REMARK    3  A    between atoms: C_10  and  C_31
REMARK    4  A    between atoms: C_12  and  N_13
REMARK    5  A    between atoms: C_14  and  C_16
REMARK    6  A    between atoms: C_20  and  N_22
REMARK    7  A    between atoms: C_23  and  C_25
REMARK                            x       y       z     vdW  Elec       q    Type
REMARK                         _______ _______ _______ _____ _____    ______ ____
ROOT
ATOM      1  N   UNL     1       0.174  -5.354   1.079  0.00  0.00    -0.310 N 
ATOM      2  C   UNL     1       0.200  -6.238   2.096  0.00  0.00    +0.244 C 
ATOM      3  O   UNL     1       1.133  -6.241   2.876  0.00  0.00    -0.270 OA
ATOM      4  H   UNL     1      -0.570  -5.352   0.457  0.00  0.00    +0.149 HD
ENDROOT
BRANCH   2   5
ATOM      5  C   UNL     1      -0.906  -7.205   2.264  0.00  0.00    +0.038 A 
ATOM      6  C   UNL     1      -1.976  -7.208   1.366  0.00  0.00    +0.013 A 
ATOM      7  C   UNL     1      -3.006  -8.112   1.525  0.00  0.00    +0.003 A 
ATOM      8  C   UNL     1      -2.985  -9.016   2.570  0.00  0.00    +0.023 A 
ATOM      9  C   UNL     1      -1.925  -9.021   3.469  0.00  0.00    +0.034 A 
ATOM     10  C   UNL     1      -0.881  -8.121   3.315  0.00  0.00    +0.036 A 
BRANCH   9  11
ATOM     11  N   UNL     1      -1.908  -9.938   4.526  0.00  0.00    -0.283 N 
ATOM     12  C   UNL     1      -1.358  -9.595   5.707  0.00  0.00    +0.246 C 
ATOM     13  O   UNL     1      -0.964  -8.462   5.886  0.00  0.00    -0.273 OA
ATOM     14  H   UNL     1      -2.292 -10.821   4.408  0.00  0.00    +0.155 HD
BRANCH  12  15
ATOM     15  C   UNL     1      -1.232 -10.619   6.806  0.00  0.00    +0.204 C 
ATOM     16  C   UNL     1      -0.232 -11.729   6.394  0.00  0.00    +0.043 C 
ATOM     17  C   UNL     1       0.227 -12.243   7.786  0.00  0.00    +0.031 C 
ATOM     18  C   UNL     1       0.204 -10.954   8.635  0.00  0.00    +0.161 C 
ATOM     19  O   UNL     1      -0.667 -10.020   7.983  0.00  0.00    -0.367 OA
ENDBRANCH  12  15
ENDBRANCH   9  11
ENDBRANCH   2   5
BRANCH   1  20
ATOM     20  C   UNL     1       1.270  -4.396   0.913  0.00  0.00    +0.117 C 
BRANCH  20  21
ATOM     21  C   UNL     1       0.996  -3.515  -0.307  0.00  0.00    +0.071 C 
BRANCH  21  28
ATOM     22  C   UNL     1       0.808   1.070  -0.250  0.00  0.00    +0.001 A 
ATOM     23  C   UNL     1       2.061   1.685  -0.373  0.00  0.00    +0.002 A 
ATOM     24  C   UNL     1       3.209   0.985  -0.496  0.00  0.00    +0.026 A 
ATOM     25  C   UNL     1       3.186  -0.437  -0.505  0.00  0.00    +0.043 A 
ATOM     26  N   UNL     1       4.144  -1.325  -0.611  0.00  0.00    -0.380 N 
ATOM     27  C   UNL     1       3.548  -2.665  -0.561  0.00  0.00    +0.145 C 
ATOM     28  C   UNL     1       2.059  -2.451  -0.406  0.00  0.00    -0.032 C 
ATOM     29  C   UNL     1       1.874  -1.111  -0.376  0.00  0.00    -0.000 A 
ATOM     30  C   UNL     1       0.674  -0.276  -0.246  0.00  0.00    +0.010 A 
ATOM     31  H   UNL     1       5.089  -1.129  -0.707  0.00  0.00    +0.160 HD
ENDBRANCH  21  28
BRANCH  21  32
ATOM     32  C   UNL     1       1.015  -4.362  -1.553  0.00  0.00    -0.002 A 
ATOM     33  C   UNL     1       0.031  -4.564  -2.463  0.00  0.00    +0.012 A 
ATOM     34  C   UNL     1       0.276  -5.392  -3.542  0.00  0.00    +0.008 A 
ATOM     35  C   UNL     1       1.493  -5.977  -3.659  0.00  0.00    +0.045 A 
ATOM     36  S   UNL     1       2.342  -5.354  -2.218  0.00  0.00    -0.101 S 
ENDBRANCH  21  32
ENDBRANCH  20  21
ENDBRANCH   1  20
TORSDOF 7
