REMARK  Name = ZINC44784057
REMARK  8 active torsions:
REMARK  status: ('A' for Active; 'I' for Inactive)
REMARK    1  A    between atoms: C_1  and  C_2
REMARK    2  A    between atoms: C_2  and  C_3
REMARK    3  A    between atoms: C_3  and  C_4
REMARK    4  A    between atoms: C_3  and  C_6
REMARK    5  A    between atoms: C_3  and  C_10
REMARK    6  A    between atoms: C_4  and  C_5
REMARK    7  A    between atoms: N_7  and  O_8
REMARK    8  A    between atoms: N_12  and  C_13
REMARK                            x       y       z     vdW  Elec       q    Type
REMARK                         _______ _______ _______ _____ _____    ______ ____
ROOT
ATOM      1  C   UNL     1       0.728  -0.353  -1.370  0.00  0.00    +0.105 C 
ENDROOT
BRANCH   1   2
ATOM      2  C   UNL     1      -0.189  -0.126  -2.544  0.00  0.00    +0.147 C 
ATOM      3  N   UNL     1      -1.290   0.531  -2.386  0.00  0.00    -0.076 NA
ATOM      4  N   UNL     1       0.148  -0.617  -3.786  0.00  0.00    -0.343 N 
ATOM      5  H   UNL     1       1.005  -1.051  -3.920  0.00  0.00    +0.144 HD
ATOM      6  H   UNL     1      -0.473  -0.530  -4.526  0.00  0.00    +0.144 HD
BRANCH   3   7
ATOM      7  O   UNL     1      -2.151   0.745  -3.490  0.00  0.00    -0.408 OA
ATOM      8  H   UNL     1      -2.950   1.246  -3.274  0.00  0.00    +0.328 HD
ENDBRANCH   3   7
ENDBRANCH   1   2
BRANCH   1   9
ATOM      9  C   UNL     1       2.116   0.119  -1.717  0.00  0.00    +0.231 C 
ATOM     10  O   UNL     1       2.339   0.594  -2.811  0.00  0.00    -0.274 OA
ATOM     11  N   UNL     1       3.110   0.014  -0.812  0.00  0.00    -0.285 N 
ATOM     12  H   UNL     1       2.952  -0.439   0.031  0.00  0.00    +0.155 HD
BRANCH  11  13
ATOM     13  C   UNL     1       4.369   0.557  -1.090  0.00  0.00    +0.036 A 
ATOM     14  C   UNL     1       5.516  -0.074  -0.626  0.00  0.00    +0.043 A 
ATOM     15  C   UNL     1       6.759   0.465  -0.902  0.00  0.00    +0.044 A 
ATOM     16  C   UNL     1       6.861   1.631  -1.640  0.00  0.00    +0.040 A 
ATOM     17  C   UNL     1       5.719   2.261  -2.103  0.00  0.00    +0.044 A 
ATOM     18  C   UNL     1       4.474   1.724  -1.835  0.00  0.00    +0.043 A 
ATOM     19 CL   UNL     1       5.851   3.725  -3.028  0.00  0.00    -0.083 Cl
ATOM     20 CL   UNL     1       8.193  -0.322  -0.322  0.00  0.00    -0.083 Cl
ENDBRANCH  11  13
ENDBRANCH   1   9
BRANCH   1  22
ATOM     21  C   UNL     1       0.173   1.921  -0.496  0.00  0.00    +0.005 C 
ATOM     22  C   UNL     1       0.211   0.429  -0.160  0.00  0.00    +0.020 C 
ENDBRANCH   1  22
BRANCH   1  23
ATOM     23  C   UNL     1       0.765  -1.845  -1.034  0.00  0.00    +0.020 C 
ATOM     24  C   UNL     1      -0.649  -2.331  -0.709  0.00  0.00    +0.005 C 
ENDBRANCH   1  23
TORSDOF 6
