REMARK  Name = ZINC56781193
REMARK  9 active torsions:
REMARK  status: ('A' for Active; 'I' for Inactive)
REMARK    1  A    between atoms: C_1  and  C_2
REMARK    2  A    between atoms: C_2  and  C_4
REMARK    3  A    between atoms: C_2  and  N_10
REMARK    4  A    between atoms: C_4  and  C_5
REMARK    5  A    between atoms: C_5  and  C_6
REMARK    6  A    between atoms: C_6  and  C_7
REMARK    7  A    between atoms: C_7  and  C_8
REMARK    8  A    between atoms: C_7  and  C_9
REMARK    9  A    between atoms: C_16  and  C_19
REMARK                            x       y       z     vdW  Elec       q    Type
REMARK                         _______ _______ _______ _____ _____    ______ ____
ROOT
ATOM      1  N   UNL     1       0.691  -0.475  -1.198  0.00  0.00    -0.297 N 
ATOM      2  C   UNL     1       2.034  -0.582  -1.213  0.00  0.00    +0.302 C 
ATOM      3  O   UNL     1       2.684  -0.200  -0.259  0.00  0.00    -0.253 OA
ATOM      4  N   UNL     1       2.656  -1.112  -2.284  0.00  0.00    -0.286 N 
ATOM      5  C   UNL     1       1.898  -1.467  -3.491  0.00  0.00    +0.110 C 
ATOM      6  C   UNL     1       2.546  -0.784  -4.700  0.00  0.00    +0.032 C 
ATOM      7  C   UNL     1       4.029  -1.158  -4.757  0.00  0.00    +0.078 C 
ATOM      8  C   UNL     1       4.731  -0.665  -3.489  0.00  0.00    +0.032 C 
ATOM      9  C   UNL     1       4.108  -1.341  -2.269  0.00  0.00    +0.110 C 
ATOM     10  H   UNL     1       0.177  -0.713  -1.986  0.00  0.00    +0.151 HD
ENDROOT
BRANCH   7  11
ATOM     11  C   UNL     1       4.663  -0.515  -5.964  0.00  0.00    +0.221 C 
ATOM     12  O   UNL     1       3.994   0.174  -6.705  0.00  0.00    -0.275 OA
ATOM     13  N   UNL     1       5.972  -0.707  -6.220  0.00  0.00    -0.270 N 
ATOM     14  C   UNL     1       6.583  -0.029  -7.274  0.00  0.00    +0.125 A 
ATOM     15  C   UNL     1       7.954  -0.149  -7.468  0.00  0.00    +0.045 A 
ATOM     16  C   UNL     1       8.548   0.528  -8.518  0.00  0.00    +0.025 A 
ATOM     17  C   UNL     1       7.745   1.307  -9.342  0.00  0.00    +0.059 A 
ATOM     18  C   UNL     1       6.388   1.380  -9.091  0.00  0.00    +0.132 A 
ATOM     19  N   UNL     1       5.850   0.718  -8.085  0.00  0.00    -0.239 NA
ATOM     20 CL   UNL     1       8.440   2.178 -10.674  0.00  0.00    -0.082 Cl
ATOM     21  H   UNL     1       6.490  -1.316  -5.670  0.00  0.00    +0.156 HD
ENDBRANCH   7  11
BRANCH   1  23
ATOM     22  C   UNL     1      -0.019   1.528   0.011  0.00  0.00    +0.028 C 
ATOM     23  C   UNL     1       0.006  -0.001   0.007  0.00  0.00    +0.071 C 
BRANCH  23  24
ATOM     24  C   UNL     1      -1.428  -0.535   0.023  0.00  0.00    +0.022 C 
BRANCH  24  25
ATOM     25  C   UNL     1      -1.403  -2.060   0.145  0.00  0.00    +0.002 C 
BRANCH  25  26
ATOM     26  C   UNL     1      -2.837  -2.594   0.161  0.00  0.00    +0.003 C 
BRANCH  26  27
ATOM     27  C   UNL     1      -2.812  -4.119   0.283  0.00  0.00    -0.017 C 
ATOM     28  C   UNL     1      -2.219  -4.512   1.637  0.00  0.00    +0.007 C 
ATOM     29  C   UNL     1      -4.238  -4.662   0.173  0.00  0.00    +0.007 C 
ENDBRANCH  26  27
ENDBRANCH  25  26
ENDBRANCH  24  25
ENDBRANCH  23  24
ENDBRANCH   1  23
TORSDOF 6
