REMARK  Name = ZINC63729428
REMARK  11 active torsions:
REMARK  status: ('A' for Active; 'I' for Inactive)
REMARK    1  A    between atoms: C_1  and  C_2
REMARK    2  A    between atoms: C_2  and  O_3
REMARK    3  A    between atoms: O_3  and  C_4
REMARK    4  A    between atoms: C_7  and  C_12
REMARK    5  A    between atoms: C_9  and  O_10
REMARK    6  A    between atoms: O_10  and  C_11
REMARK    7  A    between atoms: N_16  and  C_38
REMARK    8  A    between atoms: C_19  and  C_24
REMARK    9  A    between atoms: N_26  and  C_27
REMARK   10  A    between atoms: C_27  and  C_28
REMARK   11  A    between atoms: C_28  and  C_29
REMARK                            x       y       z     vdW  Elec       q    Type
REMARK                         _______ _______ _______ _____ _____    ______ ____
ROOT
ATOM      1  C   UNL     1       1.139  -6.032   1.757  0.00  0.00    +0.028 C 
ATOM      2  C   UNL     1       0.521  -6.857   0.878  0.00  0.00    +0.075 C 
ATOM      3  C   UNL     1      -0.183  -6.343  -0.315  0.00  0.00    +0.257 C 
ATOM      4  O   UNL     1      -0.658  -5.222  -0.299  0.00  0.00    -0.269 OA
ATOM      5  N   UNL     1      -0.304  -7.097  -1.411  0.00  0.00    -0.269 N 
ATOM      6  C   UNL     1       0.258  -8.351  -1.621  0.00  0.00    +0.051 A 
ATOM      7  C   UNL     1       0.398  -8.802  -2.927  0.00  0.00    +0.037 A 
ATOM      8  C   UNL     1       0.958 -10.053  -3.185  0.00  0.00    +0.039 A 
ATOM      9  C   UNL     1       1.385 -10.864  -2.128  0.00  0.00    +0.014 A 
ATOM     10  C   UNL     1       1.248 -10.420  -0.832  0.00  0.00    +0.017 A 
ATOM     11  C   UNL     1       0.688  -9.175  -0.575  0.00  0.00    +0.034 A 
ATOM     12  S   UNL     1       0.517  -8.618   1.090  0.00  0.00    -0.082 S 
ATOM     13  C   UNL     1      -1.111  -6.547  -2.502  0.00  0.00    +0.138 C 
ENDROOT
BRANCH   1  17
ATOM     14  C   UNL     1       1.550  -1.904   0.856  0.00  0.00    +0.162 A 
ATOM     15  C   UNL     1       1.661  -2.849  -0.155  0.00  0.00    +0.050 A 
ATOM     16  C   UNL     1       1.529  -4.190   0.133  0.00  0.00    +0.012 A 
ATOM     17  C   UNL     1       1.281  -4.602   1.447  0.00  0.00    -0.020 A 
ATOM     18  C   UNL     1       1.169  -3.648   2.465  0.00  0.00    +0.057 A 
ATOM     19  C   UNL     1       1.308  -2.306   2.168  0.00  0.00    +0.162 A 
BRANCH  19  20
ATOM     20  O   UNL     1       1.205  -1.377   3.155  0.00  0.00    -0.491 OA
ATOM     21  C   UNL     1       0.957  -1.860   4.477  0.00  0.00    +0.277 C 
ENDBRANCH  19  20
BRANCH  14  22
ATOM     22  O   UNL     1       1.681  -0.583   0.565  0.00  0.00    -0.489 OA
BRANCH  22  24
ATOM     23  C   UNL     1       2.045   1.280  -0.931  0.00  0.00    +0.048 C 
ATOM     24  C   UNL     1       1.927  -0.240  -0.800  0.00  0.00    +0.226 C 
ENDBRANCH  22  24
ENDBRANCH  14  22
ENDBRANCH   1  17
BRANCH   8  25
ATOM     25  C   UNL     1       1.102 -10.523  -4.576  0.00  0.00    +0.244 C 
ATOM     26  O   UNL     1       0.732  -9.820  -5.496  0.00  0.00    -0.270 OA
ATOM     27  N   UNL     1       1.643 -11.732  -4.827  0.00  0.00    -0.311 N 
ATOM     28  H   UNL     1       1.938 -12.293  -4.092  0.00  0.00    +0.149 HD
BRANCH  27  29
ATOM     29  C   UNL     1       1.785 -12.198  -6.208  0.00  0.00    +0.109 C 
BRANCH  29  30
ATOM     30  C   UNL     1       2.422 -13.589  -6.213  0.00  0.00    +0.052 C 
BRANCH  30  31
ATOM     31  C   UNL     1       2.569 -14.069  -7.635  0.00  0.00    -0.040 C 
ATOM     32  C   UNL     1       3.666 -13.965  -8.419  0.00  0.00    -0.001 A 
ATOM     33  C   UNL     1       4.999 -13.394  -8.193  0.00  0.00    +0.010 A 
ATOM     34  C   UNL     1       5.909 -13.438  -9.193  0.00  0.00    +0.001 A 
ATOM     35  C   UNL     1       5.612 -14.013 -10.436  0.00  0.00    +0.002 A 
ATOM     36  C   UNL     1       4.409 -14.556 -10.719  0.00  0.00    +0.026 A 
ATOM     37  C   UNL     1       3.376 -14.566  -9.741  0.00  0.00    +0.043 A 
ATOM     38  N   UNL     1       2.148 -15.024  -9.772  0.00  0.00    -0.380 N 
ATOM     39  C   UNL     1       1.521 -14.770  -8.470  0.00  0.00    +0.144 C 
ATOM     40  H   UNL     1       1.726 -15.461 -10.528  0.00  0.00    +0.160 HD
ENDBRANCH  30  31
ENDBRANCH  29  30
ENDBRANCH  27  29
ENDBRANCH   8  25
TORSDOF 8
