REMARK  Name = ZINC36510984
REMARK  23 active torsions:
REMARK  status: ('A' for Active; 'I' for Inactive)
REMARK    1  A    between atoms: C_1  and  C_2
REMARK    2  A    between atoms: C_2  and  C_3
REMARK    3  A    between atoms: C_3  and  C_4
REMARK    4  A    between atoms: C_4  and  C_5
REMARK    5  A    between atoms: C_5  and  C_6
REMARK    6  A    between atoms: C_6  and  N_7
REMARK    7  A    between atoms: N_7  and  C_8
REMARK    8  A    between atoms: C_8  and  C_10
REMARK    9  A    between atoms: C_8  and  C_19
REMARK   10  A    between atoms: C_10  and  C_12
REMARK   11  A    between atoms: C_10  and  C_13
REMARK   12  A    between atoms: N_21  and  C_22
REMARK   13  A    between atoms: C_22  and  C_23
REMARK   14  A    between atoms: C_22  and  C_24
REMARK   15  A    between atoms: C_22  and  C_25
REMARK   16  A    between atoms: C_25  and  C_26
REMARK   17  A    between atoms: C_26  and  C_27
REMARK   18  A    between atoms: C_26  and  C_28
REMARK   19  A    between atoms: C_26  and  C_29
REMARK   20  A    between atoms: C_30  and  C_32
REMARK   21  A    between atoms: C_32  and  C_34
REMARK   22  A    between atoms: C_32  and  C_36
REMARK   23  A    between atoms: C_34  and  C_35
REMARK                            x       y       z     vdW  Elec       q    Type
REMARK                         _______ _______ _______ _____ _____    ______ ____
ROOT
ATOM      1  C   UNL     1       5.050  -5.269  -7.095  0.00  0.00    +0.169 C 
ENDROOT
BRANCH   1   2
ATOM      2  C   UNL     1       4.528  -3.937  -6.622  0.00  0.00    +0.235 C 
ATOM      3  O   UNL     1       3.335  -3.768  -6.481  0.00  0.00    -0.274 OA
ATOM      4  N   UNL     1       5.387  -2.933  -6.356  0.00  0.00    -0.309 N 
ATOM      5  H   UNL     1       6.336  -3.051  -6.516  0.00  0.00    +0.149 HD
BRANCH   4   6
ATOM      6  C   UNL     1       4.886  -1.662  -5.824  0.00  0.00    +0.030 C 
ATOM      7  C   UNL     1       4.029  -0.969  -6.884  0.00  0.00    +0.031 C 
ATOM      8  C   UNL     1       4.040  -1.929  -4.578  0.00  0.00    +0.031 C 
BRANCH   6   9
ATOM      9  C   UNL     1       6.068  -0.763  -5.456  0.00  0.00    +0.031 C 
BRANCH   9  10
ATOM     10  C   UNL     1       6.811  -1.361  -4.260  0.00  0.00    -0.036 C 
ATOM     11  C   UNL     1       6.832  -2.886  -4.383  0.00  0.00    +0.010 C 
ATOM     12  C   UNL     1       8.246  -0.832  -4.234  0.00  0.00    +0.010 C 
ATOM     13  C   UNL     1       6.098  -0.963  -2.966  0.00  0.00    +0.010 C 
ENDBRANCH   9  10
ENDBRANCH   6   9
ENDBRANCH   4   6
ENDBRANCH   1   2
BRANCH   1  14
ATOM     14  N   UNL     1       3.979  -6.266  -7.024  0.00  0.00    -0.289 N 
ATOM     15  C   UNL     1       2.846  -6.090  -7.733  0.00  0.00    +0.224 C 
ATOM     16  O   UNL     1       2.739  -5.140  -8.479  0.00  0.00    -0.275 OA
BRANCH  14  17
ATOM     17  C   UNL     1       4.139  -7.455  -6.183  0.00  0.00    +0.108 C 
BRANCH  17  18
ATOM     18  C   UNL     1       3.664  -7.142  -4.763  0.00  0.00    +0.019 C 
BRANCH  18  19
ATOM     19  C   UNL     1       3.711  -8.416  -3.917  0.00  0.00    +0.002 C 
BRANCH  19  20
ATOM     20  C   UNL     1       3.236  -8.104  -2.497  0.00  0.00    -0.000 C 
BRANCH  20  22
ATOM     21  C   UNL     1       2.807  -9.066  -0.231  0.00  0.00    +0.004 C 
ATOM     22  C   UNL     1       3.282  -9.378  -1.652  0.00  0.00    -0.003 C 
ENDBRANCH  20  22
ENDBRANCH  19  20
ENDBRANCH  18  19
ENDBRANCH  17  18
ENDBRANCH  14  17
BRANCH  15  23
ATOM     23  C   UNL     1       1.712  -7.072  -7.597  0.00  0.00    +0.105 C 
BRANCH  23  24
ATOM     24  C   UNL     1       1.566  -7.852  -8.879  0.00  0.00    -0.036 A 
ATOM     25  C   UNL     1       1.302  -7.191 -10.064  0.00  0.00    +0.004 A 
ATOM     26  C   UNL     1       1.169  -7.906 -11.239  0.00  0.00    +0.000 A 
ATOM     27  C   UNL     1       1.300  -9.282 -11.230  0.00  0.00    +0.000 A 
ATOM     28  C   UNL     1       1.566  -9.943 -10.045  0.00  0.00    +0.000 A 
ATOM     29  C   UNL     1       1.703  -9.227  -8.870  0.00  0.00    +0.004 A 
ENDBRANCH  23  24
BRANCH  23  30
ATOM     30  C   UNL     1       0.413  -6.316  -7.310  0.00  0.00    +0.014 C 
ATOM     31  C   UNL     1       0.526  -5.601  -5.963  0.00  0.00    +0.005 C 
ENDBRANCH  23  30
ENDBRANCH  15  23
ENDBRANCH   1  14
BRANCH   1  32
ATOM     32  C   UNL     1       5.534  -5.143  -8.541  0.00  0.00    +0.045 C 
ATOM     33  C   UNL     1       6.684  -4.136  -8.607  0.00  0.00    +0.015 C 
BRANCH  32  34
ATOM     34  C   UNL     1       6.012  -6.486  -9.030  0.00  0.00    -0.042 A 
ATOM     35  C   UNL     1       7.049  -7.128  -8.380  0.00  0.00    +0.004 A 
ATOM     36  C   UNL     1       7.488  -8.360  -8.829  0.00  0.00    +0.000 A 
ATOM     37  C   UNL     1       6.889  -8.950  -9.926  0.00  0.00    +0.000 A 
ATOM     38  C   UNL     1       5.851  -8.307 -10.575  0.00  0.00    +0.000 A 
ATOM     39  C   UNL     1       5.410  -7.077 -10.124  0.00  0.00    +0.004 A 
ENDBRANCH  32  34
ENDBRANCH   1  32
TORSDOF 15
