REMARK  Name = ZINC01440213
REMARK  8 active torsions:
REMARK  status: ('A' for Active; 'I' for Inactive)
REMARK    1  A    between atoms: C_1  and  C_2
REMARK    2  A    between atoms: C_2  and  C_3
REMARK    3  A    between atoms: C_2  and  C_4
REMARK    4  A    between atoms: C_2  and  O_16
REMARK    5  A    between atoms: N_6  and  C_7
REMARK    6  A    between atoms: C_7  and  C_8
REMARK    7  A    between atoms: C_8  and  C_9
REMARK    8  A    between atoms: O_16  and  C_17
REMARK                            x       y       z     vdW  Elec       q    Type
REMARK                         _______ _______ _______ _____ _____    ______ ____
ROOT
ATOM      1  C   UNL     1       2.188   5.686  -0.096  0.00  0.00    +0.256 C 
ATOM      2  O   UNL     1       1.074   6.159  -0.011  0.00  0.00    -0.271 OA
ATOM      3  N   UNL     1       3.256   6.497  -0.227  0.00  0.00    -0.312 N 
ATOM      4  H   UNL     1       4.147   6.119  -0.295  0.00  0.00    +0.149 HD
ENDROOT
BRANCH   1   6
ATOM      5  C   UNL     1       3.268   3.822   1.132  0.00  0.00    +0.065 C 
ATOM      6  C   UNL     1       2.376   4.192  -0.056  0.00  0.00    +0.180 C 
ATOM      7  C   UNL     1       3.037   3.725  -1.354  0.00  0.00    +0.065 C 
BRANCH   6   8
ATOM      8  O   UNL     1       1.105   3.555   0.087  0.00  0.00    -0.477 OA
BRANCH   8   9
ATOM      9  C   UNL     1       0.390   3.849   1.205  0.00  0.00    +0.122 A 
ATOM     10  C   UNL     1      -0.794   3.175   1.470  0.00  0.00    +0.047 A 
ATOM     11  C   UNL     1      -1.520   3.476   2.606  0.00  0.00    +0.019 A 
ATOM     12  C   UNL     1      -1.067   4.448   3.480  0.00  0.00    +0.018 A 
ATOM     13  C   UNL     1       0.113   5.122   3.218  0.00  0.00    +0.019 A 
ATOM     14  C   UNL     1       0.842   4.824   2.083  0.00  0.00    +0.047 A 
ATOM     15 BR   UNL     1      -2.062   4.858   5.034  0.00  0.00    -0.050 Br
ENDBRANCH   8   9
ENDBRANCH   6   8
ENDBRANCH   1   6
BRANCH   3  16
ATOM     16  C   UNL     1       3.073   7.950  -0.267  0.00  0.00    +0.109 C 
BRANCH  16  17
ATOM     17  C   UNL     1       4.434   8.632  -0.420  0.00  0.00    +0.054 C 
BRANCH  17  18
ATOM     18  C   UNL     1       4.245  10.126  -0.461  0.00  0.00    -0.046 A 
ATOM     19  C   UNL     1       4.054  10.766  -1.671  0.00  0.00    +0.005 A 
ATOM     20  C   UNL     1       3.875  12.136  -1.708  0.00  0.00    +0.020 A 
ATOM     21  C   UNL     1       3.899  12.869  -0.535  0.00  0.00    +0.041 A 
ATOM     22  C   UNL     1       4.096  12.229   0.675  0.00  0.00    +0.020 A 
ATOM     23  C   UNL     1       4.269  10.858   0.712  0.00  0.00    +0.005 A 
ATOM     24 CL   UNL     1       3.681  14.590  -0.582  0.00  0.00    -0.084 Cl
ENDBRANCH  17  18
ENDBRANCH  16  17
ENDBRANCH   3  16
TORSDOF 6
