REMARK  Name = ZINC61881541
REMARK  6 active torsions:
REMARK  status: ('A' for Active; 'I' for Inactive)
REMARK    1  A    between atoms: C_1  and  C_2
REMARK    2  A    between atoms: C_7  and  N_12
REMARK    3  A    between atoms: C_9  and  C_11
REMARK    4  A    between atoms: N_12  and  S_13
REMARK    5  A    between atoms: S_13  and  C_16
REMARK    6  A    between atoms: C_20  and  N_23
REMARK                            x       y       z     vdW  Elec       q    Type
REMARK                         _______ _______ _______ _____ _____    ______ ____
ROOT
ATOM      1  S   UNL     1       0.924   0.487   5.001  0.00  0.00    +0.060 S 
ATOM      2  O   UNL     1       1.757  -0.105   5.988  0.00  0.00    -0.153 OA
ATOM      3  O   UNL     1       1.241   1.725   4.379  0.00  0.00    -0.153 OA
ENDROOT
BRANCH   1   4
ATOM      4  C   UNL     1      -0.665   0.686   5.737  0.00  0.00    +0.122 A 
ATOM      5  C   UNL     1      -1.313   1.905   5.662  0.00  0.00    +0.049 A 
ATOM      6  C   UNL     1      -2.561   2.065   6.238  0.00  0.00    +0.045 A 
ATOM      7  C   UNL     1      -3.164   1.005   6.891  0.00  0.00    +0.044 A 
ATOM      8  C   UNL     1      -2.515  -0.220   6.967  0.00  0.00    +0.042 A 
ATOM      9  C   UNL     1      -1.264  -0.379   6.383  0.00  0.00    +0.065 A 
ATOM     10 BR   UNL     1      -0.380  -2.047   6.477  0.00  0.00    -0.046 Br
ATOM     11 CL   UNL     1      -3.371   3.598   6.142  0.00  0.00    -0.083 Cl
BRANCH   8  12
ATOM     12  N   UNL     1      -3.122  -1.293   7.626  0.00  0.00    -0.357 N 
ATOM     13  H   UNL     1      -3.996  -1.182   8.030  0.00  0.00    +0.142 HD
ATOM     14  H   UNL     1      -2.668  -2.148   7.679  0.00  0.00    +0.142 HD
ENDBRANCH   8  12
ENDBRANCH   1   4
BRANCH   1  15
ATOM     15  N   UNL     1       0.765  -0.626   3.786  0.00  0.00    -0.187 NA
ATOM     16  H   UNL     1       1.229  -1.476   3.842  0.00  0.00    +0.148 HD
BRANCH  15  22
ATOM     17  C   UNL     1      -0.635   1.245   0.216  0.00  0.00    +0.008 C 
ATOM     18  C   UNL     1      -0.141  -0.201   0.130  0.00  0.00    -0.010 C 
ATOM     19  C   UNL     1      -1.341  -1.150   0.112  0.00  0.00    +0.003 C 
ATOM     20  C   UNL     1      -2.156  -0.965   1.394  0.00  0.00    +0.002 C 
ATOM     21  C   UNL     1      -1.277  -1.277   2.607  0.00  0.00    +0.020 C 
ATOM     22  C   UNL     1      -0.077  -0.328   2.624  0.00  0.00    +0.080 C 
ATOM     23  C   UNL     1       0.738  -0.512   1.343  0.00  0.00    +0.007 C 
ATOM     24  C   UNL     1       1.938   0.437   1.360  0.00  0.00    +0.009 C 
ENDBRANCH  15  22
ENDBRANCH   1  15
TORSDOF 4
