REMARK  Name = ZINC14944277
REMARK  6 active torsions:
REMARK  status: ('A' for Active; 'I' for Inactive)
REMARK    1  A    between atoms: C_1  and  C_2
REMARK    2  A    between atoms: C_2  and  C_3
REMARK    3  A    between atoms: C_3  and  C_4
REMARK    4  A    between atoms: C_3  and  C_6
REMARK    5  A    between atoms: C_4  and  C_5
REMARK    6  A    between atoms: C_23  and  C_26
REMARK                            x       y       z     vdW  Elec       q    Type
REMARK                         _______ _______ _______ _____ _____    ______ ____
ROOT
ATOM      1  C   UNL     1       2.280   2.300   0.530  0.00  0.00    +0.060 C 
ATOM      2  C   UNL     1       2.586   1.126   1.377  0.00  0.00    +0.019 C 
ATOM      3  C   UNL     1       3.606   0.042   1.057  0.00  0.00    -0.005 C 
ATOM      4  C   UNL     1       4.180  -0.232   2.501  0.00  0.00    +0.004 C 
ATOM      5  C   UNL     1       2.935  -0.731   3.274  0.00  0.00    +0.004 C 
ATOM      6  C   UNL     1       1.822  -0.970   2.217  0.00  0.00    -0.003 C 
ATOM      7  C   UNL     1       2.721  -1.260   0.944  0.00  0.00    +0.008 C 
ATOM      8  C   UNL     1       1.270   0.382   1.745  0.00  0.00    +0.029 C 
ATOM      9  C   UNL     1       0.657   1.308   2.740  0.00  0.00    -0.022 A 
ATOM     10  C   UNL     1       0.102   0.911   3.924  0.00  0.00    +0.025 A 
ATOM     11  C   UNL     1      -0.425   1.852   4.801  0.00  0.00    +0.042 A 
ATOM     12  C   UNL     1      -0.382   3.191   4.475  0.00  0.00    +0.037 A 
ATOM     13  C   UNL     1       0.176   3.608   3.266  0.00  0.00    +0.084 A 
ATOM     14  C   UNL     1       0.693   2.661   2.361  0.00  0.00    +0.029 A 
ATOM     15  N   UNL     1       1.201   3.089   1.150  0.00  0.00    -0.401 NA
ATOM     16 CL   UNL     1      -1.134   1.343   6.301  0.00  0.00    -0.084 Cl
ATOM     17  H   UNL     1       1.556   4.113   1.336  0.00  0.00    +0.124 HD
ATOM     18  H   UNL     1       0.334   3.119   0.473  0.00  0.00    +0.124 HD
ENDROOT
BRANCH  13  19
ATOM     19  C   UNL     1       0.224   5.042   2.936  0.00  0.00    +0.388 C 
ATOM     20  O   UNL     1       0.107   5.404   1.781  0.00  0.00    -0.241 OA
ATOM     21  O   UNL     1       0.398   5.954   3.913  0.00  0.00    -0.241 OA
ENDBRANCH  13  19
BRANCH   1  22
ATOM     22  C   UNL     1       3.531   3.170   0.393  0.00  0.00    +0.008 C 
BRANCH  22  24
ATOM     23  C   UNL     1       2.901   3.918  -1.907  0.00  0.00    +0.004 C 
ATOM     24  C   UNL     1       3.215   4.384  -0.483  0.00  0.00    +0.002 C 
ENDBRANCH  22  24
BRANCH  22  25
ATOM     25  C   UNL     1       3.978   3.643   1.777  0.00  0.00    +0.002 C 
ATOM     26  C   UNL     1       5.300   4.403   1.655  0.00  0.00    +0.004 C 
ENDBRANCH  22  25
ENDBRANCH   1  22
TORSDOF 4
