REMARK  Name = ZINC13144267
REMARK  5 active torsions:
REMARK  status: ('A' for Active; 'I' for Inactive)
REMARK    1  A    between atoms: C_3  and  N_8
REMARK    2  A    between atoms: N_11  and  C_12
REMARK    3  A    between atoms: C_12  and  C_13
REMARK    4  A    between atoms: C_18  and  C_21
REMARK    5  A    between atoms: C_21  and  N_22
REMARK                            x       y       z     vdW  Elec       q    Type
REMARK                         _______ _______ _______ _____ _____    ______ ____
ROOT
ATOM      1  C   UNL     1       6.291   5.924  -0.447  0.00  0.00    +0.006 C 
ATOM      2  C   UNL     1       7.034   5.592   0.849  0.00  0.00    +0.005 C 
ATOM      3  C   UNL     1       8.487   6.059   0.738  0.00  0.00    +0.001 C 
ATOM      4  C   UNL     1       8.520   7.571   0.504  0.00  0.00    +0.005 C 
ATOM      5  C   UNL     1       7.777   7.903  -0.791  0.00  0.00    +0.006 C 
ATOM      6  C   UNL     1       6.324   7.436  -0.680  0.00  0.00    +0.010 C 
ENDROOT
BRANCH   1   7
ATOM      7  C   UNL     1       4.838   5.457  -0.336  0.00  0.00    +0.109 C 
BRANCH   7  11
ATOM      8  N   UNL     1       3.587   2.014  -0.028  0.00  0.00    -0.254 N 
ATOM      9  C   UNL     1       3.620   3.358  -0.123  0.00  0.00    +0.305 C 
ATOM     10  O   UNL     1       2.584   3.994  -0.112  0.00  0.00    -0.252 OA
ATOM     11  N   UNL     1       4.802   3.996  -0.232  0.00  0.00    -0.299 N 
ATOM     12  H   UNL     1       4.414   1.511   0.037  0.00  0.00    +0.158 HD
ATOM     13  H   UNL     1       5.629   3.489  -0.241  0.00  0.00    +0.150 HD
BRANCH   8  16
ATOM     14  C   UNL     1       1.117  -0.696  -0.026  0.00  0.00    +0.025 A 
ATOM     15  C   UNL     1       2.337  -0.045  -0.032  0.00  0.00    +0.045 A 
ATOM     16  C   UNL     1       2.363   1.345  -0.023  0.00  0.00    +0.126 A 
ATOM     17  N   UNL     1       1.236   2.040  -0.010  0.00  0.00    -0.239 NA
ATOM     18  C   UNL     1       0.058   1.448  -0.005  0.00  0.00    +0.132 A 
ATOM     19  C   UNL     1      -0.043   0.070  -0.013  0.00  0.00    +0.059 A 
ATOM     20 CL   UNL     1      -1.600  -0.697  -0.007  0.00  0.00    -0.082 Cl
ENDBRANCH   8  16
ENDBRANCH   7  11
ENDBRANCH   1   7
BRANCH   5  21
ATOM     21  C   UNL     1       8.453   7.191  -1.964  0.00  0.00    +0.109 C 
BRANCH  21  22
ATOM     22  N   UNL     1       9.806   7.725  -2.145  0.00  0.00    -0.299 N 
ATOM     23  C   UNL     1      10.594   7.244  -3.127  0.00  0.00    +0.305 C 
ATOM     24  O   UNL     1      10.183   6.367  -3.862  0.00  0.00    -0.252 OA
ATOM     25  N   UNL     1      11.838   7.735  -3.293  0.00  0.00    -0.254 N 
ATOM     26  C   UNL     1      12.615   7.315  -4.372  0.00  0.00    +0.126 A 
ATOM     27  C   UNL     1      13.854   7.903  -4.599  0.00  0.00    +0.045 A 
ATOM     28  C   UNL     1      14.615   7.477  -5.673  0.00  0.00    +0.025 A 
ATOM     29  C   UNL     1      14.108   6.472  -6.487  0.00  0.00    +0.059 A 
ATOM     30  C   UNL     1      12.868   5.933  -6.203  0.00  0.00    +0.132 A 
ATOM     31  N   UNL     1      12.168   6.356  -5.168  0.00  0.00    -0.239 NA
ATOM     32 CL   UNL     1      15.022   5.901  -7.848  0.00  0.00    -0.082 Cl
ATOM     33  H   UNL     1      10.133   8.425  -1.559  0.00  0.00    +0.150 HD
ATOM     34  H   UNL     1      12.193   8.381  -2.663  0.00  0.00    +0.158 HD
ENDBRANCH  21  22
ENDBRANCH   5  21
TORSDOF 5
