REMARK  Name = ZINC10067348
REMARK  12 active torsions:
REMARK  status: ('A' for Active; 'I' for Inactive)
REMARK    1  A    between atoms: C_1  and  C_2
REMARK    2  A    between atoms: C_2  and  N_62
REMARK    3  A    between atoms: C_3  and  C_4
REMARK    4  A    between atoms: C_3  and  N_62
REMARK    5  A    between atoms: C_5  and  C_6
REMARK    6  A    between atoms: C_5  and  N_62
REMARK    7  A    between atoms: C_6  and  N_7
REMARK    8  A    between atoms: C_11  and  O_19
REMARK    9  A    between atoms: C_14  and  O_17
REMARK   10  A    between atoms: O_17  and  C_18
REMARK   11  A    between atoms: O_19  and  C_20
REMARK   12  A    between atoms: C_21  and  C_23
REMARK                            x       y       z     vdW  Elec       q    Type
REMARK                         _______ _______ _______ _____ _____    ______ ____
ROOT
ATOM      1  N   UNL     1       3.590  -1.885   0.027  0.00  0.00    -0.248 N 
ATOM      2  C   UNL     1       4.877  -2.387  -0.081  0.00  0.00    +0.169 A 
ATOM      3  N   UNL     1       5.269  -3.637  -0.156  0.00  0.00    -0.221 NA
ATOM      4  C   UNL     1       6.571  -3.984  -0.263  0.00  0.00    +0.125 A 
ATOM      5  C   UNL     1       7.125  -5.287  -0.357  0.00  0.00    +0.147 A 
ATOM      6  C   UNL     1       8.483  -5.467  -0.455  0.00  0.00    +0.051 A 
ATOM      7  C   UNL     1       9.359  -4.390  -0.466  0.00  0.00    +0.050 A 
ATOM      8  C   UNL     1       8.851  -3.103  -0.376  0.00  0.00    +0.136 A 
ATOM      9  C   UNL     1       7.490  -2.913  -0.278  0.00  0.00    +0.086 A 
ATOM     10  S   UNL     1       6.425  -1.498  -0.145  0.00  0.00    -0.048 S 
ATOM     11  C   UNL     1       3.389  -0.555   0.099  0.00  0.00    +0.252 C 
ATOM     12  O   UNL     1       4.323   0.210  -0.047  0.00  0.00    -0.270 OA
ENDROOT
BRANCH  11  13
ATOM     13  C   UNL     1       2.036  -0.025   0.356  0.00  0.00    +0.041 A 
ATOM     14  C   UNL     1       0.940  -0.532  -0.348  0.00  0.00    +0.017 A 
ATOM     15  C   UNL     1      -0.321  -0.035  -0.107  0.00  0.00    +0.050 A 
ATOM     16  C   UNL     1      -0.510   0.971   0.834  0.00  0.00    +0.162 A 
ATOM     17  C   UNL     1       0.577   1.478   1.540  0.00  0.00    +0.163 A 
ATOM     18  C   UNL     1       1.847   0.984   1.303  0.00  0.00    +0.062 A 
ATOM     19  O   UNL     1       0.407   2.457   2.471  0.00  0.00    -0.485 OA
ATOM     20  C   UNL     1      -0.822   3.189   2.419  0.00  0.00    +0.270 C 
ATOM     21  C   UNL     1      -1.972   2.185   2.261  0.00  0.00    +0.270 C 
ATOM     22  O   UNL     1      -1.764   1.452   1.049  0.00  0.00    -0.485 OA
ENDBRANCH  11  13
BRANCH   8  23
ATOM     23  O   UNL     1       9.692  -2.034  -0.386  0.00  0.00    -0.494 OA
ATOM     24  C   UNL     1      11.091  -2.309  -0.491  0.00  0.00    +0.277 C 
ENDBRANCH   8  23
BRANCH   5  25
ATOM     25  O   UNL     1       6.302  -6.370  -0.349  0.00  0.00    -0.493 OA
ATOM     26  C   UNL     1       6.919  -7.655  -0.446  0.00  0.00    +0.277 C 
ENDBRANCH   5  25
BRANCH   1  27
ATOM     27  C   UNL     1       2.447  -2.801   0.064  0.00  0.00    +0.097 C 
BRANCH  27  28
ATOM     28  C   UNL     1       2.104  -3.245  -1.360  0.00  0.00    -0.059 C 
BRANCH  28  29
ATOM     29  N   UNL     1       0.924  -4.134  -1.308  0.00  0.00    +0.380 N 
ATOM     30  H   UNL     1       1.022  -4.772  -0.509  0.00  0.00    -0.082 HD
BRANCH  29  32
ATOM     31  C   UNL     1      -1.476  -4.277  -0.858  0.00  0.00    -0.017 C 
ATOM     32  C   UNL     1      -0.305  -3.331  -1.132  0.00  0.00    -0.082 C 
ENDBRANCH  29  32
BRANCH  29  33
ATOM     33  C   UNL     1       0.835  -4.929  -2.550  0.00  0.00    -0.082 C 
ATOM     34  C   UNL     1       1.853  -6.069  -2.477  0.00  0.00    -0.017 C 
ENDBRANCH  29  33
ENDBRANCH  28  29
ENDBRANCH  27  28
ENDBRANCH   1  27
TORSDOF 8
