REMARK  Name = ZINC63622993
REMARK  12 active torsions:
REMARK  status: ('A' for Active; 'I' for Inactive)
REMARK    1  A    between atoms: C_1  and  C_2
REMARK    2  A    between atoms: C_2  and  C_3
REMARK    3  A    between atoms: C_6  and  C_9
REMARK    4  A    between atoms: N_11  and  C_12
REMARK    5  A    between atoms: C_12  and  C_14
REMARK    6  A    between atoms: C_12  and  C_24
REMARK    7  A    between atoms: C_14  and  C_15
REMARK    8  A    between atoms: C_24  and  O_26
REMARK    9  A    between atoms: O_26  and  C_27
REMARK   10  A    between atoms: C_27  and  C_28
REMARK   11  A    between atoms: C_28  and  C_30
REMARK   12  A    between atoms: C_33  and  C_36
REMARK                            x       y       z     vdW  Elec       q    Type
REMARK                         _______ _______ _______ _____ _____    ______ ____
ROOT
ATOM      1  C   UNL     1       4.712  -2.545  -5.917  0.00  0.00    +0.186 C 
ENDROOT
BRANCH   1   4
ATOM      2  C   UNL     1       2.696  -1.860  -4.732  0.00  0.00    +0.245 C 
ATOM      3  O   UNL     1       2.064  -2.062  -5.752  0.00  0.00    -0.270 OA
ATOM      4  N   UNL     1       4.026  -2.072  -4.711  0.00  0.00    -0.298 N 
ATOM      5  H   UNL     1       4.530  -1.912  -3.898  0.00  0.00    +0.150 HD
BRANCH   2   9
ATOM      6  C   UNL     1       0.707  -0.490  -1.238  0.00  0.00    -0.048 A 
ATOM      7  C   UNL     1      -0.014  -0.718  -2.396  0.00  0.00    +0.004 A 
ATOM      8  C   UNL     1       0.625  -1.163  -3.535  0.00  0.00    +0.013 A 
ATOM      9  C   UNL     1       2.004  -1.383  -3.516  0.00  0.00    +0.037 A 
ATOM     10  C   UNL     1       2.726  -1.151  -2.344  0.00  0.00    +0.013 A 
ATOM     11  C   UNL     1       2.075  -0.701  -1.214  0.00  0.00    +0.004 A 
BRANCH   6  13
ATOM     12  C   UNL     1      -0.019   1.526   0.010  0.00  0.00    +0.009 C 
ATOM     13  C   UNL     1       0.002  -0.004   0.002  0.00  0.00    +0.032 C 
ENDBRANCH   6  13
ENDBRANCH   2   9
ENDBRANCH   1   4
BRANCH   1  14
ATOM     14  C   UNL     1       5.974  -3.270  -5.525  0.00  0.00    +0.328 C 
ATOM     15  O   UNL     1       6.271  -3.380  -4.359  0.00  0.00    -0.249 OA
BRANCH  14  16
ATOM     16  O   UNL     1       6.769  -3.793  -6.472  0.00  0.00    -0.455 OA
BRANCH  16  17
ATOM     17  C   UNL     1       7.949  -4.466  -6.029  0.00  0.00    +0.311 C 
BRANCH  17  18
ATOM     18  C   UNL     1       8.711  -4.983  -7.222  0.00  0.00    +0.200 C 
ATOM     19  O   UNL     1       8.285  -4.793  -8.341  0.00  0.00    -0.288 OA
BRANCH  18  20
ATOM     20  C   UNL     1       9.971  -5.717  -7.029  0.00  0.00    +0.021 A 
ATOM     21  C   UNL     1      10.463  -5.942  -5.739  0.00  0.00    +0.012 A 
ATOM     22  C   UNL     1      11.645  -6.632  -5.566  0.00  0.00    +0.004 A 
ATOM     23  C   UNL     1      12.343  -7.100  -6.665  0.00  0.00    -0.050 A 
ATOM     24  C   UNL     1      11.864  -6.881  -7.945  0.00  0.00    +0.004 A 
ATOM     25  C   UNL     1      10.681  -6.199  -8.134  0.00  0.00    +0.012 A 
ATOM     26  C   UNL     1      13.634  -7.853  -6.467  0.00  0.00    +0.044 C 
ENDBRANCH  18  20
ENDBRANCH  17  18
ENDBRANCH  16  17
ENDBRANCH  14  16
ENDBRANCH   1  14
BRANCH   1  27
ATOM     27  C   UNL     1       5.064  -1.350  -6.805  0.00  0.00    +0.067 C 
BRANCH  27  28
ATOM     28  C   UNL     1       3.797  -0.699  -7.297  0.00  0.00    -0.039 C 
ATOM     29  C   UNL     1       3.163   0.363  -6.749  0.00  0.00    -0.001 A 
ATOM     30  C   UNL     1       3.452   1.196  -5.575  0.00  0.00    +0.010 A 
ATOM     31  C   UNL     1       2.612   2.212  -5.270  0.00  0.00    +0.001 A 
ATOM     32  C   UNL     1       1.477   2.487  -6.044  0.00  0.00    +0.002 A 
ATOM     33  C   UNL     1       1.146   1.766  -7.136  0.00  0.00    +0.026 A 
ATOM     34  C   UNL     1       1.958   0.674  -7.550  0.00  0.00    +0.043 A 
ATOM     35  N   UNL     1       1.851  -0.162  -8.553  0.00  0.00    -0.380 N 
ATOM     36  C   UNL     1       2.981  -1.096  -8.506  0.00  0.00    +0.144 C 
ATOM     37  H   UNL     1       1.145  -0.161  -9.219  0.00  0.00    +0.160 HD
ENDBRANCH  27  28
ENDBRANCH   1  27
TORSDOF 10
