REMARK  Name = ZINC12780913
REMARK  11 active torsions:
REMARK  status: ('A' for Active; 'I' for Inactive)
REMARK    1  A    between atoms: C_1  and  C_2
REMARK    2  A    between atoms: C_6  and  C_30
REMARK    3  A    between atoms: C_7  and  O_8
REMARK    4  A    between atoms: O_8  and  C_9
REMARK    5  A    between atoms: C_9  and  C_10
REMARK    6  A    between atoms: C_10  and  C_12
REMARK    7  A    between atoms: C_10  and  O_29
REMARK    8  A    between atoms: C_12  and  N_13
REMARK    9  A    between atoms: C_18  and  C_25
REMARK   10  A    between atoms: C_21  and  C_23
REMARK   11  A    between atoms: C_21  and  C_24
REMARK                            x       y       z     vdW  Elec       q    Type
REMARK                         _______ _______ _______ _____ _____    ______ ____
ROOT
ATOM      1  N   UNL     1      -0.623  -1.272   1.797  0.00  0.00    -0.222 N 
ATOM      2  C   UNL     1       0.419  -0.538   1.351  0.00  0.00    +0.247 C 
ATOM      3  O   UNL     1       1.458  -0.345   1.945  0.00  0.00    -0.273 OA
ATOM      4  C   UNL     1       0.002  -0.004   0.002  0.00  0.00    +0.113 C 
ATOM      5  C   UNL     1      -0.019   1.518   0.010  0.00  0.00    +0.038 C 
ATOM      6  C   UNL     1       1.413   2.057  -0.000  0.00  0.00    -0.011 C 
ATOM      7  C   UNL     1       2.087   1.615  -1.298  0.00  0.00    +0.009 C 
ATOM      8  C   UNL     1       2.169   0.095  -1.379  0.00  0.00    -0.032 C 
ATOM      9  C   UNL     1       0.835  -0.583  -1.122  0.00  0.00    +0.041 C 
ATOM     10  C   UNL     1       3.236  -0.424  -0.410  0.00  0.00    +0.011 C 
ATOM     11  C   UNL     1       2.625  -0.274  -2.807  0.00  0.00    +0.011 C 
ATOM     12  C   UNL     1       1.379   3.587   0.059  0.00  0.00    +0.007 C 
ATOM     13  N   UNL     1      -1.388  -0.492  -0.143  0.00  0.00    -0.285 N 
ATOM     14  C   UNL     1      -1.653  -1.234   0.945  0.00  0.00    +0.309 C 
ATOM     15  O   UNL     1      -2.710  -1.805   1.135  0.00  0.00    -0.252 OA
ATOM     16  H   UNL     1      -1.980  -0.305  -0.887  0.00  0.00    +0.151 HD
ENDROOT
BRANCH   1  17
ATOM     17  C   UNL     1      -0.623  -2.018   3.058  0.00  0.00    +0.152 C 
BRANCH  17  18
ATOM     18  C   UNL     1      -0.099  -3.434   2.813  0.00  0.00    +0.170 C 
BRANCH  18  19
ATOM     19  O   UNL     1       1.270  -3.373   2.410  0.00  0.00    -0.387 OA
ATOM     20  H   UNL     1       1.854  -2.962   3.062  0.00  0.00    +0.210 HD
ENDBRANCH  18  19
BRANCH  18  21
ATOM     21  C   UNL     1      -0.215  -4.251   4.102  0.00  0.00    +0.262 C 
BRANCH  21  22
ATOM     22  O   UNL     1       0.164  -5.604   3.844  0.00  0.00    -0.489 OA
BRANCH  22  29
ATOM     23  C   UNL     1       2.500  -5.883   5.409  0.00  0.00    +0.047 C 
ATOM     24  C   UNL     1       1.233  -6.648   5.696  0.00  0.00    -0.009 A 
ATOM     25  C   UNL     1       1.181  -7.523   6.763  0.00  0.00    +0.007 A 
ATOM     26  C   UNL     1       0.020  -8.228   7.024  0.00  0.00    +0.001 A 
ATOM     27  C   UNL     1      -1.092  -8.056   6.221  0.00  0.00    +0.007 A 
ATOM     28  C   UNL     1      -1.046  -7.178   5.155  0.00  0.00    -0.009 A 
ATOM     29  C   UNL     1       0.117  -6.469   4.891  0.00  0.00    +0.126 A 
ATOM     30  C   UNL     1      -2.258  -6.991   4.279  0.00  0.00    +0.047 C 
ENDBRANCH  22  29
ENDBRANCH  21  22
ENDBRANCH  18  21
ENDBRANCH  17  18
ENDBRANCH   1  17
TORSDOF 6
