REMARK  Name = ZINC01502812
REMARK  4 active torsions:
REMARK  status: ('A' for Active; 'I' for Inactive)
REMARK    1  A    between atoms: C_4  and  S_7
REMARK    2  A    between atoms: S_7  and  N_10
REMARK    3  A    between atoms: C_13  and  C_16
REMARK    4  A    between atoms: C_18  and  C_21
REMARK                            x       y       z     vdW  Elec       q    Type
REMARK                         _______ _______ _______ _____ _____    ______ ____
ROOT
ATOM      1  N   UNL     1       1.259  -4.679  -0.034  0.00  0.00    -0.177 NA
ATOM      2  C   UNL     1       1.660  -4.046   1.230  0.00  0.00    +0.110 C 
ATOM      3  C   UNL     1       1.179  -2.592   1.228  0.00  0.00    +0.030 C 
ATOM      4  C   UNL     1       1.707  -1.886  -0.024  0.00  0.00    +0.080 C 
ATOM      5  C   UNL     1       1.157  -2.579  -1.272  0.00  0.00    +0.030 C 
ATOM      6  C   UNL     1       1.638  -4.034  -1.298  0.00  0.00    +0.110 C 
ENDROOT
BRANCH   4   7
ATOM      7  C   UNL     1       1.264  -0.446  -0.012  0.00  0.00    +0.231 A 
ATOM      8  N   UNL     1       2.042   0.607  -0.014  0.00  0.00    -0.191 NA
ATOM      9  C   UNL     1       1.210   1.675  -0.001  0.00  0.00    +0.209 A 
ATOM     10  N   UNL     1      -0.014   1.209   0.009  0.00  0.00    -0.056 NA
ATOM     11  O   UNL     1       0.002  -0.004   0.002  0.00  0.00    -0.337 OA
BRANCH   9  12
ATOM     12  C   UNL     1       1.608   3.097   0.003  0.00  0.00    +0.060 A 
ATOM     13  C   UNL     1       0.817   4.215   0.017  0.00  0.00    +0.019 A 
ATOM     14  C   UNL     1       1.419   5.453   0.018  0.00  0.00    +0.008 A 
ATOM     15  C   UNL     1       2.775   5.529   0.005  0.00  0.00    +0.046 A 
ATOM     16  S   UNL     1       3.247   3.807  -0.001  0.00  0.00    -0.093 S 
ENDBRANCH   9  12
ENDBRANCH   4   7
BRANCH   1  17
ATOM     17  S   UNL     1       0.397  -6.093  -0.034  0.00  0.00    +0.061 S 
ATOM     18  O   UNL     1       0.645  -6.720  -1.284  0.00  0.00    -0.153 OA
ATOM     19  O   UNL     1       0.667  -6.733   1.206  0.00  0.00    -0.153 OA
BRANCH  17  23
ATOM     20  C   UNL     1      -3.992  -4.985   0.010  0.00  0.00    +0.000 A 
ATOM     21  C   UNL     1      -3.332  -5.148  -1.194  0.00  0.00    +0.002 A 
ATOM     22  C   UNL     1      -1.992  -5.486  -1.207  0.00  0.00    +0.028 A 
ATOM     23  C   UNL     1      -1.311  -5.662  -0.017  0.00  0.00    +0.105 A 
ATOM     24  C   UNL     1      -1.972  -5.504   1.187  0.00  0.00    +0.028 A 
ATOM     25  C   UNL     1      -3.311  -5.160   1.200  0.00  0.00    +0.002 A 
ENDBRANCH  17  23
ENDBRANCH   1  17
TORSDOF 4
