REMARK  Name = ZINC25377629
REMARK  9 active torsions:
REMARK  status: ('A' for Active; 'I' for Inactive)
REMARK    1  A    between atoms: C_1  and  C_2
REMARK    2  A    between atoms: C_5  and  C_8
REMARK    3  A    between atoms: C_11  and  C_13
REMARK    4  A    between atoms: C_13  and  C_14
REMARK    5  A    between atoms: C_14  and  C_15
REMARK    6  A    between atoms: N_17  and  C_18
REMARK    7  A    between atoms: C_18  and  C_19
REMARK    8  A    between atoms: C_19  and  C_21
REMARK    9  A    between atoms: C_19  and  N_28
REMARK                            x       y       z     vdW  Elec       q    Type
REMARK                         _______ _______ _______ _____ _____    ______ ____
ROOT
ATOM      1  C   UNL     1      -4.093  -0.253  -2.770  0.00  0.00    +0.213 C 
ATOM      2  O   UNL     1      -3.339  -0.093  -3.707  0.00  0.00    -0.276 OA
ATOM      3  N   UNL     1      -3.836   0.343  -1.589  0.00  0.00    -0.317 N 
ATOM      4  H   UNL     1      -4.520   0.197  -0.739  0.00  0.00    +0.149 HD
ENDROOT
BRANCH   1   5
ATOM      5  C   UNL     1      -5.316  -1.119  -2.927  0.00  0.00    +0.105 C 
BRANCH   5   6
ATOM      6  C   UNL     1      -5.370  -1.671  -4.353  0.00  0.00    +0.105 C 
BRANCH   6  10
ATOM      7  C   UNL     1      -7.911  -4.266  -4.529  0.00  0.00    +0.155 A 
ATOM      8  C   UNL     1      -8.610  -3.169  -4.918  0.00  0.00    +0.161 A 
ATOM      9  N   UNL     1      -7.770  -2.123  -4.890  0.00  0.00    -0.221 NA
ATOM     10  C   UNL     1      -6.593  -2.537  -4.510  0.00  0.00    +0.197 A 
ATOM     11  O   UNL     1      -6.648  -3.855  -4.277  0.00  0.00    -0.440 OA
BRANCH   7  16
ATOM     12  C   UNL     1      -9.935  -9.630  -4.047  0.00  0.00    +0.044 C 
ATOM     13  C   UNL     1      -9.405  -8.226  -4.173  0.00  0.00    -0.050 A 
ATOM     14  C   UNL     1     -10.245  -7.207  -4.585  0.00  0.00    +0.004 A 
ATOM     15  C   UNL     1      -9.767  -5.918  -4.702  0.00  0.00    +0.012 A 
ATOM     16  C   UNL     1      -8.431  -5.644  -4.405  0.00  0.00    +0.019 A 
ATOM     17  C   UNL     1      -7.586  -6.677  -3.997  0.00  0.00    +0.012 A 
ATOM     18  C   UNL     1      -8.079  -7.960  -3.878  0.00  0.00    +0.004 A 
ENDBRANCH   7  16
ENDBRANCH   6  10
ENDBRANCH   5   6
ENDBRANCH   1   5
BRANCH   3  19
ATOM     19  C   UNL     1      -2.647   1.185  -1.436  0.00  0.00    +0.093 C 
BRANCH  19  20
ATOM     20  C   UNL     1      -2.660   1.839  -0.053  0.00  0.00    -0.019 C 
BRANCH  20  21
ATOM     21  C   UNL     1      -3.830   2.784   0.045  0.00  0.00    -0.041 A 
ATOM     22  C   UNL     1      -4.983   2.390   0.698  0.00  0.00    +0.003 A 
ATOM     23  C   UNL     1      -6.058   3.254   0.783  0.00  0.00    +0.000 A 
ATOM     24  C   UNL     1      -5.979   4.515   0.221  0.00  0.00    +0.001 A 
ATOM     25  C   UNL     1      -4.825   4.911  -0.427  0.00  0.00    +0.020 A 
ATOM     26  C   UNL     1      -3.748   4.046  -0.513  0.00  0.00    +0.043 A 
ATOM     27 CL   UNL     1      -2.298   4.544  -1.328  0.00  0.00    -0.083 Cl
ENDBRANCH  20  21
BRANCH  20  28
ATOM     28  N   UNL     1      -2.781   0.801   0.979  0.00  0.00    +0.385 N 
ATOM     29  C   UNL     1      -1.715  -0.224   0.830  0.00  0.00    -0.078 C 
ATOM     30  C   UNL     1      -1.665  -0.888   2.229  0.00  0.00    -0.020 C 
ATOM     31  C   UNL     1      -1.900   0.304   3.186  0.00  0.00    -0.020 C 
ATOM     32  C   UNL     1      -2.603   1.373   2.331  0.00  0.00    -0.078 C 
ATOM     33  H   UNL     1      -3.784   0.368   0.852  0.00  0.00    -0.081 HD
ENDBRANCH  20  28
ENDBRANCH  19  20
ENDBRANCH   3  19
TORSDOF 8
