REMARK  Name = ZINC00376739
REMARK  3 active torsions:
REMARK  status: ('A' for Active; 'I' for Inactive)
REMARK    1  A    between atoms: C_1  and  C_2
REMARK    2  A    between atoms: C_12  and  C_17
REMARK    3  A    between atoms: N_13  and  N_16
REMARK                            x       y       z     vdW  Elec       q    Type
REMARK                         _______ _______ _______ _____ _____    ______ ____
ROOT
ATOM      1  C   UNL     1      10.201   0.844   0.194  0.00  0.00    +0.008 C 
ATOM      2  C   UNL     1       8.895   0.068   0.372  0.00  0.00    -0.009 C 
ATOM      3  C   UNL     1       8.942  -1.209  -0.473  0.00  0.00    +0.009 C 
ATOM      4  C   UNL     1       7.751  -2.098  -0.088  0.00  0.00    +0.043 C 
ATOM      5  C   UNL     1       6.515  -1.250  -0.069  0.00  0.00    -0.004 A 
ATOM      6  C   UNL     1       6.449   0.098  -0.061  0.00  0.00    -0.022 A 
ATOM      7  C   UNL     1       5.114   0.696  -0.044  0.00  0.00    +0.077 A 
ATOM      8  C   UNL     1       4.036  -0.206  -0.037  0.00  0.00    +0.116 A 
ATOM      9  S   UNL     1       4.829  -1.795  -0.053  0.00  0.00    -0.073 S 
ATOM     10  N   UNL     1       2.775   0.200  -0.022  0.00  0.00    -0.217 NA
ATOM     11  C   UNL     1       2.478   1.486  -0.013  0.00  0.00    +0.197 A 
ATOM     12  N   UNL     1       3.467   2.435  -0.023  0.00  0.00    -0.211 N 
ATOM     13  C   UNL     1       4.766   2.086  -0.032  0.00  0.00    +0.280 A 
ATOM     14  O   UNL     1       5.636   2.941  -0.036  0.00  0.00    -0.265 OA
ATOM     15  C   UNL     1       7.721   0.941  -0.070  0.00  0.00    +0.040 C 
ENDROOT
BRANCH  11  16
ATOM     16  C   UNL     1       1.071   1.905   0.002  0.00  0.00    +0.172 A 
ATOM     17  C   UNL     1      -0.013   1.076   0.008  0.00  0.00    +0.053 A 
ATOM     18  C   UNL     1      -1.151   1.899   0.017  0.00  0.00    +0.042 A 
ATOM     19  C   UNL     1      -0.717   3.178   0.025  0.00  0.00    +0.196 A 
ATOM     20  O   UNL     1       0.624   3.178   0.013  0.00  0.00    -0.460 OA
ENDBRANCH  11  16
BRANCH  12  21
ATOM     21  N   UNL     1       3.127   3.758  -0.018  0.00  0.00    -0.294 N 
ATOM     22  H   UNL     1       3.950   4.343  -0.027  0.00  0.00    +0.163 HD
ATOM     23  H   UNL     1       2.519   3.978  -0.793  0.00  0.00    +0.163 HD
ENDBRANCH  12  21
TORSDOF 2
