REMARK  Name = ZINC32915982
REMARK  9 active torsions:
REMARK  status: ('A' for Active; 'I' for Inactive)
REMARK    1  A    between atoms: C_1  and  C_2
REMARK    2  A    between atoms: C_2  and  C_4
REMARK    3  A    between atoms: C_2  and  N_18
REMARK    4  A    between atoms: C_4  and  C_5
REMARK    5  A    between atoms: C_5  and  N_6
REMARK    6  A    between atoms: N_9  and  C_12
REMARK    7  A    between atoms: C_19  and  C_21
REMARK    8  A    between atoms: C_24  and  S_27
REMARK    9  A    between atoms: S_27  and  C_28
REMARK                            x       y       z     vdW  Elec       q    Type
REMARK                         _______ _______ _______ _____ _____    ______ ____
ROOT
ATOM      1  C   UNL     1      -0.753   1.593  -1.232  0.00  0.00    +0.028 C 
ATOM      2  C   UNL     1      -0.013   1.086   0.008  0.00  0.00    +0.068 C 
ENDROOT
BRANCH   2   3
ATOM      3  N   UNL     1      -0.698   1.558   1.213  0.00  0.00    -0.309 N 
ATOM      4  C   UNL     1      -1.741   0.865   1.711  0.00  0.00    +0.244 C 
ATOM      5  O   UNL     1      -2.113  -0.154   1.160  0.00  0.00    -0.270 OA
ATOM      6  H   UNL     1      -0.362   2.479   1.712  0.00  0.00    +0.149 HD
BRANCH   4   7
ATOM      7  C   UNL     1      -2.432   1.340   2.925  0.00  0.00    +0.037 A 
ATOM      8  C   UNL     1      -2.002   2.508   3.563  0.00  0.00    +0.014 A 
ATOM      9  C   UNL     1      -2.649   2.950   4.687  0.00  0.00    +0.016 A 
ATOM     10  C   UNL     1      -3.726   2.232   5.201  0.00  0.00    +0.016 A 
ATOM     11  C   UNL     1      -4.153   1.066   4.570  0.00  0.00    +0.016 A 
ATOM     12  C   UNL     1      -3.514   0.621   3.442  0.00  0.00    +0.014 A 
BRANCH  10  13
ATOM     13  S   UNL     1      -4.551   2.800   6.651  0.00  0.00    -0.016 S 
BRANCH  13  14
ATOM     14  C   UNL     1      -3.659   4.315   7.098  0.00  0.00    +0.448 C 
ATOM     15  F   UNL     1      -3.747   5.235   6.047  0.00  0.00    -0.160 F 
ATOM     16  F   UNL     1      -4.227   4.868   8.250  0.00  0.00    -0.160 F 
ATOM     17  F   UNL     1      -2.315   4.011   7.340  0.00  0.00    -0.160 F 
ENDBRANCH  13  14
ENDBRANCH  10  13
ENDBRANCH   4   7
ENDBRANCH   2   3
BRANCH   2  18
ATOM     18  C   UNL     1       1.423   1.615  -0.003  0.00  0.00    +0.003 C 
BRANCH  18  19
ATOM     19  C   UNL     1       2.199   1.009   1.168  0.00  0.00    -0.077 C 
BRANCH  19  20
ATOM     20  N   UNL     1       3.577   1.518   1.158  0.00  0.00    +0.382 N 
ATOM     21  C   UNL     1       4.306   1.040  -0.025  0.00  0.00    -0.060 C 
ATOM     22  C   UNL     1       5.708   1.654  -0.040  0.00  0.00    +0.086 C 
ATOM     23  N   UNL     1       6.414   1.285   1.194  0.00  0.00    -0.333 N 
ATOM     24  C   UNL     1       5.685   1.764   2.377  0.00  0.00    +0.086 C 
ATOM     25  C   UNL     1       4.284   1.149   2.393  0.00  0.00    -0.060 C 
ATOM     26  H   UNL     1       3.530   2.616   1.108  0.00  0.00    -0.082 HD
BRANCH  23  27
ATOM     27  C   UNL     1       7.724   1.769   1.185  0.00  0.00    +0.030 A 
ATOM     28  C   UNL     1       8.170   2.593   2.210  0.00  0.00    +0.023 A 
ATOM     29  C   UNL     1       9.468   3.066   2.200  0.00  0.00    +0.002 A 
ATOM     30  C   UNL     1      10.320   2.727   1.164  0.00  0.00    +0.000 A 
ATOM     31  C   UNL     1       9.878   1.911   0.139  0.00  0.00    +0.002 A 
ATOM     32  C   UNL     1       8.583   1.431   0.146  0.00  0.00    +0.023 A 
ENDBRANCH  23  27
ENDBRANCH  19  20
ENDBRANCH  18  19
ENDBRANCH   2  18
TORSDOF 8
