REMARK  Name = ZINC60238701
REMARK  14 active torsions:
REMARK  status: ('A' for Active; 'I' for Inactive)
REMARK    1  A    between atoms: C_1  and  C_2
REMARK    2  A    between atoms: C_2  and  N_3
REMARK    3  A    between atoms: N_3  and  C_4
REMARK    4  A    between atoms: N_3  and  S_6
REMARK    5  A    between atoms: C_4  and  C_5
REMARK    6  A    between atoms: S_6  and  C_9
REMARK    7  A    between atoms: C_12  and  O_33
REMARK    8  A    between atoms: C_13  and  C_15
REMARK    9  A    between atoms: N_17  and  C_18
REMARK   10  A    between atoms: C_18  and  C_19
REMARK   11  A    between atoms: C_19  and  C_21
REMARK   12  A    between atoms: C_19  and  N_28
REMARK   13  A    between atoms: C_24  and  C_27
REMARK   14  A    between atoms: O_33  and  C_34
REMARK                            x       y       z     vdW  Elec       q    Type
REMARK                         _______ _______ _______ _____ _____    ______ ____
ROOT
ATOM      1  C   UNL     1      -6.175   2.208   1.730  0.00  0.00    +0.248 C 
ATOM      2  O   UNL     1      -6.655   3.283   2.034  0.00  0.00    -0.270 OA
ATOM      3  N   UNL     1      -6.889   1.335   0.993  0.00  0.00    -0.312 N 
ATOM      4  H   UNL     1      -6.506   0.477   0.750  0.00  0.00    +0.149 HD
ENDROOT
BRANCH   1   9
ATOM      5  C   UNL     1      -2.979   0.306   2.235  0.00  0.00    +0.106 A 
ATOM      6  C   UNL     1      -2.244   1.204   2.993  0.00  0.00    +0.032 A 
ATOM      7  C   UNL     1      -2.781   2.427   3.342  0.00  0.00    +0.048 A 
ATOM      8  C   UNL     1      -4.064   2.765   2.936  0.00  0.00    +0.132 A 
ATOM      9  C   UNL     1      -4.810   1.860   2.169  0.00  0.00    +0.080 A 
ATOM     10  C   UNL     1      -4.252   0.628   1.818  0.00  0.00    +0.045 A 
BRANCH   5  11
ATOM     11  S   UNL     1      -2.279  -1.250   1.797  0.00  0.00    +0.061 S 
ATOM     12  O   UNL     1      -3.368  -2.128   1.543  0.00  0.00    -0.153 OA
ATOM     13  O   UNL     1      -1.282  -1.535   2.768  0.00  0.00    -0.153 OA
BRANCH  11  14
ATOM     14  N   UNL     1      -1.491  -1.044   0.355  0.00  0.00    -0.177 NA
BRANCH  14  16
ATOM     15  C   UNL     1       0.025   0.869   0.197  0.00  0.00    +0.022 C 
ATOM     16  C   UNL     1      -0.080  -0.651   0.341  0.00  0.00    +0.106 C 
ENDBRANCH  14  16
BRANCH  14  17
ATOM     17  C   UNL     1      -2.205  -1.255  -0.907  0.00  0.00    +0.106 C 
ATOM     18  C   UNL     1      -1.964  -2.684  -1.397  0.00  0.00    +0.022 C 
ENDBRANCH  14  17
ENDBRANCH  11  14
ENDBRANCH   5  11
BRANCH   8  19
ATOM     19  O   UNL     1      -4.593   3.966   3.279  0.00  0.00    -0.494 OA
ATOM     20  C   UNL     1      -3.774   4.836   4.062  0.00  0.00    +0.277 C 
ENDBRANCH   8  19
ENDBRANCH   1   9
BRANCH   3  21
ATOM     21  C   UNL     1      -8.245   1.681   0.557  0.00  0.00    +0.094 C 
BRANCH  21  22
ATOM     22  C   UNL     1      -8.789   0.573  -0.346  0.00  0.00    -0.020 C 
BRANCH  22  23
ATOM     23  C   UNL     1      -8.951  -0.694   0.454  0.00  0.00    -0.059 A 
ATOM     24  C   UNL     1     -10.061  -0.863   1.262  0.00  0.00    +0.002 A 
ATOM     25  C   UNL     1     -10.210  -2.024   1.996  0.00  0.00    +0.003 A 
ATOM     26  C   UNL     1      -9.251  -3.017   1.923  0.00  0.00    -0.050 A 
ATOM     27  C   UNL     1      -8.142  -2.848   1.115  0.00  0.00    +0.003 A 
ATOM     28  C   UNL     1      -7.995  -1.688   0.377  0.00  0.00    +0.002 A 
ATOM     29  C   UNL     1      -9.413  -4.283   2.724  0.00  0.00    +0.044 C 
ENDBRANCH  22  23
BRANCH  22  30
ATOM     30  N   UNL     1     -10.091   0.979  -0.890  0.00  0.00    +0.385 N 
ATOM     31  C   UNL     1      -9.936   2.185  -1.743  0.00  0.00    -0.078 C 
ATOM     32  C   UNL     1     -11.192   2.143  -2.649  0.00  0.00    -0.020 C 
ATOM     33  C   UNL     1     -11.367   0.632  -2.926  0.00  0.00    -0.020 C 
ATOM     34  C   UNL     1     -10.625  -0.076  -1.778  0.00  0.00    -0.078 C 
ATOM     35  H   UNL     1     -10.740   1.163  -0.140  0.00  0.00    -0.081 HD
ENDBRANCH  22  30
ENDBRANCH  21  22
ENDBRANCH   3  21
TORSDOF 10
