REMARK  Name = ZINC38681944
REMARK  17 active torsions:
REMARK  status: ('A' for Active; 'I' for Inactive)
REMARK    1  A    between atoms: C_1  and  C_2
REMARK    2  A    between atoms: C_2  and  C_3
REMARK    3  A    between atoms: C_3  and  C_4
REMARK    4  A    between atoms: C_4  and  C_5
REMARK    5  A    between atoms: C_5  and  C_6
REMARK    6  A    between atoms: C_6  and  O_7
REMARK    7  A    between atoms: O_7  and  C_8
REMARK    8  A    between atoms: C_11  and  C_16
REMARK    9  A    between atoms: C_13  and  O_14
REMARK   10  A    between atoms: O_14  and  C_15
REMARK   11  A    between atoms: C_21  and  O_30
REMARK   12  A    between atoms: C_25  and  N_29
REMARK   13  A    between atoms: C_26  and  C_27
REMARK   14  A    between atoms: O_30  and  C_31
REMARK   15  A    between atoms: C_31  and  C_33
REMARK   16  A    between atoms: C_36  and  O_39
REMARK   17  A    between atoms: O_39  and  C_40
REMARK                            x       y       z     vdW  Elec       q    Type
REMARK                         _______ _______ _______ _____ _____    ______ ____
ROOT
ATOM      1  C   UNL     1      -4.857 -10.172   0.031  0.00  0.00    +0.098 C 
ATOM      2  C   UNL     1      -4.202 -10.767   1.249  0.00  0.00    +0.008 A 
ATOM      3  C   UNL     1      -4.783 -10.585   2.492  0.00  0.00    +0.012 A 
ATOM      4  C   UNL     1      -4.196 -11.123   3.620  0.00  0.00    +0.047 A 
ATOM      5  C   UNL     1      -3.019 -11.850   3.510  0.00  0.00    +0.135 A 
ATOM      6  C   UNL     1      -2.434 -12.033   2.267  0.00  0.00    +0.093 A 
ATOM      7  C   UNL     1      -3.026 -11.491   1.133  0.00  0.00    +0.138 A 
ATOM      8  O   UNL     1      -2.441 -11.679  -0.075  0.00  0.00    -0.441 OA
ATOM      9  C   UNL     1      -3.159 -11.517  -1.199  0.00  0.00    +0.199 C 
ATOM     10  C   UNL     1      -4.312 -10.813  -1.214  0.00  0.00    +0.098 C 
ENDROOT
BRANCH   1  14
ATOM     11  C   UNL     1      -4.077  -5.969  -0.085  0.00  0.00    +0.162 A 
ATOM     12  C   UNL     1      -3.026  -6.872  -0.114  0.00  0.00    +0.050 A 
ATOM     13  C   UNL     1      -3.282  -8.230  -0.076  0.00  0.00    +0.008 A 
ATOM     14  C   UNL     1      -4.584  -8.690  -0.009  0.00  0.00    -0.031 A 
ATOM     15  C   UNL     1      -5.636  -7.794   0.019  0.00  0.00    +0.054 A 
ATOM     16  C   UNL     1      -5.387  -6.431  -0.012  0.00  0.00    +0.162 A 
BRANCH  16  17
ATOM     17  O   UNL     1      -6.420  -5.548   0.022  0.00  0.00    -0.491 OA
ATOM     18  C   UNL     1      -7.739  -6.095   0.097  0.00  0.00    +0.277 C 
ENDBRANCH  16  17
BRANCH  11  19
ATOM     19  O   UNL     1      -3.827  -4.632  -0.121  0.00  0.00    -0.488 OA
BRANCH  19  20
ATOM     20  C   UNL     1      -2.458  -4.230  -0.196  0.00  0.00    +0.229 C 
BRANCH  20  21
ATOM     21  C   UNL     1      -2.376  -2.703  -0.228  0.00  0.00    +0.041 C 
BRANCH  21  22
ATOM     22  C   UNL     1      -0.910  -2.272  -0.307  0.00  0.00    +0.003 C 
BRANCH  22  23
ATOM     23  C   UNL     1      -0.828  -0.745  -0.339  0.00  0.00    -0.000 C 
BRANCH  23  25
ATOM     24  C   UNL     1       0.720   1.214  -0.451  0.00  0.00    +0.004 C 
ATOM     25  C   UNL     1       0.638  -0.314  -0.418  0.00  0.00    -0.003 C 
ENDBRANCH  23  25
ENDBRANCH  22  23
ENDBRANCH  21  22
ENDBRANCH  20  21
ENDBRANCH  19  20
ENDBRANCH  11  19
ENDBRANCH   1  14
BRANCH   9  26
ATOM     26  N   UNL     1      -2.707 -12.082  -2.366  0.00  0.00    -0.328 N 
ATOM     27  H   UNL     1      -1.880 -12.589  -2.370  0.00  0.00    +0.145 HD
ATOM     28  H   UNL     1      -3.214 -11.973  -3.186  0.00  0.00    +0.145 HD
ENDBRANCH   9  26
BRANCH  10  29
ATOM     29  C   UNL     1      -5.029 -10.676  -2.446  0.00  0.00    +0.101 C 
ATOM     30  N   UNL     1      -5.598 -10.567  -3.423  0.00  0.00    -0.191 NA
ENDBRANCH  10  29
BRANCH   5  31
ATOM     31  O   UNL     1      -2.440 -12.380   4.619  0.00  0.00    -0.422 OA
BRANCH  31  32
ATOM     32  C   UNL     1      -3.068 -13.402   5.234  0.00  0.00    +0.344 C 
ATOM     33  O   UNL     1      -4.064 -13.890   4.736  0.00  0.00    -0.245 OA
BRANCH  32  34
ATOM     34  C   UNL     1      -2.548 -13.927   6.510  0.00  0.00    +0.060 A 
ATOM     35  C   UNL     1      -1.406 -13.363   7.086  0.00  0.00    +0.018 A 
ATOM     36  C   UNL     1      -0.924 -13.856   8.278  0.00  0.00    +0.046 A 
ATOM     37  C   UNL     1      -1.571 -14.913   8.908  0.00  0.00    +0.120 A 
ATOM     38  C   UNL     1      -2.706 -15.477   8.337  0.00  0.00    +0.046 A 
ATOM     39  C   UNL     1      -3.199 -14.986   7.149  0.00  0.00    +0.018 A 
BRANCH  37  40
ATOM     40  O   UNL     1      -1.092 -15.396  10.082  0.00  0.00    -0.495 OA
ATOM     41  C   UNL     1      -1.805 -16.483  10.675  0.00  0.00    +0.277 C 
ENDBRANCH  37  40
ENDBRANCH  32  34
ENDBRANCH  31  32
ENDBRANCH   5  31
TORSDOF 14
