REMARK  Name = ZINC48890801
REMARK  8 active torsions:
REMARK  status: ('A' for Active; 'I' for Inactive)
REMARK    1  A    between atoms: C_1  and  C_2
REMARK    2  A    between atoms: C_2  and  C_3
REMARK    3  A    between atoms: C_2  and  C_4
REMARK    4  A    between atoms: C_2  and  N_14
REMARK    5  A    between atoms: N_6  and  C_7
REMARK    6  A    between atoms: C_7  and  C_8
REMARK    7  A    between atoms: C_8  and  C_9
REMARK    8  A    between atoms: N_17  and  C_18
REMARK                            x       y       z     vdW  Elec       q    Type
REMARK                         _______ _______ _______ _____ _____    ______ ____
ROOT
ATOM      1  C   UNL     1      -1.412  -0.526   0.013  0.00  0.00    +0.236 C 
ATOM      2  O   UNL     1      -1.939  -0.827   1.062  0.00  0.00    -0.273 OA
ATOM      3  N   UNL     1      -2.090  -0.657  -1.144  0.00  0.00    -0.314 N 
ATOM      4  H   UNL     1      -1.669  -0.416  -1.984  0.00  0.00    +0.149 HD
ENDROOT
BRANCH   1   6
ATOM      5  C   UNL     1      -0.019   1.526   0.010  0.00  0.00    +0.041 C 
ATOM      6  C   UNL     1       0.002  -0.004   0.002  0.00  0.00    +0.106 C 
ATOM      7  C   UNL     1       0.742  -0.511   1.242  0.00  0.00    +0.041 C 
BRANCH   6   8
ATOM      8  N   UNL     1       0.688  -0.476  -1.203  0.00  0.00    -0.286 N 
ATOM      9  C   UNL     1       1.972  -0.132  -1.427  0.00  0.00    +0.300 C 
ATOM     10  O   UNL     1       2.561   0.570  -0.628  0.00  0.00    -0.253 OA
ATOM     11  N   UNL     1       2.602  -0.567  -2.536  0.00  0.00    -0.302 N 
ATOM     12  C   UNL     1       3.998  -0.193  -2.779  0.00  0.00    +0.129 C 
ATOM     13  H   UNL     1       0.218  -1.037  -1.840  0.00  0.00    +0.151 HD
ATOM     14  H   UNL     1       2.132  -1.127  -3.173  0.00  0.00    +0.150 HD
ENDBRANCH   6   8
ENDBRANCH   1   6
BRANCH   3  15
ATOM     15  C   UNL     1      -3.465  -1.164  -1.134  0.00  0.00    +0.104 C 
BRANCH  15  16
ATOM     16  C   UNL     1      -4.000  -1.215  -2.566  0.00  0.00    +0.022 C 
BRANCH  16  17
ATOM     17  C   UNL     1      -5.436  -1.745  -2.555  0.00  0.00    -0.010 C 
ATOM     18  C   UNL     1      -5.448  -3.229  -2.135  0.00  0.00    +0.003 C 
ATOM     19  C   UNL     1      -6.559  -3.862  -3.010  0.00  0.00    +0.000 C 
ATOM     20  C   UNL     1      -6.384  -3.134  -4.365  0.00  0.00    +0.000 C 
ATOM     21  C   UNL     1      -6.031  -1.684  -3.973  0.00  0.00    +0.003 C 
ENDBRANCH  16  17
ENDBRANCH  15  16
ENDBRANCH   3  15
TORSDOF 5
