REMARK  Name = ZINC49532029
REMARK  5 active torsions:
REMARK  status: ('A' for Active; 'I' for Inactive)
REMARK    1  A    between atoms: C_1  and  C_2
REMARK    2  A    between atoms: C_2  and  C_4
REMARK    3  A    between atoms: C_2  and  N_11
REMARK    4  A    between atoms: C_12  and  C_16
REMARK    5  A    between atoms: C_21  and  N_22
REMARK                            x       y       z     vdW  Elec       q    Type
REMARK                         _______ _______ _______ _____ _____    ______ ____
ROOT
ATOM      1  N   UNL     1      -1.331  -0.656   0.078  0.00  0.00    -0.218 N 
ATOM      2  C   UNL     1      -1.995  -1.223  -0.960  0.00  0.00    +0.184 A 
ATOM      3  N   UNL     1      -3.257  -1.329  -0.599  0.00  0.00    -0.108 NA
ATOM      4  N   UNL     1      -3.425  -0.868   0.589  0.00  0.00    -0.023 NA
ATOM      5  N   UNL     1      -2.306  -0.447   1.069  0.00  0.00    -0.043 NA
ENDROOT
BRANCH   2   6
ATOM      6  C   UNL     1      -1.413  -1.643  -2.252  0.00  0.00    +0.041 A 
ATOM      7  C   UNL     1      -0.582  -0.776  -2.961  0.00  0.00    +0.013 A 
ATOM      8  C   UNL     1      -0.041  -1.172  -4.167  0.00  0.00    +0.001 A 
ATOM      9  C   UNL     1      -0.320  -2.429  -4.678  0.00  0.00    +0.002 A 
ATOM     10  C   UNL     1      -1.141  -3.297  -3.986  0.00  0.00    +0.023 A 
ATOM     11  C   UNL     1      -1.688  -2.916  -2.769  0.00  0.00    +0.035 A 
BRANCH  11  12
ATOM     12  N   UNL     1      -2.513  -3.793  -2.067  0.00  0.00    -0.357 N 
ATOM     13  H   UNL     1      -2.897  -3.522  -1.219  0.00  0.00    +0.142 HD
ATOM     14  H   UNL     1      -2.702  -4.673  -2.427  0.00  0.00    +0.142 HD
ENDBRANCH  11  12
ENDBRANCH   2   6
BRANCH   1  16
ATOM     15  C   UNL     1       0.270   1.141   0.514  0.00  0.00    +0.038 C 
ATOM     16  C   UNL     1       0.097  -0.336   0.152  0.00  0.00    +0.141 C 
BRANCH  16  17
ATOM     17  C   UNL     1       0.749  -1.191   1.208  0.00  0.00    +0.012 A 
ATOM     18  C   UNL     1       0.318  -1.121   2.519  0.00  0.00    +0.008 A 
ATOM     19  C   UNL     1       0.916  -1.905   3.487  0.00  0.00    +0.001 A 
ATOM     20  C   UNL     1       1.946  -2.761   3.145  0.00  0.00    +0.003 A 
ATOM     21  C   UNL     1       2.379  -2.834   1.835  0.00  0.00    +0.039 A 
ATOM     22  C   UNL     1       1.777  -2.053   0.863  0.00  0.00    +0.129 A 
ATOM     23  F   UNL     1       2.196  -2.126  -0.419  0.00  0.00    -0.205 F 
ENDBRANCH  16  17
ENDBRANCH   1  16
TORSDOF 4
