REMARK  Name = ZINC20644401
REMARK  10 active torsions:
REMARK  status: ('A' for Active; 'I' for Inactive)
REMARK    1  A    between atoms: N_14  and  C_17
REMARK    2  A    between atoms: C_17  and  C_18
REMARK    3  A    between atoms: C_18  and  C_19
REMARK    4  A    between atoms: C_19  and  C_20
REMARK    5  A    between atoms: C_20  and  C_21
REMARK    6  A    between atoms: C_21  and  C_22
REMARK    7  A    between atoms: N_24  and  C_25
REMARK    8  A    between atoms: C_25  and  C_26
REMARK    9  A    between atoms: C_26  and  C_27
REMARK   10  A    between atoms: C_27  and  N_28
REMARK                            x       y       z     vdW  Elec       q    Type
REMARK                         _______ _______ _______ _____ _____    ______ ____
ROOT
ATOM      1  C   UNL     1      -1.069   1.798 -11.125  0.00  0.00    +0.127 C 
ENDROOT
BRANCH   1  15
ATOM      2  C   UNL     1      -0.349  -1.522 -14.703  0.00  0.00    +0.065 A 
ATOM      3  C   UNL     1      -0.036  -0.312 -14.085  0.00  0.00    +0.067 A 
ATOM      4  C   UNL     1       0.974   0.512 -14.615  0.00  0.00    +0.057 A 
ATOM      5  C   UNL     1       1.656   0.117 -15.753  0.00  0.00    +0.076 A 
ATOM      6  C   UNL     1       1.341  -1.087 -16.364  0.00  0.00    +0.168 A 
ATOM      7  C   UNL     1       0.337  -1.906 -15.837  0.00  0.00    +0.167 A 
ATOM      8  O   UNL     1       0.229  -3.019 -16.622  0.00  0.00    -0.453 OA
ATOM      9  C   UNL     1       0.886  -2.683 -17.858  0.00  0.00    +0.466 C 
ATOM     10  O   UNL     1       1.856  -1.691 -17.473  0.00  0.00    -0.453 OA
ATOM     11  N   UNL     1       1.261   1.711 -13.976  0.00  0.00    -0.334 N 
ATOM     12  H   UNL     1       2.050   2.369 -14.371  0.00  0.00    +0.168 HD
ATOM     13  C   UNL     1       0.584   2.080 -12.876  0.00  0.00    +0.161 A 
ATOM     14  S   UNL     1       0.975   3.572 -12.134  0.00  0.00    -0.013 S 
ATOM     15  N   UNL     1      -0.383   1.325 -12.330  0.00  0.00    -0.288 N 
ATOM     16  C   UNL     1      -0.740   0.142 -12.874  0.00  0.00    +0.262 A 
ATOM     17  O   UNL     1      -1.620  -0.533 -12.375  0.00  0.00    -0.267 OA
ENDBRANCH   1  15
BRANCH   1  18
ATOM     18  C   UNL     1      -0.329   1.291  -9.885  0.00  0.00    +0.022 C 
BRANCH  18  19
ATOM     19  C   UNL     1      -1.045   1.784  -8.627  0.00  0.00    +0.002 C 
BRANCH  19  20
ATOM     20  C   UNL     1      -0.305   1.278  -7.387  0.00  0.00    +0.009 C 
BRANCH  20  21
ATOM     21  C   UNL     1      -1.021   1.771  -6.128  0.00  0.00    +0.096 C 
BRANCH  21  22
ATOM     22  C   UNL     1      -0.292   1.272  -4.907  0.00  0.00    +0.213 C 
ATOM     23  O   UNL     1       0.702   0.589  -5.032  0.00  0.00    -0.276 OA
ATOM     24  N   UNL     1      -0.745   1.585  -3.677  0.00  0.00    -0.315 N 
ATOM     25  H   UNL     1      -1.647   2.204  -3.564  0.00  0.00    +0.149 HD
BRANCH  24  26
ATOM     26  C   UNL     1      -0.037   1.099  -2.490  0.00  0.00    +0.102 C 
BRANCH  26  27
ATOM     27  C   UNL     1      -0.753   1.593  -1.232  0.00  0.00    +0.000 C 
BRANCH  27  28
ATOM     28  C   UNL     1      -0.013   1.086   0.008  0.00  0.00    -0.077 C 
BRANCH  28  29
ATOM     29  N   UNL     1      -0.700   1.560   1.217  0.00  0.00    +0.380 N 
ATOM     30  C   UNL     1      -2.145   1.215   1.177  0.00  0.00    -0.079 C 
ATOM     31  C   UNL     1      -2.568   1.293   2.665  0.00  0.00    -0.020 C 
ATOM     32  C   UNL     1      -1.336   0.724   3.406  0.00  0.00    -0.020 C 
ATOM     33  C   UNL     1      -0.162   0.900   2.426  0.00  0.00    -0.079 C 
ATOM     34  H   UNL     1      -0.540   2.647   1.245  0.00  0.00    -0.082 HD
ENDBRANCH  28  29
ENDBRANCH  27  28
ENDBRANCH  26  27
ENDBRANCH  24  26
ENDBRANCH  21  22
ENDBRANCH  20  21
ENDBRANCH  19  20
ENDBRANCH  18  19
ENDBRANCH   1  18
TORSDOF 10
