REMARK  Name = ZINC63514115
REMARK  10 active torsions:
REMARK  status: ('A' for Active; 'I' for Inactive)
REMARK    1  A    between atoms: C_1  and  C_2
REMARK    2  A    between atoms: C_2  and  O_3
REMARK    3  A    between atoms: O_3  and  C_4
REMARK    4  A    between atoms: C_7  and  S_14
REMARK    5  A    between atoms: S_14  and  N_17
REMARK    6  A    between atoms: N_17  and  C_18
REMARK    7  A    between atoms: C_18  and  C_19
REMARK    8  A    between atoms: C_19  and  C_20
REMARK    9  A    between atoms: C_23  and  C_31
REMARK   10  A    between atoms: C_28  and  C_30
REMARK                            x       y       z     vdW  Elec       q    Type
REMARK                         _______ _______ _______ _____ _____    ______ ____
ROOT
ATOM      1  S   UNL     1       1.111  -6.486   1.776  0.00  0.00    +0.059 S 
ATOM      2  O   UNL     1       0.583  -7.051   0.583  0.00  0.00    -0.153 OA
ATOM      3  O   UNL     1       0.838  -5.149   2.171  0.00  0.00    -0.153 OA
ENDROOT
BRANCH   1   7
ATOM      4  C   UNL     1      -0.275  -9.131   5.221  0.00  0.00    +0.128 A 
ATOM      5  C   UNL     1      -0.438  -7.774   5.255  0.00  0.00    +0.048 A 
ATOM      6  C   UNL     1      -0.011  -6.976   4.198  0.00  0.00    +0.033 A 
ATOM      7  C   UNL     1       0.581  -7.521   3.100  0.00  0.00    +0.113 A 
ATOM      8  C   UNL     1       0.766  -8.912   3.026  0.00  0.00    +0.012 A 
ATOM      9  C   UNL     1       0.338  -9.729   4.101  0.00  0.00    +0.026 A 
ATOM     10  C   UNL     1       0.528 -11.118   4.029  0.00  0.00    +0.012 A 
ATOM     11  C   UNL     1       1.124 -11.661   2.932  0.00  0.00    +0.001 A 
ATOM     12  C   UNL     1       1.550 -10.857   1.876  0.00  0.00    +0.001 A 
ATOM     13  C   UNL     1       1.373  -9.508   1.907  0.00  0.00    +0.010 A 
BRANCH   4  14
ATOM     14  O   UNL     1      -0.696  -9.897   6.260  0.00  0.00    -0.492 OA
BRANCH  14  16
ATOM     15  C   UNL     1      -1.715 -10.239   8.425  0.00  0.00    +0.048 C 
ATOM     16  C   UNL     1      -1.309  -9.219   7.359  0.00  0.00    +0.226 C 
ENDBRANCH  14  16
ENDBRANCH   4  14
ENDBRANCH   1   7
BRANCH   1  17
ATOM     17  N   UNL     1       2.758  -6.624   1.676  0.00  0.00    -0.190 NA
ATOM     18  H   UNL     1       3.166  -6.996   0.879  0.00  0.00    +0.148 HD
BRANCH  17  19
ATOM     19  C   UNL     1       3.599  -6.183   2.792  0.00  0.00    +0.110 C 
BRANCH  19  20
ATOM     20  C   UNL     1       4.998  -6.783   2.645  0.00  0.00    +0.050 C 
BRANCH  20  21
ATOM     21  C   UNL     1       5.899  -6.226   3.717  0.00  0.00    -0.037 C 
ATOM     22  C   UNL     1       5.542  -5.417   4.740  0.00  0.00    -0.001 A 
ATOM     23  C   UNL     1       4.256  -4.835   5.145  0.00  0.00    +0.013 A 
ATOM     24  C   UNL     1       4.211  -4.044   6.241  0.00  0.00    -0.050 A 
ATOM     25  C   UNL     1       5.358  -3.767   6.998  0.00  0.00    +0.005 A 
ATOM     26  C   UNL     1       6.574  -4.266   6.689  0.00  0.00    +0.026 A 
ATOM     27  C   UNL     1       6.737  -5.110   5.556  0.00  0.00    +0.043 A 
ATOM     28  N   UNL     1       7.793  -5.706   5.058  0.00  0.00    -0.378 N 
ATOM     29  C   UNL     1       7.385  -6.465   3.870  0.00  0.00    +0.103 C 
ATOM     30  C   UNL     1       7.661  -7.956   4.072  0.00  0.00    +0.035 C 
ATOM     31  C   UNL     1       2.893  -3.444   6.659  0.00  0.00    +0.044 C 
ATOM     32  H   UNL     1       8.693  -5.657   5.416  0.00  0.00    +0.160 HD
ENDBRANCH  20  21
ENDBRANCH  19  20
ENDBRANCH  17  19
ENDBRANCH   1  17
TORSDOF 7
