REMARK  Name = ZINC25163632
REMARK  9 active torsions:
REMARK  status: ('A' for Active; 'I' for Inactive)
REMARK    1  A    between atoms: C_1  and  C_2
REMARK    2  A    between atoms: C_2  and  O_3
REMARK    3  A    between atoms: O_3  and  C_4
REMARK    4  A    between atoms: C_9  and  C_10
REMARK    5  A    between atoms: C_12  and  C_15
REMARK    6  A    between atoms: C_15  and  C_16
REMARK    7  A    between atoms: C_21  and  C_32
REMARK    8  A    between atoms: C_22  and  C_24
REMARK    9  A    between atoms: N_28  and  C_29
REMARK                            x       y       z     vdW  Elec       q    Type
REMARK                         _______ _______ _______ _____ _____    ______ ____
ROOT
ATOM      1  C   UNL     1       8.479   0.538  -0.075  0.00  0.00    +0.224 C 
ATOM      2  O   UNL     1       8.225  -0.648  -0.078  0.00  0.00    -0.275 OA
ATOM      3  N   UNL     1       7.479   1.441  -0.062  0.00  0.00    -0.264 N 
ATOM      4  C   UNL     1       6.159   1.015  -0.051  0.00  0.00    +0.165 A 
ATOM      5  N   UNL     1       5.688  -0.219  -0.053  0.00  0.00    -0.229 NA
ATOM      6  C   UNL     1       4.397  -0.459  -0.042  0.00  0.00    +0.058 A 
ATOM      7  C   UNL     1       3.540   0.614  -0.028  0.00  0.00    +0.079 A 
ATOM      8  S   UNL     1       4.707   1.967  -0.041  0.00  0.00    -0.049 S 
ATOM      9  C   UNL     1       3.871  -1.871  -0.043  0.00  0.00    +0.067 C 
ATOM     10  H   UNL     1       7.710   2.517  -0.059  0.00  0.00    +0.157 HD
ENDROOT
BRANCH   7  11
ATOM     11  C   UNL     1       2.070   0.642  -0.014  0.00  0.00    +0.153 A 
ATOM     12  N   UNL     1       1.278  -0.411  -0.012  0.00  0.00    -0.235 NA
ATOM     13  C   UNL     1       0.002  -0.004   0.002  0.00  0.00    +0.131 A 
ATOM     14  C   UNL     1      -0.016   1.343   0.009  0.00  0.00    +0.112 A 
ATOM     15  N   UNL     1       1.290   1.764  -0.001  0.00  0.00    -0.273 N 
BRANCH  15  16
ATOM     16  C   UNL     1       1.759   3.152   0.002  0.00  0.00    +0.449 C 
ATOM     17  F   UNL     1       2.545   3.376   1.138  0.00  0.00    -0.185 F 
ATOM     18  F   UNL     1       2.522   3.389  -1.147  0.00  0.00    -0.185 F 
ENDBRANCH  15  16
ENDBRANCH   7  11
BRANCH   1  19
ATOM     19  C   UNL     1       9.913   1.002  -0.087  0.00  0.00    +0.152 C 
BRANCH  19  22
ATOM     20  C   UNL     1      11.511  -2.181   0.838  0.00  0.00    +0.112 A 
ATOM     21  N   UNL     1      10.722  -1.116   0.830  0.00  0.00    -0.243 NA
ATOM     22  C   UNL     1      10.828  -0.196  -0.101  0.00  0.00    +0.058 A 
ATOM     23  C   UNL     1      11.768  -0.323  -1.074  0.00  0.00    +0.071 A 
ATOM     24  S   UNL     1      12.527  -1.872  -0.601  0.00  0.00    -0.075 S 
BRANCH  20  30
ATOM     25  C   UNL     1      12.472  -4.351   1.608  0.00  0.00    +0.130 A 
ATOM     26  C   UNL     1      12.500  -5.407   2.504  0.00  0.00    +0.046 A 
ATOM     27  C   UNL     1      11.611  -5.443   3.561  0.00  0.00    +0.004 A 
ATOM     28  C   UNL     1      10.690  -4.424   3.736  0.00  0.00    +0.001 A 
ATOM     29  C   UNL     1      10.653  -3.363   2.856  0.00  0.00    +0.014 A 
ATOM     30  C   UNL     1      11.546  -3.315   1.784  0.00  0.00    +0.049 A 
BRANCH  25  31
ATOM     31  O   UNL     1      13.342  -4.317   0.566  0.00  0.00    -0.492 OA
BRANCH  31  33
ATOM     32  C   UNL     1      15.150  -5.197  -0.775  0.00  0.00    +0.048 C 
ATOM     33  C   UNL     1      14.257  -5.408   0.449  0.00  0.00    +0.226 C 
ENDBRANCH  31  33
ENDBRANCH  25  31
ENDBRANCH  20  30
ENDBRANCH  19  22
ENDBRANCH   1  19
TORSDOF 7
