REMARK  Name = ZINC37272631
REMARK  3 active torsions:
REMARK  status: ('A' for Active; 'I' for Inactive)
REMARK    1  A    between atoms: C_2  and  N_12
REMARK    2  A    between atoms: N_12  and  C_13
REMARK    3  A    between atoms: C_13  and  C_14
REMARK                            x       y       z     vdW  Elec       q    Type
REMARK                         _______ _______ _______ _____ _____    ______ ____
ROOT
ATOM      1  C   UNL     1      -0.017   1.382   0.010  0.00  0.00    +0.073 A 
ATOM      2  C   UNL     1       1.175   2.093   0.002  0.00  0.00    +0.049 A 
ATOM      3  C   UNL     1       2.387   1.415  -0.013  0.00  0.00    +0.065 A 
ATOM      4  C   UNL     1       2.406   0.032  -0.022  0.00  0.00    +0.071 A 
ATOM      5  C   UNL     1       1.216  -0.681  -0.015  0.00  0.00    +0.164 A 
ATOM      6  C   UNL     1       0.002  -0.004   0.002  0.00  0.00    +0.164 A 
ATOM      7  O   UNL     1      -1.176  -0.687   0.017  0.00  0.00    -0.485 OA
ATOM      8  C   UNL     1      -1.126  -2.065  -0.368  0.00  0.00    +0.270 C 
ATOM      9  C   UNL     1       0.056  -2.724   0.357  0.00  0.00    +0.270 C 
ATOM     10  O   UNL     1       1.255  -2.042  -0.028  0.00  0.00    -0.485 OA
ATOM     11 CL   UNL     1       3.879   2.303  -0.021  0.00  0.00    -0.082 Cl
ENDROOT
BRANCH   2  12
ATOM     12  N   UNL     1       1.156   3.493   0.010  0.00  0.00    -0.342 N 
ATOM     13  H   UNL     1       1.989   3.989   0.004  0.00  0.00    +0.146 HD
BRANCH  12  14
ATOM     14  C   UNL     1      -0.122   4.208   0.026  0.00  0.00    +0.105 C 
BRANCH  14  15
ATOM     15  C   UNL     1       0.136   5.716   0.031  0.00  0.00    +0.013 C 
ATOM     16  C   UNL     1       0.765   6.155   1.376  0.00  0.00    +0.013 C 
ATOM     17  C   UNL     1      -0.282   7.154   1.965  0.00  0.00    +0.012 C 
ATOM     18  C   UNL     1      -0.774   7.858   0.648  0.00  0.00    +0.015 C 
ATOM     19  C   UNL     1      -1.210   6.505  -0.026  0.00  0.00    +0.017 C 
ATOM     20  C   UNL     1      -2.043   5.904   1.114  0.00  0.00    -0.027 C 
ATOM     21  C   UNL     1      -1.496   6.274   2.286  0.00  0.00    -0.027 C 
ENDBRANCH  14  15
ENDBRANCH  12  14
ENDBRANCH   2  12
TORSDOF 3
