REMARK  Name = ZINC05443971
REMARK  8 active torsions:
REMARK  status: ('A' for Active; 'I' for Inactive)
REMARK    1  A    between atoms: C_1  and  C_2
REMARK    2  A    between atoms: C_2  and  C_5
REMARK    3  A    between atoms: N_3  and  O_4
REMARK    4  A    between atoms: C_11  and  C_32
REMARK    5  A    between atoms: C_21  and  C_31
REMARK    6  A    between atoms: C_24  and  O_27
REMARK    7  A    between atoms: O_27  and  C_28
REMARK    8  A    between atoms: C_28  and  C_30
REMARK                            x       y       z     vdW  Elec       q    Type
REMARK                         _______ _______ _______ _____ _____    ______ ____
ROOT
ATOM      1  C   UNL     1      -0.084  -0.001   2.818  0.00  0.00    +0.043 C 
ATOM      2  C   UNL     1       0.716   0.600   3.991  0.00  0.00    +0.010 C 
ATOM      3  C   UNL     1       2.199   0.593   3.559  0.00  0.00    +0.005 C 
ATOM      4  C   UNL     1       2.117   0.617   2.011  0.00  0.00    -0.001 C 
ATOM      5  C   UNL     1       0.949  -0.349   1.739  0.00  0.00    -0.021 C 
ATOM      6  C   UNL     1       0.391  -0.226   0.339  0.00  0.00    +0.008 C 
ATOM      7  C   UNL     1       0.037   1.224   0.010  0.00  0.00    +0.005 C 
ATOM      8  C   UNL     1       1.308   2.071   0.137  0.00  0.00    +0.003 C 
ATOM      9  C   UNL     1       1.742   2.044   1.604  0.00  0.00    +0.000 C 
ATOM     10  C   UNL     1       0.606   2.545   2.502  0.00  0.00    +0.031 C 
ATOM     11  C   UNL     1       0.264   3.928   2.018  0.00  0.00    -0.027 C 
ATOM     12  C   UNL     1       0.425   4.337   0.793  0.00  0.00    -0.064 C 
ATOM     13  C   UNL     1       1.024   3.499  -0.298  0.00  0.00    -0.008 C 
ATOM     14  C   UNL     1       0.087   3.500  -1.509  0.00  0.00    +0.015 C 
ATOM     15  C   UNL     1      -0.210   4.943  -1.921  0.00  0.00    +0.046 C 
ATOM     16  C   UNL     1      -0.940   5.664  -0.786  0.00  0.00    +0.180 C 
ATOM     17  C   UNL     1      -0.025   5.744   0.440  0.00  0.00    +0.075 C 
ATOM     18  C   UNL     1       2.344   4.142  -0.728  0.00  0.00    +0.016 C 
ATOM     19  C   UNL     1       1.431  -1.785   1.958  0.00  0.00    +0.012 C 
ENDROOT
BRANCH   1  21
ATOM     20  C   UNL     1      -0.279  -2.048   4.426  0.00  0.00    +0.064 C 
ATOM     21  C   UNL     1      -0.808  -1.245   3.265  0.00  0.00    +0.058 C 
ATOM     22  N   UNL     1      -1.871  -1.619   2.660  0.00  0.00    -0.097 NA
BRANCH  22  23
ATOM     23  O   UNL     1      -2.283  -0.958   1.478  0.00  0.00    -0.409 OA
ATOM     24  H   UNL     1      -3.135  -1.260   1.135  0.00  0.00    +0.328 HD
ENDBRANCH  22  23
ENDBRANCH   1  21
BRANCH  16  25
ATOM     25  O   UNL     1      -1.295   7.005  -1.214  0.00  0.00    -0.461 OA
BRANCH  25  26
ATOM     26  C   UNL     1      -2.401   7.543  -0.676  0.00  0.00    +0.304 C 
ATOM     27  O   UNL     1      -3.051   6.915   0.124  0.00  0.00    -0.251 OA
ATOM     28  C   UNL     1      -2.832   8.932  -1.073  0.00  0.00    +0.136 C 
ENDBRANCH  25  26
ENDBRANCH  16  25
TORSDOF 4
