REMARK  Name = ZINC21915511
REMARK  9 active torsions:
REMARK  status: ('A' for Active; 'I' for Inactive)
REMARK    1  A    between atoms: C_1  and  C_2
REMARK    2  A    between atoms: C_2  and  N_3
REMARK    3  A    between atoms: N_3  and  C_4
REMARK    4  A    between atoms: N_3  and  C_29
REMARK    5  A    between atoms: C_4  and  C_5
REMARK    6  A    between atoms: C_5  and  N_6
REMARK    7  A    between atoms: C_7  and  C_9
REMARK    8  A    between atoms: N_20  and  C_23
REMARK    9  A    between atoms: C_29  and  C_30
REMARK                            x       y       z     vdW  Elec       q    Type
REMARK                         _______ _______ _______ _____ _____    ______ ____
ROOT
ATOM      1  C   UNL     1      -1.817  -3.398   0.430  0.00  0.00    +0.053 A 
ATOM      2  C   UNL     1      -2.348  -3.774   1.691  0.00  0.00    +0.013 A 
ATOM      3  C   UNL     1      -1.717  -3.406   2.885  0.00  0.00    +0.011 A 
ATOM      4  C   UNL     1      -2.256  -3.785   4.078  0.00  0.00    +0.001 A 
ATOM      5  C   UNL     1      -3.429  -4.536   4.125  0.00  0.00    +0.002 A 
ATOM      6  C   UNL     1      -4.069  -4.912   2.986  0.00  0.00    +0.028 A 
ATOM      7  C   UNL     1      -3.543  -4.539   1.732  0.00  0.00    +0.073 A 
ATOM      8  N   UNL     1      -4.151  -4.896   0.604  0.00  0.00    -0.242 NA
ATOM      9  C   UNL     1      -3.679  -4.560  -0.584  0.00  0.00    +0.132 A 
ATOM     10  C   UNL     1      -2.505  -3.798  -0.701  0.00  0.00    +0.013 A 
ATOM     11  C   UNL     1      -2.261  -3.608  -2.176  0.00  0.00    +0.146 C 
ATOM     12  N   UNL     1      -3.360  -4.291  -2.867  0.00  0.00    -0.289 N 
ATOM     13  C   UNL     1      -4.177  -4.840  -1.952  0.00  0.00    +0.266 C 
ATOM     14  O   UNL     1      -5.180  -5.474  -2.210  0.00  0.00    -0.268 OA
ENDROOT
BRANCH  12  15
ATOM     15  C   UNL     1      -3.538  -4.364  -4.319  0.00  0.00    +0.077 C 
ATOM     16  C   UNL     1      -4.874  -3.724  -4.702  0.00  0.00    +0.022 C 
ATOM     17  C   UNL     1      -5.060  -3.800  -6.218  0.00  0.00    +0.002 C 
ATOM     18  C   UNL     1      -5.050  -5.265  -6.661  0.00  0.00    +0.000 C 
ATOM     19  C   UNL     1      -3.714  -5.904  -6.279  0.00  0.00    +0.002 C 
ATOM     20  C   UNL     1      -3.528  -5.828  -4.762  0.00  0.00    +0.022 C 
ENDBRANCH  12  15
BRANCH   1  22
ATOM     21  N   UNL     1      -0.638  -1.256   0.310  0.00  0.00    -0.313 N 
ATOM     22  C   UNL     1      -0.576  -2.602   0.328  0.00  0.00    +0.245 C 
ATOM     23  O   UNL     1       0.501  -3.161   0.261  0.00  0.00    -0.270 OA
ATOM     24  H   UNL     1      -1.613  -0.749   0.371  0.00  0.00    +0.149 HD
BRANCH  21  25
ATOM     25  C   UNL     1       0.592  -0.466   0.210  0.00  0.00    +0.086 C 
BRANCH  25  26
ATOM     26  C   UNL     1       0.243   1.024   0.210  0.00  0.00    -0.059 C 
BRANCH  26  27
ATOM     27  N   UNL     1       1.477   1.815   0.110  0.00  0.00    +0.383 N 
ATOM     28  H   UNL     1       2.166   1.468   0.893  0.00  0.00    -0.081 HD
BRANCH  27  30
ATOM     29  C   UNL     1       3.576   2.101  -1.118  0.00  0.00    -0.017 C 
ATOM     30  C   UNL     1       2.130   1.609  -1.190  0.00  0.00    -0.082 C 
ENDBRANCH  27  30
BRANCH  27  31
ATOM     31  C   UNL     1       1.208   3.240   0.344  0.00  0.00    -0.043 C 
BRANCH  31  32
ATOM     32  C   UNL     1       0.997   3.476   1.817  0.00  0.00    -0.064 A 
ATOM     33  C   UNL     1      -0.284   3.512   2.334  0.00  0.00    +0.002 A 
ATOM     34  C   UNL     1      -0.478   3.723   3.687  0.00  0.00    +0.000 A 
ATOM     35  C   UNL     1       0.609   3.909   4.520  0.00  0.00    +0.000 A 
ATOM     36  C   UNL     1       1.890   3.878   4.002  0.00  0.00    +0.000 A 
ATOM     37  C   UNL     1       2.084   3.662   2.651  0.00  0.00    +0.002 A 
ENDBRANCH  31  32
ENDBRANCH  27  31
ENDBRANCH  26  27
ENDBRANCH  25  26
ENDBRANCH  21  25
ENDBRANCH   1  22
TORSDOF 8
