REMARK  Name = ZINC12698138
REMARK  5 active torsions:
REMARK  status: ('A' for Active; 'I' for Inactive)
REMARK    1  A    between atoms: C_2  and  C_3
REMARK    2  A    between atoms: C_3  and  N_4
REMARK    3  A    between atoms: C_10  and  C_17
REMARK    4  A    between atoms: N_19  and  N_20
REMARK    5  A    between atoms: C_21  and  C_23
REMARK                            x       y       z     vdW  Elec       q    Type
REMARK                         _______ _______ _______ _____ _____    ______ ____
ROOT
ATOM      1  C   UNL     1      -1.024  -6.398  -5.545  0.00  0.00    +0.260 C 
ATOM      2  O   UNL     1      -1.491  -5.990  -6.591  0.00  0.00    -0.269 OA
ATOM      3  N   UNL     1      -0.553  -7.658  -5.464  0.00  0.00    -0.230 N 
ATOM      4  H   UNL     1      -0.180  -7.984  -4.630  0.00  0.00    +0.173 HD
ENDROOT
BRANCH   1  11
ATOM      5  N   UNL     1      -1.318  -1.700  -1.126  0.00  0.00    -0.284 N 
ATOM      6  C   UNL     1      -0.829  -2.950  -0.974  0.00  0.00    +0.263 A 
ATOM      7  O   UNL     1      -0.370  -3.314   0.091  0.00  0.00    -0.267 OA
ATOM      8  C   UNL     1      -0.866  -3.861  -2.135  0.00  0.00    +0.063 A 
ATOM      9  C   UNL     1      -0.381  -5.165  -2.054  0.00  0.00    +0.016 A 
ATOM     10  C   UNL     1      -0.433  -5.982  -3.161  0.00  0.00    +0.014 A 
ATOM     11  C   UNL     1      -0.972  -5.510  -4.362  0.00  0.00    +0.040 A 
ATOM     12  C   UNL     1      -1.459  -4.208  -4.449  0.00  0.00    +0.039 A 
ATOM     13  C   UNL     1      -1.408  -3.381  -3.339  0.00  0.00    +0.054 A 
ATOM     14  N   UNL     1      -1.883  -2.078  -3.385  0.00  0.00    -0.335 N 
ATOM     15  H   UNL     1      -2.260  -1.733  -4.209  0.00  0.00    +0.168 HD
ATOM     16  C   UNL     1      -1.831  -1.290  -2.297  0.00  0.00    +0.161 A 
ATOM     17  S   UNL     1      -2.438   0.306  -2.411  0.00  0.00    -0.013 S 
BRANCH   5  18
ATOM     18  C   UNL     1      -1.293  -0.775   0.010  0.00  0.00    +0.154 C 
BRANCH  18  20
ATOM     19  C   UNL     1      -0.016   1.306   0.009  0.00  0.00    +0.005 C 
ATOM     20  C   UNL     1       0.002  -0.004   0.002  0.00  0.00    -0.013 C 
ENDBRANCH  18  20
ENDBRANCH   5  18
ENDBRANCH   1  11
BRANCH   3  21
ATOM     21  N   UNL     1      -0.603  -8.498  -6.584  0.00  0.00    -0.230 N 
ATOM     22  C   UNL     1      -0.132  -9.758  -6.503  0.00  0.00    +0.267 C 
ATOM     23  O   UNL     1       0.336 -10.167  -5.456  0.00  0.00    -0.268 OA
ATOM     24  H   UNL     1      -0.975  -8.172  -7.418  0.00  0.00    +0.173 HD
BRANCH  22  25
ATOM     25  C   UNL     1      -0.183 -10.637  -7.675  0.00  0.00    +0.076 A 
ATOM     26  C   UNL     1       0.238 -11.942  -7.804  0.00  0.00    +0.024 A 
ATOM     27  C   UNL     1       0.066 -12.575  -9.038  0.00  0.00    -0.036 A 
ATOM     28  C   UNL     1      -0.453 -11.836 -10.039  0.00  0.00    -0.006 A 
ATOM     29  S   UNL     1      -0.815 -10.303  -9.307  0.00  0.00    -0.088 S 
ATOM     30  C   UNL     1      -0.661 -12.104 -11.506  0.00  0.00    +0.043 C 
ATOM     31  C   UNL     1      -0.165 -13.489 -11.920  0.00  0.00    +0.005 C 
ATOM     32  C   UNL     1      -1.180 -14.559 -11.550  0.00  0.00    +0.000 C 
ATOM     33  C   UNL     1      -1.859 -14.288 -10.223  0.00  0.00    +0.000 C 
ATOM     34  C   UNL     1      -0.941 -14.839  -9.128  0.00  0.00    +0.005 C 
ATOM     35  C   UNL     1       0.375 -14.062  -9.147  0.00  0.00    +0.036 C 
ENDBRANCH  22  25
ENDBRANCH   3  21
TORSDOF 5
