REMARK  Name = ZINC63303124
REMARK  8 active torsions:
REMARK  status: ('A' for Active; 'I' for Inactive)
REMARK    1  A    between atoms: C_1  and  O_2
REMARK    2  A    between atoms: O_2  and  C_3
REMARK    3  A    between atoms: C_3  and  C_5
REMARK    4  A    between atoms: C_5  and  C_7
REMARK    5  A    between atoms: C_5  and  N_17
REMARK    6  A    between atoms: C_7  and  C_8
REMARK    7  A    between atoms: C_18  and  C_20
REMARK    8  A    between atoms: N_25  and  C_27
REMARK                            x       y       z     vdW  Elec       q    Type
REMARK                         _______ _______ _______ _____ _____    ______ ____
ROOT
ATOM      1  N   UNL     1      -2.640  -2.556   0.018  0.00  0.00    -0.302 N 
ATOM      2  C   UNL     1      -3.304  -2.661   1.187  0.00  0.00    +0.219 C 
ATOM      3  O   UNL     1      -2.746  -2.386   2.228  0.00  0.00    -0.275 OA
ATOM      4  H   UNL     1      -3.087  -2.776  -0.814  0.00  0.00    +0.150 HD
ENDROOT
BRANCH   2   5
ATOM      5  C   UNL     1      -4.739  -3.120   1.200  0.00  0.00    +0.101 C 
ATOM      6  C   UNL     1      -5.651  -2.106   0.471  0.00  0.00    +0.110 C 
ATOM      7  C   UNL     1      -6.929  -2.108   1.280  0.00  0.00    +0.221 C 
ATOM      8  O   UNL     1      -7.994  -1.669   0.899  0.00  0.00    -0.275 OA
ATOM      9  N   UNL     1      -6.714  -2.669   2.483  0.00  0.00    -0.271 N 
ATOM     10  C   UNL     1      -5.316  -3.091   2.633  0.00  0.00    +0.127 C 
BRANCH   9  11
ATOM     11  C   UNL     1      -7.697  -2.831   3.466  0.00  0.00    +0.036 A 
ATOM     12  C   UNL     1      -8.966  -2.300   3.275  0.00  0.00    +0.025 A 
ATOM     13  C   UNL     1      -9.935  -2.462   4.246  0.00  0.00    +0.022 A 
ATOM     14  C   UNL     1      -9.641  -3.152   5.409  0.00  0.00    +0.041 A 
ATOM     15  C   UNL     1      -8.378  -3.682   5.602  0.00  0.00    +0.022 A 
ATOM     16  C   UNL     1      -7.407  -3.529   4.631  0.00  0.00    +0.025 A 
ATOM     17 CL   UNL     1     -10.861  -3.353   6.628  0.00  0.00    -0.084 Cl
ENDBRANCH   9  11
ENDBRANCH   2   5
BRANCH   1  18
ATOM     18  C   UNL     1      -1.245  -2.110   0.005  0.00  0.00    +0.186 C 
BRANCH  18  19
ATOM     19  C   UNL     1      -1.199  -0.604   0.000  0.00  0.00    +0.328 C 
ATOM     20  O   UNL     1      -2.227   0.032   0.007  0.00  0.00    -0.249 OA
BRANCH  19  22
ATOM     21  C   UNL     1      -0.049   1.460  -0.016  0.00  0.00    +0.280 C 
ATOM     22  O   UNL     1      -0.017   0.032  -0.011  0.00  0.00    -0.467 OA
ENDBRANCH  19  22
ENDBRANCH  18  19
BRANCH  18  23
ATOM     23  C   UNL     1      -0.550  -2.646  -1.248  0.00  0.00    +0.067 C 
BRANCH  23  24
ATOM     24  C   UNL     1      -0.487  -4.150  -1.183  0.00  0.00    -0.039 C 
ATOM     25  C   UNL     1      -1.357  -5.025  -1.737  0.00  0.00    -0.001 A 
ATOM     26  C   UNL     1      -2.576  -4.845  -2.535  0.00  0.00    +0.010 A 
ATOM     27  C   UNL     1      -3.251  -5.938  -2.958  0.00  0.00    +0.001 A 
ATOM     28  C   UNL     1      -2.816  -7.236  -2.654  0.00  0.00    +0.002 A 
ATOM     29  C   UNL     1      -1.706  -7.481  -1.926  0.00  0.00    +0.026 A 
ATOM     30  C   UNL     1      -0.919  -6.405  -1.431  0.00  0.00    +0.043 A 
ATOM     31  N   UNL     1       0.179  -6.385  -0.714  0.00  0.00    -0.380 N 
ATOM     32  C   UNL     1       0.566  -4.987  -0.491  0.00  0.00    +0.144 C 
ATOM     33  H   UNL     1       0.658  -7.163  -0.390  0.00  0.00    +0.160 HD
ENDBRANCH  23  24
ENDBRANCH  18  23
ENDBRANCH   1  18
TORSDOF 7
