REMARK  Name = ZINC04576695
REMARK  8 active torsions:
REMARK  status: ('A' for Active; 'I' for Inactive)
REMARK    1  A    between atoms: C_4  and  N_7
REMARK    2  A    between atoms: N_7  and  C_8
REMARK    3  A    between atoms: N_7  and  S_18
REMARK    4  A    between atoms: C_8  and  C_9
REMARK    5  A    between atoms: C_9  and  C_11
REMARK    6  A    between atoms: C_9  and  O_17
REMARK    7  A    between atoms: C_11  and  N_58
REMARK    8  A    between atoms: S_18  and  C_21
REMARK                            x       y       z     vdW  Elec       q    Type
REMARK                         _______ _______ _______ _____ _____    ______ ____
ROOT
ATOM      1  N   UNL     1      -0.780   1.583  -3.650  0.00  0.00    -0.201 N 
ENDROOT
BRANCH   1   5
ATOM      2  C   UNL     1       0.714   4.782  -5.858  0.00  0.00    +0.000 A 
ATOM      3  C   UNL     1      -0.029   3.798  -6.484  0.00  0.00    +0.002 A 
ATOM      4  C   UNL     1      -0.526   2.736  -5.755  0.00  0.00    +0.025 A 
ATOM      5  C   UNL     1      -0.278   2.656  -4.391  0.00  0.00    +0.051 A 
ATOM      6  C   UNL     1       0.464   3.648  -3.763  0.00  0.00    +0.025 A 
ATOM      7  C   UNL     1       0.963   4.705  -4.500  0.00  0.00    +0.002 A 
ENDBRANCH   1   5
BRANCH   1   8
ATOM      8  S   UNL     1      -2.142   0.790  -4.159  0.00  0.00    +0.075 S 
ATOM      9  O   UNL     1      -2.782   0.293  -2.992  0.00  0.00    -0.150 OA
ATOM     10  O   UNL     1      -2.796   1.655  -5.078  0.00  0.00    -0.150 OA
BRANCH   8  11
ATOM     11  C   UNL     1      -1.612  -0.616  -5.080  0.00  0.00    +0.109 A 
ATOM     12  C   UNL     1      -1.364  -0.488  -6.446  0.00  0.00    +0.029 A 
ATOM     13  C   UNL     1      -0.949  -1.552  -7.185  0.00  0.00    +0.010 A 
ATOM     14  C   UNL     1      -0.777  -2.803  -6.568  0.00  0.00    -0.018 A 
ATOM     15  C   UNL     1      -0.357  -3.927  -7.300  0.00  0.00    +0.008 A 
ATOM     16  C   UNL     1      -0.201  -5.122  -6.668  0.00  0.00    +0.001 A 
ATOM     17  C   UNL     1      -0.454  -5.251  -5.304  0.00  0.00    +0.001 A 
ATOM     18  C   UNL     1      -0.863  -4.185  -4.563  0.00  0.00    +0.008 A 
ATOM     19  C   UNL     1      -1.034  -2.934  -5.180  0.00  0.00    -0.016 A 
ATOM     20  C   UNL     1      -1.456  -1.811  -4.449  0.00  0.00    +0.037 A 
ENDBRANCH   8  11
ENDBRANCH   1   8
BRANCH   1  21
ATOM     21  C   UNL     1      -0.101   1.159  -2.423  0.00  0.00    +0.161 C 
BRANCH  21  22
ATOM     22  C   UNL     1      -0.596   2.006  -1.248  0.00  0.00    +0.117 C 
BRANCH  22  23
ATOM     23  O   UNL     1      -1.978   1.732  -1.012  0.00  0.00    -0.392 OA
ATOM     24  H   UNL     1      -2.174   0.797  -0.866  0.00  0.00    +0.210 HD
ENDBRANCH  22  23
BRANCH  22  25
ATOM     25  C   UNL     1       0.213   1.663   0.004  0.00  0.00    -0.046 C 
BRANCH  25  31
ATOM     26  C   UNL     1       0.018   3.900   0.908  0.00  0.00    -0.079 C 
ATOM     27  C   UNL     1      -0.617   4.728   2.029  0.00  0.00    -0.019 C 
ATOM     28  C   UNL     1      -0.042   4.281   3.375  0.00  0.00    -0.004 C 
ATOM     29  C   UNL     1      -0.304   2.784   3.562  0.00  0.00    -0.019 C 
ATOM     30  C   UNL     1       0.322   2.013   2.397  0.00  0.00    -0.079 C 
ATOM     31  N   UNL     1      -0.291   2.472   1.133  0.00  0.00    +0.381 N 
ATOM     32  H   UNL     1      -1.310   2.358   1.196  0.00  0.00    -0.082 HD
ENDBRANCH  25  31
ENDBRANCH  22  25
ENDBRANCH  21  22
ENDBRANCH   1  21
TORSDOF 8
