REMARK  Name = ZINC04748408
REMARK  4 active torsions:
REMARK  status: ('A' for Active; 'I' for Inactive)
REMARK    1  A    between atoms: C_1  and  C_2
REMARK    2  A    between atoms: C_5  and  C_8
REMARK    3  A    between atoms: N_12  and  N_13
REMARK    4  A    between atoms: C_14  and  C_15
REMARK                            x       y       z     vdW  Elec       q    Type
REMARK                         _______ _______ _______ _____ _____    ______ ____
ROOT
ATOM      1  C   UNL     1       0.058  -4.252  -0.021  0.00  0.00    +0.055 A 
ATOM      2  C   UNL     1       0.077  -4.937   1.142  0.00  0.00    +0.075 A 
ATOM      3  S   UNL     1       0.094  -6.631   0.577  0.00  0.00    -0.056 S 
ATOM      4  C   UNL     1       0.074  -6.306  -1.179  0.00  0.00    +0.192 A 
ATOM      5  N   UNL     1       0.076  -7.163  -2.189  0.00  0.00    -0.124 NA
ATOM      6  N   UNL     1       0.050  -4.932  -1.206  0.00  0.00    -0.332 N 
ATOM      7  H   UNL     1       0.032  -4.455  -2.050  0.00  0.00    +0.168 HD
ENDROOT
BRANCH   1  12
ATOM      8  C   UNL     1      -0.018   1.503   0.010  0.00  0.00    +0.044 C 
ATOM      9  C   UNL     1       0.002  -0.004   0.002  0.00  0.00    -0.050 A 
ATOM     10  C   UNL     1      -0.006  -0.686  -1.202  0.00  0.00    +0.004 A 
ATOM     11  C   UNL     1       0.018  -2.066  -1.216  0.00  0.00    +0.010 A 
ATOM     12  C   UNL     1       0.039  -2.773  -0.013  0.00  0.00    -0.001 A 
ATOM     13  C   UNL     1       0.041  -2.079   1.198  0.00  0.00    +0.010 A 
ATOM     14  C   UNL     1       0.023  -0.699   1.198  0.00  0.00    +0.004 A 
ENDBRANCH   1  12
BRANCH   5  15
ATOM     15  N   UNL     1       0.094  -8.432  -1.958  0.00  0.00    -0.155 NA
ATOM     16  C   UNL     1       0.096  -9.277  -2.955  0.00  0.00    +0.143 C 
BRANCH  16  17
ATOM     17  C   UNL     1       0.117 -10.724  -2.692  0.00  0.00    -0.005 A 
ATOM     18  C   UNL     1       0.141 -11.199  -1.376  0.00  0.00    +0.010 A 
ATOM     19  C   UNL     1       0.155 -12.557  -1.137  0.00  0.00    +0.016 A 
ATOM     20  C   UNL     1       0.157 -13.450  -2.195  0.00  0.00    +0.018 A 
ATOM     21  C   UNL     1       0.139 -12.987  -3.501  0.00  0.00    +0.016 A 
ATOM     22  C   UNL     1       0.119 -11.633  -3.756  0.00  0.00    +0.010 A 
ATOM     23 BR   UNL     1       0.185 -15.310  -1.857  0.00  0.00    -0.050 Br
ENDBRANCH  16  17
ENDBRANCH   5  15
TORSDOF 3
