REMARK  Name = ZINC23352602
REMARK  8 active torsions:
REMARK  status: ('A' for Active; 'I' for Inactive)
REMARK    1  A    between atoms: C_1  and  C_2
REMARK    2  A    between atoms: C_12  and  C_14
REMARK    3  A    between atoms: N_21  and  C_22
REMARK    4  A    between atoms: C_22  and  C_24
REMARK    5  A    between atoms: C_24  and  N_25
REMARK    6  A    between atoms: N_28  and  C_31
REMARK    7  A    between atoms: C_31  and  C_32
REMARK    8  A    between atoms: C_32  and  C_33
REMARK                            x       y       z     vdW  Elec       q    Type
REMARK                         _______ _______ _______ _____ _____    ______ ____
ROOT
ATOM      1  C   UNL     1       0.613   2.516   2.182  0.00  0.00    +0.062 C 
ATOM      2  C   UNL     1       1.052   1.598   1.070  0.00  0.00    +0.031 C 
ATOM      3  N   UNL     1       1.747   2.072   0.117  0.00  0.00    -0.254 NA
ATOM      4  C   UNL     1       2.201   1.386  -0.970  0.00  0.00    +0.085 A 
ATOM      5  C   UNL     1       2.121   2.037  -2.211  0.00  0.00    +0.029 A 
ATOM      6  C   UNL     1       2.563   1.418  -3.357  0.00  0.00    +0.002 A 
ATOM      7  C   UNL     1       3.092   0.140  -3.293  0.00  0.00    +0.002 A 
ATOM      8  C   UNL     1       3.175  -0.513  -2.083  0.00  0.00    +0.025 A 
ATOM      9  C   UNL     1       2.729   0.099  -0.909  0.00  0.00    +0.058 A 
ATOM     10  N   UNL     1       2.838  -0.635   0.263  0.00  0.00    -0.302 N 
ATOM     11  C   UNL     1       1.911  -0.681   1.225  0.00  0.00    +0.105 C 
ATOM     12  C   UNL     1       0.659   0.145   1.123  0.00  0.00    +0.124 C 
ATOM     13  N   UNL     1       2.096  -1.454   2.272  0.00  0.00    -0.168 NA
ATOM     14  H   UNL     1       3.647  -1.154   0.395  0.00  0.00    +0.153 HD
ENDROOT
BRANCH  12  15
ATOM     15  C   UNL     1      -0.090  -0.226  -0.130  0.00  0.00    -0.032 A 
ATOM     16  C   UNL     1      -0.095  -1.536  -0.570  0.00  0.00    +0.007 A 
ATOM     17  C   UNL     1      -0.783  -1.878  -1.719  0.00  0.00    +0.038 A 
ATOM     18  C   UNL     1      -1.467  -0.907  -2.430  0.00  0.00    +0.123 A 
ATOM     19  C   UNL     1      -1.462   0.406  -1.988  0.00  0.00    +0.038 A 
ATOM     20  C   UNL     1      -0.777   0.744  -0.836  0.00  0.00    +0.007 A 
ATOM     21  F   UNL     1      -2.139  -1.240  -3.553  0.00  0.00    -0.205 F 
ENDBRANCH  12  15
BRANCH  13  22
ATOM     22  C   UNL     1       3.145  -2.284   2.313  0.00  0.00    +0.252 C 
ATOM     23  O   UNL     1       3.343  -3.058   1.399  0.00  0.00    -0.272 OA
BRANCH  22  24
ATOM     24  C   UNL     1       4.081  -2.257   3.494  0.00  0.00    +0.182 C 
BRANCH  24  25
ATOM     25  N   UNL     1       5.142  -3.254   3.301  0.00  0.00    -0.298 NA
ATOM     26  C   UNL     1       6.006  -2.891   2.169  0.00  0.00    +0.066 C 
ATOM     27  C   UNL     1       7.059  -3.983   1.964  0.00  0.00    -0.063 C 
ATOM     28  N   UNL     1       7.860  -4.126   3.187  0.00  0.00    +0.382 N 
ATOM     29  C   UNL     1       6.987  -4.513   4.303  0.00  0.00    -0.063 C 
ATOM     30  C   UNL     1       5.933  -3.426   4.527  0.00  0.00    +0.066 C 
ATOM     31  H   UNL     1       8.309  -3.248   3.400  0.00  0.00    -0.082 HD
BRANCH  28  32
ATOM     32  C   UNL     1       8.882  -5.161   2.984  0.00  0.00    -0.074 C 
BRANCH  32  33
ATOM     33  C   UNL     1       9.795  -5.225   4.210  0.00  0.00    +0.016 C 
BRANCH  33  34
ATOM     34  C   UNL     1      10.843  -6.287   4.002  0.00  0.00    -0.049 A 
ATOM     35  C   UNL     1      10.598  -7.588   4.398  0.00  0.00    +0.003 A 
ATOM     36  C   UNL     1      11.560  -8.562   4.207  0.00  0.00    +0.000 A 
ATOM     37  C   UNL     1      12.767  -8.235   3.619  0.00  0.00    +0.000 A 
ATOM     38  C   UNL     1      13.013  -6.934   3.221  0.00  0.00    +0.000 A 
ATOM     39  C   UNL     1      12.049  -5.960   3.409  0.00  0.00    +0.003 A 
ENDBRANCH  33  34
ENDBRANCH  32  33
ENDBRANCH  28  32
ENDBRANCH  24  25
ENDBRANCH  22  24
ENDBRANCH  13  22
TORSDOF 7
