REMARK  Name = ZINC66628014
REMARK  10 active torsions:
REMARK  status: ('A' for Active; 'I' for Inactive)
REMARK    1  A    between atoms: C_1  and  C_2
REMARK    2  A    between atoms: C_2  and  C_4
REMARK    3  A    between atoms: C_2  and  N_21
REMARK    4  A    between atoms: C_4  and  C_5
REMARK    5  A    between atoms: C_14  and  O_16
REMARK    6  A    between atoms: O_16  and  C_17
REMARK    7  A    between atoms: C_17  and  C_18
REMARK    8  A    between atoms: C_17  and  C_19
REMARK    9  A    between atoms: C_17  and  C_20
REMARK   10  A    between atoms: C_22  and  C_24
REMARK                            x       y       z     vdW  Elec       q    Type
REMARK                         _______ _______ _______ _____ _____    ______ ____
ROOT
ATOM      1  C   UNL     1       0.657  -2.014   1.298  0.00  0.00    +0.217 C 
ATOM      2  O   UNL     1       0.062  -2.621   0.432  0.00  0.00    -0.276 OA
ATOM      3  N   UNL     1       1.241  -2.685   2.311  0.00  0.00    -0.300 N 
ATOM      4  C   UNL     1       1.132  -4.144   2.313  0.00  0.00    +0.109 C 
ATOM      5  C   UNL     1       2.406  -4.710   1.718  0.00  0.00    +0.038 C 
ATOM      6  C   UNL     1       3.475  -4.870   2.803  0.00  0.00    +0.112 C 
ATOM      7  N   UNL     1       3.509  -3.734   3.735  0.00  0.00    -0.266 N 
ATOM      8  C   UNL     1       3.415  -2.349   3.307  0.00  0.00    +0.130 C 
ATOM      9  C   UNL     1       1.924  -1.927   3.299  0.00  0.00    +0.127 C 
ATOM     10  C   UNL     1       3.632  -3.990   5.053  0.00  0.00    +0.403 C 
ATOM     11  O   UNL     1       3.712  -5.137   5.444  0.00  0.00    -0.226 OA
ENDROOT
BRANCH   1  12
ATOM     12  C   UNL     1       0.742  -0.511   1.242  0.00  0.00    +0.118 C 
BRANCH  12  14
ATOM     13  C   UNL     1      -0.019   1.526   0.010  0.00  0.00    +0.028 C 
ATOM     14  C   UNL     1       0.002  -0.004   0.002  0.00  0.00    +0.079 C 
BRANCH  14  15
ATOM     15  N   UNL     1       0.688  -0.476  -1.203  0.00  0.00    -0.312 N 
ATOM     16  C   UNL     1       0.006  -0.608  -2.358  0.00  0.00    +0.216 C 
ATOM     17  O   UNL     1      -1.175  -0.336  -2.400  0.00  0.00    -0.276 OA
ATOM     18  H   UNL     1       1.632  -0.695  -1.170  0.00  0.00    +0.149 HD
BRANCH  16  19
ATOM     19  C   UNL     1       0.712  -1.094  -3.598  0.00  0.00    +0.075 C 
ATOM     20  C   UNL     1       1.849  -0.133  -3.948  0.00  0.00    +0.013 C 
ATOM     21  C   UNL     1       2.565  -0.626  -5.207  0.00  0.00    +0.001 C 
ATOM     22  C   UNL     1       1.572  -0.685  -6.369  0.00  0.00    +0.000 C 
ATOM     23  C   UNL     1       0.434  -1.646  -6.019  0.00  0.00    +0.001 C 
ATOM     24  C   UNL     1      -0.282  -1.153  -4.761  0.00  0.00    +0.013 C 
ENDBRANCH  16  19
ENDBRANCH  14  15
ENDBRANCH  12  14
ENDBRANCH   1  12
BRANCH  10  25
ATOM     25  O   UNL     1       3.667  -2.974   5.935  0.00  0.00    -0.445 OA
BRANCH  25  26
ATOM     26  C   UNL     1       3.799  -3.318   7.316  0.00  0.00    +0.107 C 
ATOM     27  C   UNL     1       5.103  -4.089   7.526  0.00  0.00    +0.055 C 
ATOM     28  C   UNL     1       3.820  -2.042   8.160  0.00  0.00    +0.055 C 
ATOM     29  C   UNL     1       2.616  -4.191   7.740  0.00  0.00    +0.055 C 
ENDBRANCH  25  26
ENDBRANCH  10  25
TORSDOF 6
