REMARK  Name = ZINC34727363
REMARK  7 active torsions:
REMARK  status: ('A' for Active; 'I' for Inactive)
REMARK    1  A    between atoms: C_1  and  C_2
REMARK    2  A    between atoms: C_2  and  C_3
REMARK    3  A    between atoms: C_3  and  C_4
REMARK    4  A    between atoms: C_4  and  N_5
REMARK    5  A    between atoms: N_17  and  C_20
REMARK    6  A    between atoms: C_20  and  C_21
REMARK    7  A    between atoms: C_21  and  C_22
REMARK                            x       y       z     vdW  Elec       q    Type
REMARK                         _______ _______ _______ _____ _____    ______ ____
ROOT
ATOM      1  N   UNL     1       1.425  -2.500  -2.470  0.00  0.00    -0.287 N 
ATOM      2  C   UNL     1       0.706  -2.724  -3.617  0.00  0.00    +0.097 A 
ATOM      3  C   UNL     1       1.329  -3.174  -4.779  0.00  0.00    +0.074 A 
ATOM      4  C   UNL     1       0.447  -3.373  -5.930  0.00  0.00    -0.023 A 
ATOM      5  C   UNL     1      -0.851  -3.092  -5.704  0.00  0.00    -0.004 A 
ATOM      6  S   UNL     1      -0.911  -2.577  -4.012  0.00  0.00    -0.075 S 
ATOM      7  C   UNL     1      -1.980  -3.199  -6.683  0.00  0.00    +0.043 C 
ATOM      8  C   UNL     1      -1.384  -3.317  -8.093  0.00  0.00    +0.005 C 
ATOM      9  C   UNL     1      -0.278  -4.377  -8.078  0.00  0.00    +0.005 C 
ATOM     10  C   UNL     1       0.927  -3.860  -7.290  0.00  0.00    +0.037 C 
ATOM     11  C   UNL     1       2.789  -3.386  -4.690  0.00  0.00    +0.265 A 
ATOM     12  O   UNL     1       3.416  -3.777  -5.658  0.00  0.00    -0.267 OA
ATOM     13  N   UNL     1       3.418  -3.143  -3.526  0.00  0.00    -0.260 N 
ATOM     14  C   UNL     1       2.755  -2.704  -2.444  0.00  0.00    +0.333 A 
ATOM     15  O   UNL     1       3.369  -2.493  -1.415  0.00  0.00    -0.246 OA
ENDROOT
BRANCH   1  16
ATOM     16  C   UNL     1       0.739  -2.027  -1.265  0.00  0.00    +0.127 C 
BRANCH  16  17
ATOM     17  C   UNL     1       0.718  -0.497  -1.257  0.00  0.00    +0.021 C 
BRANCH  17  19
ATOM     18  C   UNL     1      -0.019   1.526   0.010  0.00  0.00    +0.004 C 
ATOM     19  C   UNL     1       0.002  -0.004   0.002  0.00  0.00    -0.002 C 
ENDBRANCH  17  19
ENDBRANCH  16  17
ENDBRANCH   1  16
BRANCH  13  20
ATOM     20  C   UNL     1       4.865  -3.355  -3.439  0.00  0.00    +0.130 C 
BRANCH  20  21
ATOM     21  C   UNL     1       5.593  -2.063  -3.816  0.00  0.00    +0.018 C 
ATOM     22  C   UNL     1       7.105  -2.285  -3.725  0.00  0.00    +0.005 C 
ENDBRANCH  20  21
ENDBRANCH  13  20
TORSDOF 5
