REMARK  Name = ZINC10897680
REMARK  9 active torsions:
REMARK  status: ('A' for Active; 'I' for Inactive)
REMARK    1  A    between atoms: C_1  and  C_2
REMARK    2  A    between atoms: C_2  and  C_3
REMARK    3  A    between atoms: C_2  and  C_4
REMARK    4  A    between atoms: C_4  and  C_6
REMARK    5  A    between atoms: C_4  and  N_11
REMARK    6  A    between atoms: C_12  and  C_14
REMARK    7  A    between atoms: C_14  and  O_15
REMARK    8  A    between atoms: O_15  and  N_16
REMARK    9  A    between atoms: C_17  and  C_18
REMARK                            x       y       z     vdW  Elec       q    Type
REMARK                         _______ _______ _______ _____ _____    ______ ____
ROOT
ATOM      1  N   UNL     1       2.533   3.846   0.886  0.00  0.00    -0.305 N 
ATOM      2  C   UNL     1       2.635   5.066   1.451  0.00  0.00    +0.254 C 
ATOM      3  O   UNL     1       1.791   5.909   1.232  0.00  0.00    -0.272 OA
ATOM      4  H   UNL     1       3.208   3.172   1.062  0.00  0.00    +0.149 HD
ENDROOT
BRANCH   1   5
ATOM      5  C   UNL     1       1.402   3.539   0.007  0.00  0.00    +0.112 C 
BRANCH   5   6
ATOM      6  C   UNL     1       1.160   2.051   0.002  0.00  0.00    +0.010 A 
ATOM      7  C   UNL     1      -0.017   1.378   0.010  0.00  0.00    +0.013 A 
ATOM      8  C   UNL     1       0.002  -0.004   0.002  0.00  0.00    +0.008 A 
ATOM      9  C   UNL     1       1.196  -0.645  -0.013  0.00  0.00    +0.045 A 
ATOM     10  S   UNL     1       2.348   0.719  -0.017  0.00  0.00    -0.100 S 
ENDBRANCH   5   6
BRANCH   5  12
ATOM     11  C   UNL     1       1.963   5.519  -1.409  0.00  0.00    +0.009 C 
ATOM     12  C   UNL     1       1.718   4.009  -1.414  0.00  0.00    +0.008 C 
ATOM     13  C   UNL     1       2.969   3.291  -1.923  0.00  0.00    +0.009 C 
ENDBRANCH   5  12
ENDBRANCH   1   5
BRANCH   2  14
ATOM     14  C   UNL     1       3.799   5.382   2.355  0.00  0.00    +0.358 C 
BRANCH  14  15
ATOM     15  O   UNL     1       3.684   6.726   2.826  0.00  0.00    -0.384 OA
BRANCH  15  16
ATOM     16  N   UNL     1       4.734   7.126   3.688  0.00  0.00    -0.092 NA
ATOM     17  C   UNL     1       4.745   8.321   4.183  0.00  0.00    +0.160 C 
BRANCH  17  18
ATOM     18  C   UNL     1       5.840   8.738   5.081  0.00  0.00    -0.004 A 
ATOM     19  C   UNL     1       6.861   7.842   5.404  0.00  0.00    +0.011 A 
ATOM     20  C   UNL     1       7.884   8.239   6.240  0.00  0.00    +0.020 A 
ATOM     21  C   UNL     1       7.893   9.520   6.768  0.00  0.00    +0.041 A 
ATOM     22  C   UNL     1       6.880  10.411   6.456  0.00  0.00    +0.020 A 
ATOM     23  C   UNL     1       5.855  10.027   5.617  0.00  0.00    +0.011 A 
ATOM     24 CL   UNL     1       9.180  10.009   7.825  0.00  0.00    -0.084 Cl
ENDBRANCH  17  18
ENDBRANCH  15  16
ENDBRANCH  14  15
ENDBRANCH   2  14
TORSDOF 7
