REMARK  Name = ZINC39037777
REMARK  9 active torsions:
REMARK  status: ('A' for Active; 'I' for Inactive)
REMARK    1  A    between atoms: C_7  and  C_10
REMARK    2  A    between atoms: C_10  and  C_11
REMARK    3  A    between atoms: C_11  and  C_13
REMARK    4  A    between atoms: C_11  and  N_20
REMARK    5  A    between atoms: N_15  and  C_16
REMARK    6  A    between atoms: C_16  and  C_17
REMARK    7  A    between atoms: C_17  and  C_18
REMARK    8  A    between atoms: C_18  and  O_19
REMARK    9  A    between atoms: C_21  and  O_32
REMARK                            x       y       z     vdW  Elec       q    Type
REMARK                         _______ _______ _______ _____ _____    ______ ____
ROOT
ATOM      1  C   UNL     1      -4.437   3.680  -1.374  0.00  0.00    +0.170 C 
ENDROOT
BRANCH   1   2
ATOM      2  N   UNL     1      -3.086   3.789  -1.929  0.00  0.00    -0.244 N 
ATOM      3  C   UNL     1      -2.739   3.029  -3.130  0.00  0.00    +0.300 C 
ATOM      4  N   UNL     1      -1.326   2.633  -3.093  0.00  0.00    -0.303 N 
ATOM      5  C   UNL     1      -0.381   3.565  -2.679  0.00  0.00    +0.042 A 
ATOM      6  C   UNL     1       0.926   3.530  -3.136  0.00  0.00    +0.024 A 
ATOM      7  C   UNL     1       1.833   4.471  -2.688  0.00  0.00    +0.002 A 
ATOM      8  C   UNL     1       1.446   5.448  -1.784  0.00  0.00    +0.001 A 
ATOM      9  C   UNL     1       0.147   5.499  -1.322  0.00  0.00    +0.015 A 
ATOM     10  C   UNL     1      -0.779   4.560  -1.769  0.00  0.00    +0.058 A 
ATOM     11  C   UNL     1      -2.185   4.592  -1.327  0.00  0.00    +0.252 C 
ATOM     12  O   UNL     1      -2.529   5.332  -0.426  0.00  0.00    -0.270 OA
ATOM     13  H   UNL     1      -1.057   1.738  -3.352  0.00  0.00    +0.150 HD
BRANCH   3  14
ATOM     14  O   UNL     1      -2.969   3.839  -4.285  0.00  0.00    -0.359 OA
ATOM     15  H   UNL     1      -2.761   3.400  -5.121  0.00  0.00    +0.213 HD
ENDBRANCH   3  14
ENDBRANCH   1   2
BRANCH   1  16
ATOM     16  C   UNL     1      -5.091   5.038  -1.373  0.00  0.00    +0.234 C 
ATOM     17  O   UNL     1      -4.410   6.039  -1.440  0.00  0.00    -0.274 OA
ATOM     18  N   UNL     1      -6.433   5.139  -1.298  0.00  0.00    -0.314 N 
ATOM     19  H   UNL     1      -6.977   4.339  -1.244  0.00  0.00    +0.149 HD
BRANCH  18  20
ATOM     20  C   UNL     1      -7.068   6.460  -1.297  0.00  0.00    +0.106 C 
BRANCH  20  21
ATOM     21  C   UNL     1      -8.586   6.294  -1.204  0.00  0.00    +0.046 C 
BRANCH  21  22
ATOM     22  C   UNL     1      -9.250   7.673  -1.203  0.00  0.00    +0.157 C 
BRANCH  22  23
ATOM     23  O   UNL     1     -10.668   7.519  -1.117  0.00  0.00    -0.395 OA
ATOM     24  H   UNL     1     -11.155   8.354  -1.111  0.00  0.00    +0.209 HD
ENDBRANCH  22  23
ENDBRANCH  21  22
ENDBRANCH  20  21
ENDBRANCH  18  20
ENDBRANCH   1  16
BRANCH   1  25
ATOM     25  C   UNL     1      -4.358   3.151   0.060  0.00  0.00    +0.069 C 
BRANCH  25  32
ATOM     26  C   UNL     1      -0.017   1.384   0.010  0.00  0.00    +0.001 A 
ATOM     27  C   UNL     1       0.002  -0.004   0.002  0.00  0.00    +0.002 A 
ATOM     28  C   UNL     1      -1.173  -0.723   0.009  0.00  0.00    +0.026 A 
ATOM     29  C   UNL     1      -2.392  -0.053   0.024  0.00  0.00    +0.047 A 
ATOM     30  N   UNL     1      -3.704  -0.472   0.034  0.00  0.00    -0.360 N 
ATOM     31  C   UNL     1      -4.539   0.612   0.047  0.00  0.00    +0.087 A 
ATOM     32  C   UNL     1      -3.818   1.744   0.047  0.00  0.00    -0.020 A 
ATOM     33  C   UNL     1      -2.406   1.353   0.032  0.00  0.00    +0.003 A 
ATOM     34  C   UNL     1      -1.203   2.062   0.030  0.00  0.00    +0.010 A 
ATOM     35  H   UNL     1      -3.993  -1.398   0.030  0.00  0.00    +0.165 HD
ENDBRANCH  25  32
ENDBRANCH   1  25
TORSDOF 9
