REMARK  Name = ZINC35796446
REMARK  11 active torsions:
REMARK  status: ('A' for Active; 'I' for Inactive)
REMARK    1  A    between atoms: C_1  and  C_2
REMARK    2  A    between atoms: C_2  and  C_3
REMARK    3  A    between atoms: C_2  and  C_4
REMARK    4  A    between atoms: C_4  and  N_5
REMARK    5  A    between atoms: N_5  and  C_6
REMARK    6  A    between atoms: C_6  and  C_7
REMARK    7  A    between atoms: N_9  and  C_10
REMARK    8  A    between atoms: N_9  and  C_17
REMARK    9  A    between atoms: C_10  and  C_11
REMARK   10  A    between atoms: C_17  and  C_18
REMARK   11  A    between atoms: C_23  and  C_25
REMARK                            x       y       z     vdW  Elec       q    Type
REMARK                         _______ _______ _______ _____ _____    ______ ____
ROOT
ATOM      1  C   UNL     1       0.238  -2.159   3.942  0.00  0.00    +0.234 C 
ATOM      2  O   UNL     1       1.424  -1.923   4.033  0.00  0.00    -0.274 OA
ATOM      3  N   UNL     1      -0.297  -3.195   4.618  0.00  0.00    -0.291 N 
ENDROOT
BRANCH   1   4
ATOM      4  C   UNL     1      -0.638  -1.294   3.072  0.00  0.00    +0.204 C 
BRANCH   4   5
ATOM      5  N   UNL     1       0.175  -0.246   2.451  0.00  0.00    -0.288 N 
ATOM      6  C   UNL     1       0.435   0.893   3.124  0.00  0.00    +0.254 C 
ATOM      7  O   UNL     1       1.030   1.801   2.575  0.00  0.00    -0.269 OA
BRANCH   6   8
ATOM      8  C   UNL     1       0.002   1.036   4.516  0.00  0.00    +0.074 A 
ATOM      9  C   UNL     1       0.110   2.134   5.357  0.00  0.00    +0.021 A 
ATOM     10  C   UNL     1      -0.394   1.967   6.625  0.00  0.00    +0.008 A 
ATOM     11  C   UNL     1      -0.947   0.776   6.963  0.00  0.00    +0.046 A 
ATOM     12  S   UNL     1      -0.808  -0.153   5.569  0.00  0.00    -0.092 S 
ENDBRANCH   6   8
BRANCH   5  13
ATOM     13  C   UNL     1       0.704  -0.434   1.098  0.00  0.00    +0.111 C 
BRANCH  13  15
ATOM     14  C   UNL     1      -0.680   1.445   0.207  0.00  0.00    +0.009 C 
ATOM     15  C   UNL     1      -0.364  -0.046   0.073  0.00  0.00    +0.000 C 
ATOM     16  C   UNL     1       0.154  -0.333  -1.337  0.00  0.00    +0.009 C 
ENDBRANCH  13  15
ENDBRANCH   5  13
ENDBRANCH   4   5
ENDBRANCH   1   4
BRANCH   3  17
ATOM     17  C   UNL     1       0.554  -4.036   5.463  0.00  0.00    +0.143 C 
BRANCH  17  18
ATOM     18  C   UNL     1       0.591  -3.471   6.859  0.00  0.00    -0.030 A 
ATOM     19  C   UNL     1       1.554  -2.541   7.204  0.00  0.00    +0.005 A 
ATOM     20  C   UNL     1       1.587  -2.022   8.485  0.00  0.00    +0.000 A 
ATOM     21  C   UNL     1       0.657  -2.433   9.421  0.00  0.00    +0.000 A 
ATOM     22  C   UNL     1      -0.307  -3.362   9.076  0.00  0.00    +0.000 A 
ATOM     23  C   UNL     1      -0.343  -3.877   7.794  0.00  0.00    +0.005 A 
ENDBRANCH  17  18
ENDBRANCH   3  17
BRANCH   3  24
ATOM     24  C   UNL     1      -1.730  -3.481   4.507  0.00  0.00    +0.150 C 
BRANCH  24  25
ATOM     25  C   UNL     1      -1.965  -4.433   3.362  0.00  0.00    +0.007 A 
ATOM     26  C   UNL     1      -1.992  -5.788   3.371  0.00  0.00    +0.013 A 
ATOM     27  C   UNL     1      -2.230  -6.461   2.187  0.00  0.00    +0.008 A 
ATOM     28  C   UNL     1      -2.429  -5.746   1.053  0.00  0.00    +0.045 A 
ATOM     29  S   UNL     1      -2.289  -4.067   1.645  0.00  0.00    -0.100 S 
ENDBRANCH  24  25
ENDBRANCH   3  24
TORSDOF 9
