REMARK  Name = ZINC17195426
REMARK  6 active torsions:
REMARK  status: ('A' for Active; 'I' for Inactive)
REMARK    1  A    between atoms: C_1  and  O_2
REMARK    2  A    between atoms: O_2  and  C_3
REMARK    3  A    between atoms: C_6  and  C_10
REMARK    4  A    between atoms: N_14  and  C_15
REMARK    5  A    between atoms: C_15  and  C_17
REMARK    6  A    between atoms: C_18  and  C_19
REMARK                            x       y       z     vdW  Elec       q    Type
REMARK                         _______ _______ _______ _____ _____    ______ ____
ROOT
ATOM      1  C   UNL     1      -4.962  -2.618   0.036  0.00  0.00    +0.055 A 
ATOM      2  C   UNL     1      -6.125  -1.929   0.040  0.00  0.00    +0.074 A 
ATOM      3  S   UNL     1      -7.333  -3.239   0.050  0.00  0.00    -0.060 S 
ATOM      4  C   UNL     1      -6.288  -4.556   0.048  0.00  0.00    +0.164 A 
ATOM      5  N   UNL     1      -6.594  -5.850   0.053  0.00  0.00    -0.153 NA
ATOM      6  N   UNL     1      -5.053  -3.981   0.035  0.00  0.00    -0.335 N 
ATOM      7  H   UNL     1      -4.253  -4.530   0.028  0.00  0.00    +0.168 HD
ENDROOT
BRANCH   1  11
ATOM      8  C   UNL     1      -1.200  -0.638   0.010  0.00  0.00    +0.134 A 
ATOM      9  C   UNL     1      -2.374   0.104   0.020  0.00  0.00    +0.047 A 
ATOM     10  C   UNL     1      -3.596  -0.534   0.028  0.00  0.00    +0.013 A 
ATOM     11  C   UNL     1      -3.652  -1.929   0.027  0.00  0.00    +0.000 A 
ATOM     12  C   UNL     1      -2.471  -2.672   0.017  0.00  0.00    +0.029 A 
ATOM     13  C   UNL     1      -1.252  -2.026   0.003  0.00  0.00    +0.060 A 
ATOM     14 BR   UNL     1       0.349  -3.030  -0.018  0.00  0.00    -0.046 Br
BRANCH   8  16
ATOM     15  C   UNL     1      -0.017   1.425   0.010  0.00  0.00    +0.277 C 
ATOM     16  O   UNL     1       0.002  -0.004   0.002  0.00  0.00    -0.494 OA
ENDBRANCH   8  16
ENDBRANCH   1  11
BRANCH   5  17
ATOM     17  C   UNL     1      -7.876  -6.235   0.060  0.00  0.00    +0.262 C 
ATOM     18  O   UNL     1      -8.764  -5.398   0.063  0.00  0.00    -0.269 OA
BRANCH  17  19
ATOM     19  C   UNL     1      -8.213  -7.664   0.066  0.00  0.00    +0.070 C 
ATOM     20  C   UNL     1      -9.503  -8.051   0.073  0.00  0.00    +0.014 C 
BRANCH  20  21
ATOM     21  C   UNL     1      -9.842  -9.483   0.078  0.00  0.00    -0.006 A 
ATOM     22  C   UNL     1      -8.827 -10.445   0.081  0.00  0.00    +0.011 A 
ATOM     23  C   UNL     1      -9.151 -11.784   0.086  0.00  0.00    +0.020 A 
ATOM     24  C   UNL     1     -10.479 -12.180   0.088  0.00  0.00    +0.042 A 
ATOM     25  C   UNL     1     -11.490 -11.234   0.085  0.00  0.00    +0.040 A 
ATOM     26  C   UNL     1     -11.181  -9.889   0.086  0.00  0.00    +0.049 A 
ATOM     27 CL   UNL     1     -12.450  -8.704   0.091  0.00  0.00    -0.083 Cl
ATOM     28 CL   UNL     1     -10.877 -13.870   0.094  0.00  0.00    -0.083 Cl
ENDBRANCH  20  21
ENDBRANCH  17  19
ENDBRANCH   5  17
TORSDOF 5
