REMARK  Name = ZINC07002773
REMARK  6 active torsions:
REMARK  status: ('A' for Active; 'I' for Inactive)
REMARK    1  A    between atoms: C_1  and  C_2
REMARK    2  A    between atoms: C_15  and  C_17
REMARK    3  A    between atoms: C_17  and  C_19
REMARK    4  A    between atoms: C_17  and  N_58
REMARK    5  A    between atoms: N_22  and  C_25
REMARK    6  A    between atoms: C_28  and  O_31
REMARK                            x       y       z     vdW  Elec       q    Type
REMARK                         _______ _______ _______ _____ _____    ______ ____
ROOT
ATOM      1  C   UNL     1      -4.152  -3.584   1.445  0.00  0.00    -0.004 C 
ATOM      2  C   UNL     1      -5.412  -3.281   0.632  0.00  0.00    -0.005 C 
ENDROOT
BRANCH   1  16
ATOM      3  C   UNL     1       3.546   2.093  -1.322  0.00  0.00    +0.008 C 
ATOM      4  C   UNL     1       2.194   1.398  -1.157  0.00  0.00    -0.009 C 
ATOM      5  C   UNL     1       1.421   2.037  -0.001  0.00  0.00    +0.008 C 
ATOM      6  C   UNL     1      -0.019   1.522   0.010  0.00  0.00    +0.037 C 
ATOM      7  C   UNL     1       0.002  -0.004   0.002  0.00  0.00    -0.023 A 
ATOM      8  C   UNL     1       1.113  -0.674  -0.386  0.00  0.00    -0.004 A 
ATOM      9  S   UNL     1       0.692  -2.393  -0.240  0.00  0.00    -0.073 S 
ATOM     10  C   UNL     1      -0.965  -2.210   0.338  0.00  0.00    +0.116 A 
ATOM     11  C   UNL     1      -1.139  -0.809   0.399  0.00  0.00    +0.075 A 
ATOM     12  C   UNL     1      -2.417  -0.330   0.843  0.00  0.00    +0.260 A 
ATOM     13  O   UNL     1      -2.669   0.859   0.931  0.00  0.00    -0.267 OA
ATOM     14  N   UNL     1      -3.325  -1.284   1.159  0.00  0.00    -0.312 N 
ATOM     15  H   UNL     1      -4.229  -0.996   1.473  0.00  0.00    +0.170 HD
ATOM     16  C   UNL     1      -3.065  -2.611   1.068  0.00  0.00    +0.097 A 
ATOM     17  N   UNL     1      -1.908  -3.088   0.665  0.00  0.00    -0.228 NA
ATOM     18  C   UNL     1       2.414  -0.088  -0.839  0.00  0.00    +0.046 C 
ENDBRANCH   1  16
BRANCH   1  24
ATOM     19  C   UNL     1      -3.423  -5.129  -0.271  0.00  0.00    -0.059 C 
ATOM     20  C   UNL     1      -2.884  -6.541  -0.512  0.00  0.00    +0.086 C 
ATOM     21  N   UNL     1      -3.871  -7.526  -0.048  0.00  0.00    -0.333 N 
ATOM     22  C   UNL     1      -4.152  -7.350   1.384  0.00  0.00    +0.086 C 
ATOM     23  C   UNL     1      -4.691  -5.938   1.626  0.00  0.00    -0.059 C 
ATOM     24  N   UNL     1      -3.680  -4.958   1.175  0.00  0.00    +0.388 N 
ATOM     25  H   UNL     1      -2.806  -5.118   1.690  0.00  0.00    -0.081 HD
BRANCH  21  26
ATOM     26  C   UNL     1      -3.443  -8.830  -0.318  0.00  0.00    +0.030 A 
ATOM     27  C   UNL     1      -3.331  -9.753   0.714  0.00  0.00    +0.026 A 
ATOM     28  C   UNL     1      -2.915 -11.042   0.445  0.00  0.00    +0.047 A 
ATOM     29  C   UNL     1      -2.598 -11.412  -0.854  0.00  0.00    +0.117 A 
ATOM     30  C   UNL     1      -2.704 -10.490  -1.884  0.00  0.00    +0.047 A 
ATOM     31  C   UNL     1      -3.126  -9.202  -1.618  0.00  0.00    +0.026 A 
BRANCH  29  32
ATOM     32  O   UNL     1      -2.182 -12.680  -1.117  0.00  0.00    -0.507 OA
ATOM     33  H   UNL     1      -1.224 -12.800  -1.059  0.00  0.00    +0.292 HD
ENDBRANCH  29  32
ENDBRANCH  21  26
ENDBRANCH   1  24
TORSDOF 4
