REMARK  Name = ZINC09309420
REMARK  8 active torsions:
REMARK  status: ('A' for Active; 'I' for Inactive)
REMARK    1  A    between atoms: C_1  and  C_2
REMARK    2  A    between atoms: C_5  and  O_33
REMARK    3  A    between atoms: C_6  and  N_8
REMARK    4  A    between atoms: C_9  and  C_32
REMARK    5  A    between atoms: C_11  and  C_14
REMARK    6  A    between atoms: C_12  and  C_13
REMARK    7  A    between atoms: C_24  and  C_26
REMARK    8  A    between atoms: O_33  and  C_34
REMARK                            x       y       z     vdW  Elec       q    Type
REMARK                         _______ _______ _______ _____ _____    ______ ____
ROOT
ATOM      1  C   UNL     1      -1.462  -4.458   5.200  0.00  0.00    +0.026 C 
ATOM      2  C   UNL     1      -1.059  -5.616   5.833  0.00  0.00    +0.081 C 
ATOM      3  C   UNL     1      -1.943  -6.334   6.792  0.00  0.00    +0.153 C 
ATOM      4  N   UNL     1      -3.245  -6.372   6.678  0.00  0.00    -0.283 NA
ATOM      5  N   UNL     1      -1.238  -6.970   7.836  0.00  0.00    -0.152 N 
ATOM      6  C   UNL     1       0.085  -7.288   7.609  0.00  0.00    +0.181 C 
ATOM      7  N   UNL     1       0.809  -6.984   6.562  0.00  0.00    -0.152 NA
ATOM      8  C   UNL     1       0.275  -6.215   5.590  0.00  0.00    +0.273 C 
ATOM      9  O   UNL     1       0.873  -6.013   4.545  0.00  0.00    -0.268 OA
ATOM     10  S   UNL     1       0.518  -8.170   9.085  0.00  0.00    -0.033 S 
ATOM     11  C   UNL     1      -1.039  -7.973   9.942  0.00  0.00    +0.130 C 
ATOM     12  N   UNL     1      -1.757  -7.314   9.065  0.00  0.00    -0.164 NA
ATOM     13  H   UNL     1      -3.775  -6.855   7.331  0.00  0.00    +0.188 HD
ENDROOT
BRANCH   1  17
ATOM     14  N   UNL     1       0.350  -2.436   2.851  0.00  0.00    -0.314 N 
ATOM     15  C   UNL     1       1.376  -2.773   3.690  0.00  0.00    +0.022 A 
ATOM     16  C   UNL     1       0.903  -3.554   4.675  0.00  0.00    +0.031 A 
ATOM     17  C   UNL     1      -0.537  -3.714   4.424  0.00  0.00    -0.003 A 
ATOM     18  C   UNL     1      -0.805  -2.985   3.277  0.00  0.00    +0.028 A 
ATOM     19  C   UNL     1      -2.151  -2.836   2.617  0.00  0.00    +0.064 C 
ATOM     20  C   UNL     1       2.810  -2.337   3.534  0.00  0.00    +0.064 C 
BRANCH  14  26
ATOM     21  C   UNL     1       0.285   2.034   0.802  0.00  0.00    +0.044 C 
ATOM     22  C   UNL     1       0.453   0.541   0.690  0.00  0.00    -0.048 A 
ATOM     23  C   UNL     1       0.736  -0.031  -0.537  0.00  0.00    +0.007 A 
ATOM     24  C   UNL     1       0.891  -1.400  -0.646  0.00  0.00    +0.048 A 
ATOM     25  C   UNL     1       0.764  -2.204   0.476  0.00  0.00    +0.144 A 
ATOM     26  C   UNL     1       0.480  -1.628   1.712  0.00  0.00    +0.089 A 
ATOM     27  C   UNL     1       0.331  -0.252   1.815  0.00  0.00    +0.033 A 
BRANCH  25  28
ATOM     28  O   UNL     1       0.915  -3.551   0.371  0.00  0.00    -0.493 OA
ATOM     29  C   UNL     1       1.205  -4.071  -0.928  0.00  0.00    +0.277 C 
ENDBRANCH  25  28
ENDBRANCH  14  26
ENDBRANCH   1  17
BRANCH  11  30
ATOM     30  C   UNL     1      -1.419  -8.435  11.295  0.00  0.00    +0.009 A 
ATOM     31  C   UNL     1      -2.701  -8.185  11.787  0.00  0.00    +0.010 A 
ATOM     32  C   UNL     1      -3.050  -8.620  13.049  0.00  0.00    +0.001 A 
ATOM     33  C   UNL     1      -2.131  -9.302  13.827  0.00  0.00    +0.000 A 
ATOM     34  C   UNL     1      -0.859  -9.553  13.346  0.00  0.00    +0.001 A 
ATOM     35  C   UNL     1      -0.500  -9.129  12.083  0.00  0.00    +0.010 A 
ENDBRANCH  11  30
TORSDOF 4
