REMARK  Name = ZINC06552422
REMARK  5 active torsions:
REMARK  status: ('A' for Active; 'I' for Inactive)
REMARK    1  A    between atoms: C_1  and  C_2
REMARK    2  A    between atoms: C_9  and  C_14
REMARK    3  A    between atoms: C_14  and  N_43
REMARK    4  A    between atoms: C_15  and  N_43
REMARK    5  A    between atoms: C_21  and  C_23
REMARK                            x       y       z     vdW  Elec       q    Type
REMARK                         _______ _______ _______ _____ _____    ______ ____
ROOT
ATOM      1  C   UNL     1       2.483   1.039  -0.016  0.00  0.00    +0.045 C 
ATOM      2  C   UNL     1       1.172   1.782   0.000  0.00  0.00    -0.029 A 
ATOM      3  C   UNL     1      -0.013   1.076   0.008  0.00  0.00    +0.051 A 
ATOM      4  C   UNL     1      -1.224   1.754   0.017  0.00  0.00    +0.140 A 
ATOM      5  C   UNL     1      -1.230   3.160   0.031  0.00  0.00    +0.020 A 
ATOM      6  C   UNL     1      -0.022   3.863   0.023  0.00  0.00    +0.032 A 
ATOM      7  C   UNL     1       1.169   3.170   0.007  0.00  0.00    +0.045 A 
ATOM      8 CL   UNL     1       2.673   4.037  -0.003  0.00  0.00    -0.083 Cl
ATOM      9  C   UNL     1      -2.515   3.866   0.047  0.00  0.00    -0.047 A 
ATOM     10  C   UNL     1      -3.652   3.126   0.054  0.00  0.00    +0.094 A 
ATOM     11  C   UNL     1      -3.573   1.716   0.046  0.00  0.00    +0.337 A 
ATOM     12  O   UNL     1      -4.601   1.064   0.052  0.00  0.00    -0.245 OA
ATOM     13  O   UNL     1      -2.393   1.077   0.031  0.00  0.00    -0.422 OA
ENDROOT
BRANCH   9  14
ATOM     14  C   UNL     1      -2.571   5.372   0.057  0.00  0.00    -0.045 C 
BRANCH  14  15
ATOM     15  N   UNL     1      -2.360   5.871  -1.315  0.00  0.00    +0.384 N 
ATOM     16  H   UNL     1      -3.095   5.499  -1.928  0.00  0.00    -0.085 HD
ATOM     17  H   UNL     1      -1.442   5.559  -1.652  0.00  0.00    -0.085 HD
BRANCH  15  18
ATOM     18  C   UNL     1      -2.410   7.346  -1.336  0.00  0.00    -0.069 C 
ATOM     19  C   UNL     1      -1.031   7.908  -0.986  0.00  0.00    -0.015 C 
ATOM     20  C   UNL     1      -1.081   9.437  -1.017  0.00  0.00    -0.002 C 
ATOM     21  C   UNL     1      -1.483   9.906  -2.417  0.00  0.00    +0.000 C 
ATOM     22  C   UNL     1      -2.862   9.343  -2.767  0.00  0.00    +0.002 C 
ATOM     23  C   UNL     1      -2.811   7.814  -2.736  0.00  0.00    -0.028 C 
ATOM     24  C   UNL     1      -4.190   7.252  -3.086  0.00  0.00    +0.006 C 
ENDBRANCH  15  18
ENDBRANCH  14  15
ENDBRANCH   9  14
TORSDOF 3
