REMARK  Name = ZINC20206971
REMARK  7 active torsions:
REMARK  status: ('A' for Active; 'I' for Inactive)
REMARK    1  A    between atoms: C_1  and  C_2
REMARK    2  A    between atoms: C_2  and  C_3
REMARK    3  A    between atoms: C_2  and  C_4
REMARK    4  A    between atoms: C_4  and  S_5
REMARK    5  A    between atoms: S_5  and  C_8
REMARK    6  A    between atoms: C_16  and  C_17
REMARK    7  A    between atoms: C_20  and  C_22
REMARK                            x       y       z     vdW  Elec       q    Type
REMARK                         _______ _______ _______ _____ _____    ______ ____
ROOT
ATOM      1  C   UNL     1      -3.671  -1.176  -0.068  0.00  0.00    +0.257 C 
ATOM      2  N   UNL     1      -4.575  -0.639   0.692  0.00  0.00    -0.174 NA
ATOM      3  S   UNL     1      -5.945  -1.565   0.421  0.00  0.00    +0.049 S 
ATOM      4  C   UNL     1      -5.313  -2.679  -0.646  0.00  0.00    +0.183 C 
ATOM      5  N   UNL     1      -5.871  -3.727  -1.208  0.00  0.00    -0.152 NA
ATOM      6  C   UNL     1      -5.130  -4.529  -1.997  0.00  0.00    +0.273 C 
ATOM      7  O   UNL     1      -5.649  -5.429  -2.637  0.00  0.00    -0.268 OA
ATOM      8  C   UNL     1      -3.670  -4.290  -2.071  0.00  0.00    +0.082 C 
ATOM      9  C   UNL     1      -2.779  -5.301  -2.397  0.00  0.00    +0.062 C 
ATOM     10  C   UNL     1      -3.212  -2.905  -1.775  0.00  0.00    +0.138 C 
ATOM     11  N   UNL     1      -2.168  -2.357  -2.340  0.00  0.00    -0.284 NA
ATOM     12  N   UNL     1      -4.018  -2.240  -0.830  0.00  0.00    -0.201 N 
ATOM     13  H   UNL     1      -1.649  -2.857  -2.989  0.00  0.00    +0.188 HD
ENDROOT
BRANCH   9  14
ATOM     14  C   UNL     1      -3.211  -6.637  -2.422  0.00  0.00    +0.129 A 
ATOM     15  C   UNL     1      -2.478  -7.722  -2.881  0.00  0.00    +0.050 A 
ATOM     16  C   UNL     1      -3.283  -8.849  -2.724  0.00  0.00    +0.050 A 
ATOM     17  C   UNL     1      -4.475  -8.421  -2.177  0.00  0.00    +0.136 A 
ATOM     18  O   UNL     1      -4.411  -7.090  -1.998  0.00  0.00    -0.455 OA
BRANCH  17  19
ATOM     19  C   UNL     1      -5.625  -9.280  -1.839  0.00  0.00    +0.017 A 
ATOM     20  C   UNL     1      -5.561 -10.658  -2.065  0.00  0.00    +0.013 A 
ATOM     21  C   UNL     1      -6.640 -11.456  -1.747  0.00  0.00    +0.021 A 
ATOM     22  C   UNL     1      -7.784 -10.895  -1.205  0.00  0.00    +0.041 A 
ATOM     23  C   UNL     1      -7.854  -9.530  -0.979  0.00  0.00    +0.021 A 
ATOM     24  C   UNL     1      -6.781  -8.722  -1.288  0.00  0.00    +0.013 A 
ATOM     25 CL   UNL     1      -9.138 -11.907  -0.808  0.00  0.00    -0.084 Cl
ENDBRANCH  17  19
ENDBRANCH   9  14
BRANCH   1  26
ATOM     26  S   UNL     1      -2.033  -0.530  -0.116  0.00  0.00    +0.029 S 
ATOM     27  O   UNL     1      -1.228  -1.615  -0.554  0.00  0.00    -0.167 OA
ATOM     28  O   UNL     1      -1.834   0.048   1.167  0.00  0.00    -0.167 OA
BRANCH  26  29
ATOM     29  C   UNL     1      -2.079   0.766  -1.384  0.00  0.00    +0.178 C 
BRANCH  29  31
ATOM     30  C   UNL     1       0.300   0.363  -2.032  0.00  0.00    +0.009 C 
ATOM     31  C   UNL     1      -0.694   1.403  -1.513  0.00  0.00    +0.004 C 
ATOM     32  C   UNL     1      -0.762   2.578  -2.491  0.00  0.00    +0.009 C 
ENDBRANCH  29  31
ENDBRANCH  26  29
ENDBRANCH   1  26
TORSDOF 5
