REMARK  Name = ZINC67577264
REMARK  8 active torsions:
REMARK  status: ('A' for Active; 'I' for Inactive)
REMARK    1  A    between atoms: C_1  and  S_2
REMARK    2  A    between atoms: S_2  and  C_3
REMARK    3  A    between atoms: C_6  and  C_27
REMARK    4  A    between atoms: C_8  and  N_9
REMARK    5  A    between atoms: N_12  and  C_13
REMARK    6  A    between atoms: C_13  and  C_14
REMARK    7  A    between atoms: C_14  and  C_16
REMARK    8  A    between atoms: C_14  and  O_26
REMARK                            x       y       z     vdW  Elec       q    Type
REMARK                         _______ _______ _______ _____ _____    ______ ____
ROOT
ATOM      1  N   UNL     1      -1.079  -2.797  -0.002  0.00  0.00    -0.268 N 
ATOM      2  C   UNL     1      -1.429  -4.095   0.096  0.00  0.00    +0.304 C 
ATOM      3  O   UNL     1      -2.603  -4.410   0.105  0.00  0.00    -0.253 OA
ATOM      4  N   UNL     1      -0.476  -5.045   0.184  0.00  0.00    -0.296 N 
ATOM      5  H   UNL     1      -0.145  -2.552  -0.092  0.00  0.00    +0.156 HD
ATOM      6  H   UNL     1       0.461  -4.794   0.176  0.00  0.00    +0.150 HD
ENDROOT
BRANCH   1  12
ATOM      7  C   UNL     1      -1.823  -0.559  -0.566  0.00  0.00    +0.029 A 
ATOM      8  C   UNL     1      -2.803   0.428  -0.544  0.00  0.00    +0.018 A 
ATOM      9  C   UNL     1      -4.014   0.186   0.064  0.00  0.00    +0.020 A 
ATOM     10  C   UNL     1      -4.262  -1.053   0.663  0.00  0.00    +0.054 A 
ATOM     11  C   UNL     1      -3.278  -2.047   0.642  0.00  0.00    +0.043 A 
ATOM     12  C   UNL     1      -2.066  -1.802   0.025  0.00  0.00    +0.049 A 
BRANCH   7  14
ATOM     13  C   UNL     1      -0.426   1.459  -1.951  0.00  0.00    +0.090 C 
ATOM     14  S   UNL     1      -0.275  -0.244  -1.347  0.00  0.00    -0.127 S 
ENDBRANCH   7  14
BRANCH  10  15
ATOM     15  C   UNL     1      -5.521  -1.304   1.297  0.00  0.00    +0.099 C 
ATOM     16  N   UNL     1      -6.521  -1.503   1.799  0.00  0.00    -0.191 NA
ENDBRANCH  10  15
ENDBRANCH   1  12
BRANCH   4  17
ATOM     17  C   UNL     1      -0.856  -6.456   0.290  0.00  0.00    +0.141 C 
BRANCH  17  18
ATOM     18  C   UNL     1       0.405  -7.318   0.375  0.00  0.00    +0.162 C 
BRANCH  18  19
ATOM     19  C   UNL     1       0.015  -8.769   0.485  0.00  0.00    -0.017 A 
ATOM     20  C   UNL     1      -0.244  -9.500  -0.673  0.00  0.00    +0.007 A 
ATOM     21  C   UNL     1      -0.599 -10.812  -0.609  0.00  0.00    +0.009 A 
ATOM     22  C   UNL     1      -0.708 -11.443   0.642  0.00  0.00    -0.018 A 
ATOM     23  C   UNL     1      -1.071 -12.797   0.748  0.00  0.00    +0.008 A 
ATOM     24  C   UNL     1      -1.166 -13.374   1.976  0.00  0.00    +0.001 A 
ATOM     25  C   UNL     1      -0.907 -12.643   3.135  0.00  0.00    +0.001 A 
ATOM     26  C   UNL     1      -0.552 -11.331   3.071  0.00  0.00    +0.008 A 
ATOM     27  C   UNL     1      -0.444 -10.700   1.819  0.00  0.00    -0.018 A 
ATOM     28  C   UNL     1      -0.075  -9.348   1.713  0.00  0.00    +0.014 A 
ENDBRANCH  18  19
BRANCH  18  29
ATOM     29  O   UNL     1       1.195  -7.125  -0.800  0.00  0.00    -0.386 OA
ATOM     30  H   UNL     1       0.742  -7.361  -1.621  0.00  0.00    +0.210 HD
ENDBRANCH  18  29
ENDBRANCH  17  18
ENDBRANCH   4  17
TORSDOF 7
