REMARK  Name = ZINC35777680
REMARK  13 active torsions:
REMARK  status: ('A' for Active; 'I' for Inactive)
REMARK    1  A    between atoms: C_1  and  C_2
REMARK    2  A    between atoms: C_2  and  C_3
REMARK    3  A    between atoms: C_3  and  C_5
REMARK    4  A    between atoms: C_3  and  O_35
REMARK    5  A    between atoms: C_5  and  N_6
REMARK    6  A    between atoms: N_6  and  C_7
REMARK    7  A    between atoms: N_6  and  C_28
REMARK    8  A    between atoms: C_7  and  C_8
REMARK    9  A    between atoms: C_9  and  C_27
REMARK   10  A    between atoms: N_11  and  C_21
REMARK   11  A    between atoms: C_12  and  O_13
REMARK   12  A    between atoms: O_13  and  C_14
REMARK   13  A    between atoms: C_28  and  C_29
REMARK                            x       y       z     vdW  Elec       q    Type
REMARK                         _______ _______ _______ _____ _____    ______ ____
ROOT
ATOM      1  C   UNL     1      -4.789  -4.392  -0.474  0.00  0.00    +0.021 A 
ATOM      2  C   UNL     1      -5.814  -4.460   0.475  0.00  0.00    +0.065 A 
ATOM      3  N   UNL     1      -6.960  -4.345  -0.144  0.00  0.00    -0.168 NA
ATOM      4  N   UNL     1      -6.710  -4.198  -1.515  0.00  0.00    -0.200 N 
ATOM      5  C   UNL     1      -5.362  -4.225  -1.696  0.00  0.00    +0.225 A 
ATOM      6  C   UNL     1      -5.628  -4.636   1.960  0.00  0.00    +0.068 C 
ENDROOT
BRANCH   4   7
ATOM      7  C   UNL     1      -7.676  -4.046  -2.519  0.00  0.00    +0.069 A 
ATOM      8  C   UNL     1      -7.439  -3.192  -3.588  0.00  0.00    +0.028 A 
ATOM      9  C   UNL     1      -8.392  -3.044  -4.576  0.00  0.00    +0.002 A 
ATOM     10  C   UNL     1      -9.581  -3.747  -4.503  0.00  0.00    +0.000 A 
ATOM     11  C   UNL     1      -9.819  -4.598  -3.440  0.00  0.00    +0.002 A 
ATOM     12  C   UNL     1      -8.868  -4.754  -2.451  0.00  0.00    +0.028 A 
ENDBRANCH   4   7
BRANCH   1  13
ATOM     13  C   UNL     1      -3.312  -4.482  -0.192  0.00  0.00    -0.036 C 
BRANCH  13  14
ATOM     14  N   UNL     1      -2.779  -3.137   0.063  0.00  0.00    +0.386 N 
ATOM     15  H   UNL     1      -2.967  -2.544  -0.732  0.00  0.00    -0.081 HD
BRANCH  14  16
ATOM     16  C   UNL     1      -1.329  -3.217   0.281  0.00  0.00    -0.047 C 
BRANCH  16  17
ATOM     17  C   UNL     1      -0.639  -3.623  -1.023  0.00  0.00    +0.098 C 
BRANCH  17  19
ATOM     18  C   UNL     1       1.563  -3.805  -2.189  0.00  0.00    +0.006 C 
ATOM     19  C   UNL     1       0.878  -3.520  -0.851  0.00  0.00    +0.026 C 
ENDBRANCH  17  19
BRANCH  17  20
ATOM     20  O   UNL     1      -0.990  -4.970  -1.348  0.00  0.00    -0.394 OA
ATOM     21  H   UNL     1      -0.734  -5.617  -0.676  0.00  0.00    +0.210 HD
ENDBRANCH  17  20
ENDBRANCH  16  17
ENDBRANCH  14  16
BRANCH  14  22
ATOM     22  C   UNL     1      -3.423  -2.573   1.257  0.00  0.00    -0.046 C 
BRANCH  22  23
ATOM     23  C   UNL     1      -2.974  -1.123   1.442  0.00  0.00    +0.102 C 
ATOM     24  C   UNL     1      -3.586  -0.546   2.737  0.00  0.00    +0.032 C 
ATOM     25  C   UNL     1      -3.945   0.905   2.314  0.00  0.00    +0.030 C 
ATOM     26  C   UNL     1      -4.338   0.691   0.831  0.00  0.00    +0.160 C 
ATOM     27  O   UNL     1      -3.441  -0.325   0.348  0.00  0.00    -0.378 OA
ENDBRANCH  22  23
ENDBRANCH  14  22
ENDBRANCH  13  14
ENDBRANCH   1  13
BRANCH   5  28
ATOM     28  O   UNL     1      -4.709  -4.110  -2.880  0.00  0.00    -0.436 OA
BRANCH  28  29
ATOM     29  C   UNL     1      -4.543  -5.231  -3.629  0.00  0.00    +0.149 A 
ATOM     30  C   UNL     1      -5.126  -6.426  -3.231  0.00  0.00    +0.048 A 
ATOM     31  C   UNL     1      -4.957  -7.564  -3.994  0.00  0.00    +0.004 A 
ATOM     32  C   UNL     1      -4.207  -7.515  -5.155  0.00  0.00    +0.002 A 
ATOM     33  C   UNL     1      -3.624  -6.327  -5.555  0.00  0.00    +0.024 A 
ATOM     34  C   UNL     1      -3.796  -5.183  -4.798  0.00  0.00    +0.083 A 
ATOM     35 CL   UNL     1      -3.070  -3.689  -5.304  0.00  0.00    -0.080 Cl
ENDBRANCH  28  29
ENDBRANCH   5  28
TORSDOF 11
