REMARK  Name = ZINC60365363
REMARK  10 active torsions:
REMARK  status: ('A' for Active; 'I' for Inactive)
REMARK    1  A    between atoms: C_1  and  C_2
REMARK    2  A    between atoms: C_3  and  N_12
REMARK    3  A    between atoms: C_7  and  O_8
REMARK    4  A    between atoms: O_8  and  C_9
REMARK    5  A    between atoms: C_13  and  C_15
REMARK    6  A    between atoms: C_15  and  C_16
REMARK    7  A    between atoms: C_16  and  C_17
REMARK    8  A    between atoms: C_18  and  C_30
REMARK    9  A    between atoms: C_20  and  C_29
REMARK   10  A    between atoms: N_22  and  C_28
REMARK                            x       y       z     vdW  Elec       q    Type
REMARK                         _______ _______ _______ _____ _____    ______ ____
ROOT
ATOM      1  C   UNL     1       0.342   0.094  -4.869  0.00  0.00    +0.101 C 
ENDROOT
BRANCH   1   3
ATOM      2  N   UNL     1       0.262  -0.018  -2.399  0.00  0.00    -0.285 N 
ATOM      3  C   UNL     1       0.245  -0.674  -3.576  0.00  0.00    +0.218 C 
ATOM      4  O   UNL     1       0.152  -1.883  -3.595  0.00  0.00    -0.275 OA
ATOM      5  H   UNL     1       0.257   0.952  -2.385  0.00  0.00    +0.155 HD
BRANCH   2   8
ATOM      6  C   UNL     1      -0.747   1.246  -0.058  0.00  0.00    +0.049 C 
ATOM      7  C   UNL     1      -0.196  -0.157  -0.033  0.00  0.00    +0.013 A 
ATOM      8  C   UNL     1       0.287  -0.735  -1.198  0.00  0.00    +0.040 A 
ATOM      9  C   UNL     1       0.795  -2.028  -1.171  0.00  0.00    +0.024 A 
ATOM     10  C   UNL     1       0.819  -2.737   0.015  0.00  0.00    +0.005 A 
ATOM     11  C   UNL     1       0.339  -2.162   1.176  0.00  0.00    +0.046 A 
ATOM     12  C   UNL     1      -0.165  -0.869   1.156  0.00  0.00    +0.132 A 
BRANCH  12  13
ATOM     13  O   UNL     1      -0.632  -0.303   2.300  0.00  0.00    -0.434 OA
BRANCH  13  14
ATOM     14  C   UNL     1      -0.569  -1.095   3.488  0.00  0.00    +0.541 C 
ATOM     15  F   UNL     1      -1.321  -2.261   3.311  0.00  0.00    -0.166 F 
ATOM     16  F   UNL     1       0.762  -1.433   3.753  0.00  0.00    -0.166 F 
ENDBRANCH  13  14
ENDBRANCH  12  13
ENDBRANCH   2   8
ENDBRANCH   1   3
BRANCH   1  17
ATOM     17  C   UNL     1       0.300  -0.882  -6.046  0.00  0.00    +0.050 C 
BRANCH  17  18
ATOM     18  C   UNL     1       0.396  -0.114  -7.339  0.00  0.00    +0.021 A 
ATOM     19  C   UNL     1       1.606   0.074  -7.929  0.00  0.00    -0.030 A 
ATOM     20  C   UNL     1       1.675   0.798  -9.142  0.00  0.00    +0.043 A 
ATOM     21  C   UNL     1       2.743   1.165  -9.994  0.00  0.00    +0.069 A 
ATOM     22  N   UNL     1       2.249   1.839 -10.995  0.00  0.00    -0.174 NA
ATOM     23  N   UNL     1       0.861   1.941 -10.846  0.00  0.00    -0.251 N 
ATOM     24  C   UNL     1       0.504   1.304  -9.710  0.00  0.00    +0.139 A 
ATOM     25  N   UNL     1      -0.699   1.097  -9.091  0.00  0.00    -0.307 N 
ATOM     26  H   UNL     1      -1.511   1.449  -9.488  0.00  0.00    +0.170 HD
ATOM     27  C   UNL     1      -0.766   0.404  -7.939  0.00  0.00    +0.254 A 
ATOM     28  O   UNL     1      -1.849   0.227  -7.405  0.00  0.00    -0.268 OA
ATOM     29  C   UNL     1      -0.051   2.624 -11.767  0.00  0.00    +0.174 C 
ATOM     30  C   UNL     1       4.198   0.836  -9.782  0.00  0.00    +0.068 C 
ATOM     31  C   UNL     1       2.858  -0.480  -7.298  0.00  0.00    +0.045 C 
ENDBRANCH  17  18
ENDBRANCH   1  17
TORSDOF 6
