REMARK  Name = ZINC12498019
REMARK  9 active torsions:
REMARK  status: ('A' for Active; 'I' for Inactive)
REMARK    1  A    between atoms: C_1  and  N_2
REMARK    2  A    between atoms: N_2  and  C_3
REMARK    3  A    between atoms: N_2  and  C_4
REMARK    4  A    between atoms: C_7  and  C_10
REMARK    5  A    between atoms: N_18  and  C_21
REMARK    6  A    between atoms: C_31  and  C_32
REMARK    7  A    between atoms: C_31  and  C_38
REMARK    8  A    between atoms: C_38  and  O_40
REMARK    9  A    between atoms: O_40  and  C_41
REMARK                            x       y       z     vdW  Elec       q    Type
REMARK                         _______ _______ _______ _____ _____    ______ ____
ROOT
ATOM      1  C   UNL     1      -2.608   3.257  -1.559  0.00  0.00    -0.026 C 
ATOM      2  C   UNL     1      -3.538   2.240  -0.900  0.00  0.00    +0.078 C 
ATOM      3  C   UNL     1      -2.459   1.113  -0.636  0.00  0.00    +0.090 C 
ATOM      4  C   UNL     1      -3.308  -0.026  -0.372  0.00  0.00    +0.229 C 
ATOM      5  O   UNL     1      -3.115  -0.926   0.417  0.00  0.00    -0.275 OA
ATOM      6  N   UNL     1      -4.381   0.138  -1.213  0.00  0.00    -0.210 N 
ATOM      7  C   UNL     1      -4.441   1.392  -1.753  0.00  0.00    +0.229 C 
ATOM      8  O   UNL     1      -5.087   1.746  -2.715  0.00  0.00    -0.275 OA
ATOM      9  C   UNL     1      -1.389   1.888   0.023  0.00  0.00    +0.070 C 
ATOM     10  N   UNL     1      -1.308   3.098  -0.854  0.00  0.00    +0.398 N 
ATOM     11  H   UNL     1      -1.120   3.929  -0.281  0.00  0.00    -0.083 HD
ATOM     12  H   UNL     1      -0.554   2.978  -1.541  0.00  0.00    -0.083 HD
ENDROOT
BRANCH   6  13
ATOM     13  C   UNL     1      -5.314  -0.874  -1.488  0.00  0.00    +0.048 A 
ATOM     14  C   UNL     1      -5.176  -2.124  -0.902  0.00  0.00    +0.028 A 
ATOM     15  C   UNL     1      -6.096  -3.119  -1.170  0.00  0.00    +0.051 A 
ATOM     16  C   UNL     1      -7.154  -2.875  -2.034  0.00  0.00    +0.162 A 
ATOM     17  C   UNL     1      -7.293  -1.624  -2.624  0.00  0.00    +0.164 A 
ATOM     18  C   UNL     1      -6.371  -0.625  -2.352  0.00  0.00    +0.073 A 
ATOM     19  O   UNL     1      -8.330  -1.363  -3.467  0.00  0.00    -0.485 OA
ATOM     20  C   UNL     1      -9.020  -2.495  -4.008  0.00  0.00    +0.270 C 
ATOM     21  C   UNL     1      -9.299  -3.479  -2.864  0.00  0.00    +0.270 C 
ATOM     22  O   UNL     1      -8.045  -3.871  -2.295  0.00  0.00    -0.485 OA
ENDBRANCH   6  13
BRANCH   1  26
ATOM     23  C   UNL     1      -2.167   2.386  -5.720  0.00  0.00    +0.029 A 
ATOM     24  C   UNL     1      -3.146   3.275  -5.295  0.00  0.00    +0.023 A 
ATOM     25  C   UNL     1      -3.286   3.554  -3.949  0.00  0.00    +0.004 A 
ATOM     26  C   UNL     1      -2.452   2.950  -3.026  0.00  0.00    -0.060 A 
ATOM     27  C   UNL     1      -1.473   2.069  -3.446  0.00  0.00    +0.004 A 
ATOM     28  C   UNL     1      -1.331   1.781  -4.790  0.00  0.00    +0.023 A 
BRANCH  23  30
ATOM     29  C   UNL     1      -2.818   2.833  -8.069  0.00  0.00    +0.129 C 
ATOM     30  N   UNL     1      -2.023   2.101  -7.080  0.00  0.00    -0.336 N 
ATOM     31  C   UNL     1      -1.077   1.071  -7.516  0.00  0.00    +0.129 C 
ENDBRANCH  23  30
ENDBRANCH   1  26
BRANCH   9  32
ATOM     32  C   UNL     1      -1.784   2.265   1.427  0.00  0.00    -0.047 A 
ATOM     33  C   UNL     1      -2.587   1.420   2.171  0.00  0.00    +0.003 A 
ATOM     34  C   UNL     1      -2.945   1.764   3.461  0.00  0.00    +0.000 A 
ATOM     35  C   UNL     1      -2.509   2.958   4.004  0.00  0.00    +0.000 A 
ATOM     36  C   UNL     1      -1.711   3.806   3.259  0.00  0.00    +0.000 A 
ATOM     37  C   UNL     1      -1.348   3.459   1.971  0.00  0.00    +0.003 A 
ENDBRANCH   9  32
BRANCH   9  38
ATOM     38  C   UNL     1      -0.090   1.123   0.019  0.00  0.00    +0.301 C 
ATOM     39  O   UNL     1      -0.101  -0.085   0.006  0.00  0.00    -0.252 OA
BRANCH  38  40
ATOM     40  O   UNL     1       1.078   1.784   0.024  0.00  0.00    -0.469 OA
ATOM     41  C   UNL     1       2.289   0.983   0.014  0.00  0.00    +0.280 C 
ENDBRANCH  38  40
ENDBRANCH   9  38
TORSDOF 6
