REMARK  Name = ZINC37131220
REMARK  7 active torsions:
REMARK  status: ('A' for Active; 'I' for Inactive)
REMARK    1  A    between atoms: C_1  and  C_2
REMARK    2  A    between atoms: C_2  and  C_3
REMARK    3  A    between atoms: C_3  and  C_5
REMARK    4  A    between atoms: C_3  and  N_12
REMARK    5  A    between atoms: C_10  and  O_11
REMARK    6  A    between atoms: N_12  and  C_13
REMARK    7  A    between atoms: C_16  and  N_20
REMARK                            x       y       z     vdW  Elec       q    Type
REMARK                         _______ _______ _______ _____ _____    ______ ____
ROOT
ATOM      1  N   UNL     1       2.111   0.007   1.182  0.00  0.00    -0.336 N 
ATOM      2  H   UNL     1       2.812  -0.522   0.771  0.00  0.00    +0.147 HD
ENDROOT
BRANCH   1   3
ATOM      3  C   UNL     1       2.406   1.264   1.716  0.00  0.00    +0.042 A 
ATOM      4  C   UNL     1       1.404   2.021   2.310  0.00  0.00    +0.026 A 
ATOM      5  C   UNL     1       1.699   3.262   2.838  0.00  0.00    +0.034 A 
ATOM      6  C   UNL     1       2.991   3.753   2.776  0.00  0.00    +0.127 A 
ATOM      7  C   UNL     1       3.991   3.003   2.186  0.00  0.00    +0.049 A 
ATOM      8  C   UNL     1       3.704   1.757   1.661  0.00  0.00    +0.041 A 
ATOM      9 BR   UNL     1       5.074   0.729   0.861  0.00  0.00    -0.048 Br
BRANCH   6  10
ATOM     10  N   UNL     1       3.303   5.085   3.342  0.00  0.00    +0.056 N 
ATOM     11  O   UNL     1       2.429   5.742   3.858  0.00  0.00    -0.126 OA
ATOM     12  O   UNL     1       4.431   5.515   3.289  0.00  0.00    -0.126 OA
ENDBRANCH   6  10
ENDBRANCH   1   3
BRANCH   1  13
ATOM     13  C   UNL     1       0.742  -0.511   1.242  0.00  0.00    +0.104 C 
BRANCH  13  14
ATOM     14  C   UNL     1       0.775  -1.976   1.593  0.00  0.00    +0.014 A 
ATOM     15  C   UNL     1       1.884  -2.738   1.280  0.00  0.00    +0.009 A 
ATOM     16  C   UNL     1       1.914  -4.082   1.602  0.00  0.00    +0.001 A 
ATOM     17  C   UNL     1       0.835  -4.667   2.238  0.00  0.00    +0.004 A 
ATOM     18  C   UNL     1      -0.276  -3.910   2.553  0.00  0.00    +0.046 A 
ATOM     19  C   UNL     1      -0.307  -2.560   2.236  0.00  0.00    +0.122 A 
BRANCH  19  20
ATOM     20  O   UNL     1      -1.397  -1.811   2.550  0.00  0.00    -0.506 OA
ATOM     21  H   UNL     1      -2.072  -1.790   1.859  0.00  0.00    +0.292 HD
ENDBRANCH  19  20
ENDBRANCH  13  14
BRANCH  13  23
ATOM     22  C   UNL     1      -0.078   1.165  -0.420  0.00  0.00    +0.006 C 
ATOM     23  C   UNL     1       0.068  -0.328  -0.119  0.00  0.00    +0.024 C 
ENDBRANCH  13  23
ENDBRANCH   1  13
TORSDOF 6
