REMARK  Name = ZINC16779981
REMARK  8 active torsions:
REMARK  status: ('A' for Active; 'I' for Inactive)
REMARK    1  A    between atoms: C_1  and  C_2
REMARK    2  A    between atoms: C_2  and  C_3
REMARK    3  A    between atoms: C_2  and  C_4
REMARK    4  A    between atoms: N_7  and  S_8
REMARK    5  A    between atoms: S_8  and  C_9
REMARK    6  A    between atoms: C_20  and  C_23
REMARK    7  A    between atoms: C_23  and  C_24
REMARK    8  A    between atoms: C_23  and  C_25
REMARK                            x       y       z     vdW  Elec       q    Type
REMARK                         _______ _______ _______ _____ _____    ______ ____
ROOT
ATOM      1  C   UNL     1       8.004   2.839  -3.905  0.00  0.00    +0.004 C 
ATOM      2  C   UNL     1       6.735   2.774  -3.433  0.00  0.00    +0.036 C 
ATOM      3  C   UNL     1       6.501   2.755  -2.036  0.00  0.00    +0.073 C 
ATOM      4  N   UNL     1       5.258   2.692  -1.570  0.00  0.00    -0.208 NA
ATOM      5  C   UNL     1       7.594   2.808  -1.138  0.00  0.00    +0.036 C 
ATOM      6  C   UNL     1       8.861   2.867  -1.616  0.00  0.00    +0.004 C 
ATOM      7  C   UNL     1       9.091   2.886  -3.007  0.00  0.00    +0.186 C 
ATOM      8  O   UNL     1      10.235   2.943  -3.436  0.00  0.00    -0.287 OA
ENDROOT
BRANCH   1  10
ATOM      9  C   UNL     1       8.988   4.148  -5.767  0.00  0.00    +0.012 C 
ATOM     10  C   UNL     1       8.253   2.860  -5.391  0.00  0.00    +0.017 C 
ATOM     11  C   UNL     1       9.109   1.653  -5.782  0.00  0.00    +0.012 C 
ENDBRANCH   1  10
BRANCH   6  12
ATOM     12  C   UNL     1      10.024   2.918  -0.660  0.00  0.00    +0.017 C 
ATOM     13  C   UNL     1      10.935   1.712  -0.901  0.00  0.00    +0.012 C 
ATOM     14  C   UNL     1      10.815   4.208  -0.887  0.00  0.00    +0.012 C 
ENDBRANCH   6  12
BRANCH   4  15
ATOM     15  S   UNL     1       5.002   2.670  -0.031  0.00  0.00    +0.050 S 
BRANCH  15  16
ATOM     16  C   UNL     1       3.242   2.585  -0.015  0.00  0.00    +0.190 A 
ATOM     17  N   UNL     1       2.512   1.430  -0.014  0.00  0.00    -0.332 N 
ATOM     18  H   UNL     1       2.876   0.498  -0.023  0.00  0.00    +0.168 HD
ATOM     19  C   UNL     1       1.178   1.789   0.000  0.00  0.00    +0.067 A 
ATOM     20  C   UNL     1      -0.013   1.076   0.008  0.00  0.00    +0.028 A 
ATOM     21  C   UNL     1      -1.214   1.752   0.017  0.00  0.00    +0.002 A 
ATOM     22  C   UNL     1      -1.241   3.140   0.031  0.00  0.00    +0.002 A 
ATOM     23  C   UNL     1      -0.080   3.859   0.024  0.00  0.00    +0.030 A 
ATOM     24  C   UNL     1       1.151   3.195   0.008  0.00  0.00    +0.090 A 
ATOM     25  N   UNL     1       2.439   3.619  -0.002  0.00  0.00    -0.221 NA
ENDBRANCH  15  16
ENDBRANCH   4  15
TORSDOF 4
