REMARK  Name = ZINC63165733
REMARK  10 active torsions:
REMARK  status: ('A' for Active; 'I' for Inactive)
REMARK    1  A    between atoms: C_1  and  C_2
REMARK    2  A    between atoms: C_2  and  C_3
REMARK    3  A    between atoms: C_2  and  O_4
REMARK    4  A    between atoms: O_4  and  C_5
REMARK    5  A    between atoms: C_8  and  S_25
REMARK    6  A    between atoms: C_10  and  N_11
REMARK    7  A    between atoms: C_12  and  C_14
REMARK    8  A    between atoms: C_14  and  C_15
REMARK    9  A    between atoms: C_15  and  C_16
REMARK   10  A    between atoms: S_25  and  N_28
REMARK                            x       y       z     vdW  Elec       q    Type
REMARK                         _______ _______ _______ _____ _____    ______ ____
ROOT
ATOM      1  C   UNL     1      -1.966  -0.623  -1.199  0.00  0.00    +0.142 A 
ATOM      2  C   UNL     1      -1.272  -0.379  -2.374  0.00  0.00    +0.049 A 
ATOM      3  C   UNL     1      -1.914  -0.498  -3.593  0.00  0.00    +0.032 A 
ATOM      4  C   UNL     1      -3.247  -0.861  -3.644  0.00  0.00    +0.107 A 
ATOM      5  C   UNL     1      -3.945  -1.107  -2.477  0.00  0.00    +0.055 A 
ATOM      6  C   UNL     1      -3.307  -0.995  -1.251  0.00  0.00    +0.077 A 
ENDROOT
BRANCH   6   7
ATOM      7  N   UNL     1      -4.011  -1.248  -0.066  0.00  0.00    -0.283 N 
ATOM      8  C   UNL     1      -5.352  -1.110  -0.037  0.00  0.00    +0.218 C 
ATOM      9  O   UNL     1      -5.938  -0.669  -1.003  0.00  0.00    -0.275 OA
ATOM     10  H   UNL     1      -3.535  -1.524   0.732  0.00  0.00    +0.155 HD
BRANCH   8  11
ATOM     11  C   UNL     1      -6.123  -1.504   1.197  0.00  0.00    +0.100 C 
BRANCH  11  12
ATOM     12  C   UNL     1      -7.614  -1.249   0.969  0.00  0.00    +0.042 C 
BRANCH  12  13
ATOM     13  C   UNL     1      -8.385  -1.643   2.202  0.00  0.00    -0.041 C 
ATOM     14  C   UNL     1      -8.775  -0.832   3.212  0.00  0.00    -0.001 A 
ATOM     15  C   UNL     1      -8.603   0.606   3.454  0.00  0.00    +0.010 A 
ATOM     16  C   UNL     1      -9.117   1.146   4.583  0.00  0.00    +0.001 A 
ATOM     17  C   UNL     1      -9.806   0.370   5.524  0.00  0.00    +0.002 A 
ATOM     18  C   UNL     1     -10.004  -0.956   5.371  0.00  0.00    +0.026 A 
ATOM     19  C   UNL     1      -9.508  -1.629   4.221  0.00  0.00    +0.043 A 
ATOM     20  N   UNL     1      -9.569  -2.885   3.850  0.00  0.00    -0.380 N 
ATOM     21  C   UNL     1      -8.886  -3.025   2.559  0.00  0.00    +0.144 C 
ATOM     22  H   UNL     1      -9.997  -3.601   4.345  0.00  0.00    +0.160 HD
ENDBRANCH  12  13
ENDBRANCH  11  12
ENDBRANCH   8  11
ENDBRANCH   6   7
BRANCH   4  23
ATOM     23  S   UNL     1      -4.058  -1.010  -5.201  0.00  0.00    +0.061 S 
ATOM     24  O   UNL     1      -5.446  -0.831  -4.955  0.00  0.00    -0.153 OA
ATOM     25  O   UNL     1      -3.334  -0.197  -6.115  0.00  0.00    -0.153 OA
BRANCH  23  26
ATOM     26  N   UNL     1      -3.864  -2.576  -5.706  0.00  0.00    -0.177 NA
ATOM     27  C   UNL     1      -2.702  -2.963  -6.518  0.00  0.00    +0.109 C 
ATOM     28  C   UNL     1      -1.999  -4.143  -5.841  0.00  0.00    +0.017 C 
ATOM     29  C   UNL     1      -3.009  -5.270  -5.611  0.00  0.00    +0.003 C 
ATOM     30  C   UNL     1      -4.125  -4.777  -4.687  0.00  0.00    +0.017 C 
ATOM     31  C   UNL     1      -4.849  -3.605  -5.345  0.00  0.00    +0.109 C 
ENDBRANCH  23  26
ENDBRANCH   4  23
BRANCH   1  32
ATOM     32  O   UNL     1      -1.336  -0.506   0.001  0.00  0.00    -0.488 OA
BRANCH  32  34
ATOM     33  C   UNL     1       0.004   1.504  -0.035  0.00  0.00    +0.051 C 
ATOM     34  C   UNL     1       0.010  -0.026  -0.017  0.00  0.00    +0.167 C 
ATOM     35  C   UNL     1       0.743  -0.518   1.232  0.00  0.00    +0.051 C 
ENDBRANCH  32  34
ENDBRANCH   1  32
TORSDOF 8
