REMARK  Name = ZINC46735427
REMARK  8 active torsions:
REMARK  status: ('A' for Active; 'I' for Inactive)
REMARK    1  A    between atoms: C_1  and  C_2
REMARK    2  A    between atoms: C_5  and  C_8
REMARK    3  A    between atoms: C_14  and  C_17
REMARK    4  A    between atoms: N_19  and  C_20
REMARK    5  A    between atoms: C_25  and  C_26
REMARK    6  A    between atoms: C_26  and  N_27
REMARK    7  A    between atoms: N_27  and  C_28
REMARK    8  A    between atoms: N_27  and  C_29
REMARK                            x       y       z     vdW  Elec       q    Type
REMARK                         _______ _______ _______ _____ _____    ______ ____
ROOT
ATOM      1  C   UNL     1      -1.179  -8.504   2.282  0.00  0.00    +0.222 C 
ATOM      2  O   UNL     1      -1.477  -9.036   3.330  0.00  0.00    -0.275 OA
ATOM      3  N   UNL     1      -0.668  -9.239   1.274  0.00  0.00    -0.285 N 
ATOM      4  H   UNL     1      -0.359  -8.803   0.464  0.00  0.00    +0.155 HD
ENDROOT
BRANCH   1  11
ATOM      5  C   UNL     1       0.178  -4.179   0.704  0.00  0.00    +0.247 C 
ATOM      6  O   UNL     1       0.612  -4.746  -0.280  0.00  0.00    -0.270 OA
ATOM      7  N   UNL     1      -0.226  -4.897   1.771  0.00  0.00    -0.297 N 
ATOM      8  C   UNL     1      -0.868  -4.237   2.917  0.00  0.00    +0.108 C 
ATOM      9  C   UNL     1      -2.205  -4.929   3.199  0.00  0.00    +0.020 C 
ATOM     10  C   UNL     1      -1.969  -6.429   3.388  0.00  0.00    +0.016 C 
ATOM     11  C   UNL     1      -1.380  -7.021   2.105  0.00  0.00    +0.093 C 
ATOM     12  C   UNL     1      -0.039  -6.353   1.809  0.00  0.00    +0.120 C 
BRANCH   5  17
ATOM     13  C   UNL     1      -0.152   1.565   0.805  0.00  0.00    +0.044 C 
ATOM     14  C   UNL     1      -0.066   0.060   0.778  0.00  0.00    -0.050 A 
ATOM     15  C   UNL     1       0.196  -0.635   1.946  0.00  0.00    +0.004 A 
ATOM     16  C   UNL     1       0.276  -2.012   1.928  0.00  0.00    +0.013 A 
ATOM     17  C   UNL     1       0.093  -2.704   0.730  0.00  0.00    +0.037 A 
ATOM     18  C   UNL     1      -0.171  -1.996  -0.444  0.00  0.00    +0.013 A 
ATOM     19  C   UNL     1      -0.254  -0.619  -0.412  0.00  0.00    +0.004 A 
ENDBRANCH   5  17
ENDBRANCH   1  11
BRANCH   3  20
ATOM     20  C   UNL     1      -0.582 -10.630   1.397  0.00  0.00    +0.035 A 
ATOM     21  C   UNL     1      -0.350 -11.206   2.640  0.00  0.00    +0.023 A 
ATOM     22  C   UNL     1      -0.266 -12.579   2.757  0.00  0.00    +0.002 A 
ATOM     23  C   UNL     1      -0.411 -13.381   1.640  0.00  0.00    +0.000 A 
ATOM     24  C   UNL     1      -0.640 -12.810   0.401  0.00  0.00    +0.003 A 
ATOM     25  C   UNL     1      -0.733 -11.438   0.278  0.00  0.00    -0.043 A 
BRANCH  25  26
ATOM     26  C   UNL     1      -0.990 -10.817  -1.071  0.00  0.00    -0.041 C 
BRANCH  26  27
ATOM     27  N   UNL     1       0.276 -10.333  -1.637  0.00  0.00    +0.382 N 
ATOM     28  C   UNL     1       1.164 -11.474  -1.897  0.00  0.00    -0.095 C 
ATOM     29  H   UNL     1       0.719  -9.705  -0.983  0.00  0.00    -0.081 HD
BRANCH  27  30
ATOM     30  C   UNL     1       0.010  -9.623  -2.895  0.00  0.00    -0.069 C 
ATOM     31  C   UNL     1       1.329  -9.119  -3.485  0.00  0.00    -0.015 C 
ATOM     32  C   UNL     1       1.052  -8.379  -4.795  0.00  0.00    -0.002 C 
ATOM     33  C   UNL     1       0.127  -7.191  -4.524  0.00  0.00    -0.000 C 
ATOM     34  C   UNL     1      -1.192  -7.695  -3.935  0.00  0.00    -0.002 C 
ATOM     35  C   UNL     1      -0.915  -8.435  -2.624  0.00  0.00    -0.015 C 
ENDBRANCH  27  30
ENDBRANCH  26  27
ENDBRANCH  25  26
ENDBRANCH   3  20
TORSDOF 6
