REMARK  Name = ZINC02398538
REMARK  7 active torsions:
REMARK  status: ('A' for Active; 'I' for Inactive)
REMARK    1  A    between atoms: C_9  and  C_23
REMARK    2  A    between atoms: C_10  and  N_22
REMARK    3  A    between atoms: N_11  and  N_14
REMARK    4  A    between atoms: C_15  and  C_16
REMARK    5  A    between atoms: N_25  and  C_26
REMARK    6  A    between atoms: C_26  and  C_27
REMARK    7  A    between atoms: C_27  and  C_28
REMARK                            x       y       z     vdW  Elec       q    Type
REMARK                         _______ _______ _______ _____ _____    ______ ____
ROOT
ATOM      1  C   UNL     1      -4.654  -0.483   5.564  0.00  0.00    +0.002 A 
ATOM      2  C   UNL     1      -5.772  -1.145   5.062  0.00  0.00    +0.002 A 
ATOM      3  C   UNL     1      -5.976  -1.257   3.721  0.00  0.00    +0.030 A 
ATOM      4  C   UNL     1      -5.049  -0.698   2.823  0.00  0.00    +0.092 A 
ATOM      5  C   UNL     1      -3.911  -0.024   3.334  0.00  0.00    +0.090 A 
ATOM      6  C   UNL     1      -3.735   0.071   4.728  0.00  0.00    +0.030 A 
ATOM      7  N   UNL     1      -3.014   0.517   2.502  0.00  0.00    -0.241 NA
ATOM      8  C   UNL     1      -3.191   0.414   1.200  0.00  0.00    +0.124 A 
ATOM      9  C   UNL     1      -2.443   0.876   0.018  0.00  0.00    +0.105 A 
ATOM     10  C   UNL     1      -3.162   0.456  -1.095  0.00  0.00    +0.134 A 
ATOM     11  N   UNL     1      -4.285  -0.216  -0.710  0.00  0.00    -0.198 N 
ATOM     12  C   UNL     1      -4.369  -0.276   0.669  0.00  0.00    +0.183 A 
ATOM     13  N   UNL     1      -5.241  -0.802   1.502  0.00  0.00    -0.224 NA
ENDROOT
BRANCH   9  14
ATOM     14  C   UNL     1      -1.187   1.624   0.017  0.00  0.00    +0.250 C 
ATOM     15  O   UNL     1      -1.204   2.841   0.023  0.00  0.00    -0.270 OA
ATOM     16  N   UNL     1      -0.011   0.966   0.007  0.00  0.00    -0.311 N 
ATOM     17  H   UNL     1       0.002  -0.004   0.002  0.00  0.00    +0.149 HD
BRANCH  16  18
ATOM     18  C   UNL     1       1.248   1.716  -0.001  0.00  0.00    +0.109 C 
BRANCH  18  19
ATOM     19  C   UNL     1       2.424   0.737  -0.017  0.00  0.00    +0.049 C 
BRANCH  19  20
ATOM     20  C   UNL     1       3.719   1.508  -0.025  0.00  0.00    -0.072 C 
ATOM     21  C   UNL     1       4.302   1.727   1.109  0.00  0.00    -0.028 C 
ATOM     22  C   UNL     1       5.587   2.486   1.261  0.00  0.00    +0.027 C 
ATOM     23  C   UNL     1       6.305   2.582  -0.087  0.00  0.00    +0.004 C 
ATOM     24  C   UNL     1       5.300   3.069  -1.138  0.00  0.00    +0.005 C 
ATOM     25  C   UNL     1       4.254   1.970  -1.349  0.00  0.00    +0.030 C 
ENDBRANCH  19  20
ENDBRANCH  18  19
ENDBRANCH  16  18
ENDBRANCH   9  14
BRANCH  10  26
ATOM     26  N   UNL     1      -2.795   0.685  -2.396  0.00  0.00    -0.342 N 
ATOM     27  H   UNL     1      -1.979   1.173  -2.591  0.00  0.00    +0.144 HD
ATOM     28  H   UNL     1      -3.351   0.360  -3.121  0.00  0.00    +0.144 HD
ENDBRANCH  10  26
BRANCH  11  29
ATOM     29  N   UNL     1      -5.224  -0.769  -1.590  0.00  0.00    -0.170 NA
ATOM     30  C   UNL     1      -5.084  -1.990  -2.005  0.00  0.00    +0.161 C 
BRANCH  30  31
ATOM     31  C   UNL     1      -6.072  -2.573  -2.932  0.00  0.00    +0.084 A 
ATOM     32  C   UNL     1      -5.915  -3.888  -3.376  0.00  0.00    +0.029 A 
ATOM     33  C   UNL     1      -6.851  -4.419  -4.245  0.00  0.00    +0.004 A 
ATOM     34  C   UNL     1      -7.914  -3.620  -4.644  0.00  0.00    +0.020 A 
ATOM     35  C   UNL     1      -8.008  -2.326  -4.166  0.00  0.00    +0.111 A 
ATOM     36  N   UNL     1      -7.108  -1.844  -3.335  0.00  0.00    -0.254 NA
ENDBRANCH  30  31
ENDBRANCH  11  29
TORSDOF 7
