REMARK  Name = ZINC66890212
REMARK  7 active torsions:
REMARK  status: ('A' for Active; 'I' for Inactive)
REMARK    1  A    between atoms: C_1  and  C_2
REMARK    2  A    between atoms: C_3  and  C_7
REMARK    3  A    between atoms: N_9  and  C_10
REMARK    4  A    between atoms: N_13  and  C_16
REMARK    5  A    between atoms: C_16  and  C_17
REMARK    6  A    between atoms: N_19  and  C_20
REMARK    7  A    between atoms: C_20  and  C_24
REMARK                            x       y       z     vdW  Elec       q    Type
REMARK                         _______ _______ _______ _____ _____    ______ ____
ROOT
ATOM      1  C   UNL     1      -4.887  -0.941   0.140  0.00  0.00    +0.070 C 
ATOM      2  C   UNL     1      -5.373  -0.662   1.565  0.00  0.00    +0.004 C 
ATOM      3  C   UNL     1      -6.862  -0.310   1.531  0.00  0.00    -0.076 C 
ATOM      4  N   UNL     1      -7.621  -1.431   0.964  0.00  0.00    +0.385 N 
ATOM      5  C   UNL     1      -7.210  -1.658  -0.427  0.00  0.00    -0.076 C 
ATOM      6  C   UNL     1      -5.735  -2.062  -0.468  0.00  0.00    +0.004 C 
ATOM      7  H   UNL     1      -7.444  -2.264   1.506  0.00  0.00    -0.081 HD
ENDROOT
BRANCH   1  10
ATOM      8  C   UNL     1      -2.506  -0.423   0.176  0.00  0.00    +0.248 C 
ATOM      9  O   UNL     1      -2.793   0.759   0.152  0.00  0.00    -0.270 OA
ATOM     10  N   UNL     1      -3.482  -1.353   0.173  0.00  0.00    -0.309 N 
ATOM     11  H   UNL     1      -3.253  -2.296   0.193  0.00  0.00    +0.149 HD
BRANCH   8  14
ATOM     12  C   UNL     1      -0.013   1.480   0.192  0.00  0.00    +0.087 C 
ATOM     13  C   UNL     1       0.004  -0.026   0.218  0.00  0.00    +0.114 A 
ATOM     14  C   UNL     1      -1.093  -0.837   0.210  0.00  0.00    +0.077 A 
ATOM     15  C   UNL     1      -0.570  -2.211   0.243  0.00  0.00    +0.054 A 
ATOM     16  C   UNL     1       0.767  -2.096   0.267  0.00  0.00    +0.196 A 
ATOM     17  O   UNL     1       1.097  -0.795   0.246  0.00  0.00    -0.467 OA
ENDBRANCH   8  14
ENDBRANCH   1  10
BRANCH   4  18
ATOM     18  C   UNL     1      -9.056  -1.119   1.005  0.00  0.00    +0.019 C 
BRANCH  18  19
ATOM     19  C   UNL     1      -9.843  -2.317   0.538  0.00  0.00    +0.197 C 
ATOM     20  O   UNL     1      -9.266  -3.329   0.204  0.00  0.00    -0.278 OA
ATOM     21  N   UNL     1     -11.189  -2.261   0.491  0.00  0.00    -0.307 N 
ATOM     22  H   UNL     1     -11.654  -1.480   0.829  0.00  0.00    +0.149 HD
BRANCH  21  23
ATOM     23  C   UNL     1     -11.949  -3.381  -0.069  0.00  0.00    +0.060 C 
ATOM     24  C   UNL     1     -13.426  -3.400   0.360  0.00  0.00    +0.030 C 
ATOM     25  C   UNL     1     -12.982  -4.238   1.571  0.00  0.00    +0.005 C 
ATOM     26  C   UNL     1     -11.785  -4.692   0.718  0.00  0.00    +0.030 C 
BRANCH  23  27
ATOM     27  C   UNL     1     -11.748  -3.540  -1.554  0.00  0.00    -0.024 A 
ATOM     28  C   UNL     1     -12.143  -4.705  -2.185  0.00  0.00    +0.006 A 
ATOM     29  C   UNL     1     -11.959  -4.851  -3.547  0.00  0.00    +0.000 A 
ATOM     30  C   UNL     1     -11.380  -3.831  -4.279  0.00  0.00    +0.000 A 
ATOM     31  C   UNL     1     -10.986  -2.665  -3.649  0.00  0.00    +0.000 A 
ATOM     32  C   UNL     1     -11.174  -2.518  -2.287  0.00  0.00    +0.006 A 
ENDBRANCH  23  27
ENDBRANCH  21  23
ENDBRANCH  18  19
ENDBRANCH   4  18
TORSDOF 6
