REMARK  Name = ZINC39328080
REMARK  11 active torsions:
REMARK  status: ('A' for Active; 'I' for Inactive)
REMARK    1  A    between atoms: C_1  and  C_2
REMARK    2  A    between atoms: C_2  and  C_3
REMARK    3  A    between atoms: C_2  and  C_4
REMARK    4  A    between atoms: C_7  and  C_10
REMARK    5  A    between atoms: C_11  and  C_32
REMARK    6  A    between atoms: C_12  and  N_31
REMARK    7  A    between atoms: C_14  and  S_18
REMARK    8  A    between atoms: C_15  and  C_16
REMARK    9  A    between atoms: S_18  and  C_19
REMARK   10  A    between atoms: C_19  and  C_20
REMARK   11  A    between atoms: N_22  and  C_23
REMARK                            x       y       z     vdW  Elec       q    Type
REMARK                         _______ _______ _______ _____ _____    ______ ____
ROOT
ATOM      1  C   UNL     1       2.719  -1.901  -4.703  0.00  0.00    +0.023 A 
ATOM      2  C   UNL     1       2.088  -2.793  -5.593  0.00  0.00    +0.100 A 
ATOM      3  C   UNL     1       2.782  -3.214  -6.742  0.00  0.00    +0.136 A 
ATOM      4  N   UNL     1       4.009  -2.784  -6.992  0.00  0.00    -0.224 NA
ATOM      5  C   UNL     1       4.640  -1.946  -6.184  0.00  0.00    +0.117 A 
ATOM      6  C   UNL     1       4.022  -1.466  -5.014  0.00  0.00    +0.093 A 
ENDROOT
BRANCH   1  10
ATOM      7  C   UNL     1       0.740  -0.549  -1.195  0.00  0.00    -0.045 A 
ATOM      8  C   UNL     1       0.243  -0.208  -2.441  0.00  0.00    +0.004 A 
ATOM      9  C   UNL     1       0.881  -0.644  -3.584  0.00  0.00    +0.009 A 
ATOM     10  C   UNL     1       2.030  -1.430  -3.482  0.00  0.00    -0.015 A 
ATOM     11  C   UNL     1       2.526  -1.769  -2.222  0.00  0.00    +0.009 A 
ATOM     12  C   UNL     1       1.881  -1.323  -1.087  0.00  0.00    +0.004 A 
BRANCH   7  14
ATOM     13  C   UNL     1       0.008   1.461   0.060  0.00  0.00    +0.012 C 
ATOM     14  C   UNL     1       0.038  -0.069   0.049  0.00  0.00    +0.013 C 
ATOM     15  C   UNL     1      -1.394  -0.607   0.066  0.00  0.00    +0.012 C 
ENDBRANCH   7  14
ENDBRANCH   1  10
BRANCH   3  16
ATOM     16  N   UNL     1       2.175  -4.088  -7.622  0.00  0.00    -0.342 N 
ATOM     17  H   UNL     1       1.277  -4.408  -7.445  0.00  0.00    +0.144 HD
ATOM     18  H   UNL     1       2.648  -4.383  -8.416  0.00  0.00    +0.144 HD
ENDBRANCH   3  16
BRANCH   6  19
ATOM     19  C   UNL     1       4.710  -0.555  -4.149  0.00  0.00    +0.102 C 
ATOM     20  N   UNL     1       5.256   0.168  -3.463  0.00  0.00    -0.191 NA
ENDBRANCH   6  19
BRANCH   2  21
ATOM     21  C   UNL     1       0.762  -3.265  -5.331  0.00  0.00    +0.103 C 
ATOM     22  N   UNL     1      -0.290  -3.639  -5.123  0.00  0.00    -0.191 NA
ENDBRANCH   2  21
BRANCH   5  23
ATOM     23  S   UNL     1       6.273  -1.418  -6.584  0.00  0.00    -0.095 S 
BRANCH  23  24
ATOM     24  C   UNL     1       6.640  -2.269  -8.143  0.00  0.00    +0.172 C 
BRANCH  24  25
ATOM     25  C   UNL     1       8.027  -1.899  -8.602  0.00  0.00    +0.227 C 
ATOM     26  O   UNL     1       8.702  -1.137  -7.943  0.00  0.00    -0.275 OA
ATOM     27  N   UNL     1       8.518  -2.416  -9.746  0.00  0.00    -0.284 N 
ATOM     28  H   UNL     1       8.005  -3.075 -10.240  0.00  0.00    +0.155 HD
BRANCH  27  29
ATOM     29  C   UNL     1       9.768  -2.002 -10.222  0.00  0.00    +0.053 A 
ATOM     30  C   UNL     1      10.784  -1.690  -9.328  0.00  0.00    +0.044 A 
ATOM     31  C   UNL     1      12.017  -1.282  -9.801  0.00  0.00    +0.043 A 
ATOM     32  C   UNL     1      12.239  -1.183 -11.163  0.00  0.00    +0.021 A 
ATOM     33  C   UNL     1      11.229  -1.492 -12.056  0.00  0.00    +0.023 A 
ATOM     34  C   UNL     1       9.996  -1.907 -11.589  0.00  0.00    +0.062 A 
ATOM     35 CL   UNL     1       8.731  -2.301 -12.711  0.00  0.00    -0.082 Cl
ATOM     36 CL   UNL     1      13.287  -0.892  -8.684  0.00  0.00    -0.083 Cl
ENDBRANCH  27  29
ENDBRANCH  24  25
ENDBRANCH  23  24
ENDBRANCH   5  23
TORSDOF 9
