REMARK  Name = ZINC64502523
REMARK  12 active torsions:
REMARK  status: ('A' for Active; 'I' for Inactive)
REMARK    1  A    between atoms: C_1  and  C_2
REMARK    2  A    between atoms: C_2  and  C_3
REMARK    3  A    between atoms: C_3  and  C_5
REMARK    4  A    between atoms: C_3  and  N_6
REMARK    5  A    between atoms: C_10  and  S_15
REMARK    6  A    between atoms: S_15  and  N_18
REMARK    7  A    between atoms: N_18  and  C_19
REMARK    8  A    between atoms: N_18  and  C_20
REMARK    9  A    between atoms: C_20  and  C_21
REMARK   10  A    between atoms: N_23  and  C_24
REMARK   11  A    between atoms: C_24  and  C_25
REMARK   12  A    between atoms: C_25  and  C_26
REMARK                            x       y       z     vdW  Elec       q    Type
REMARK                         _______ _______ _______ _____ _____    ______ ____
ROOT
ATOM      1  N   UNL     1      -8.107   1.952   2.888  0.00  0.00    -0.171 NA
ATOM      2  C   UNL     1      -8.382   1.221   4.127  0.00  0.00    +0.132 C 
ENDROOT
BRANCH   1   3
ATOM      3  S   UNL     1      -6.826   2.998   2.810  0.00  0.00    +0.061 S 
ATOM      4  O   UNL     1      -6.551   3.403   4.144  0.00  0.00    -0.153 OA
ATOM      5  O   UNL     1      -7.123   3.929   1.778  0.00  0.00    -0.153 OA
BRANCH   3  10
ATOM      6  N   UNL     1      -2.082  -0.162   1.273  0.00  0.00    -0.247 N 
ATOM      7  C   UNL     1      -3.235   0.620   1.402  0.00  0.00    +0.068 A 
ATOM      8  C   UNL     1      -4.063   1.238   0.481  0.00  0.00    +0.028 A 
ATOM      9  C   UNL     1      -5.158   1.963   0.915  0.00  0.00    +0.030 A 
ATOM     10  C   UNL     1      -5.429   2.072   2.267  0.00  0.00    +0.107 A 
ATOM     11  C   UNL     1      -4.606   1.457   3.194  0.00  0.00    +0.054 A 
ATOM     12  C   UNL     1      -3.508   0.730   2.767  0.00  0.00    +0.067 A 
ATOM     13  N   UNL     1      -2.518   0.013   3.447  0.00  0.00    -0.263 N 
ATOM     14  N   UNL     1      -1.668  -0.523   2.523  0.00  0.00    -0.160 NA
ATOM     15  H   UNL     1      -2.449  -0.089   4.409  0.00  0.00    +0.168 HD
ATOM     16  H   UNL     1      -0.719  -0.223   2.690  0.00  0.00    +0.168 HD
BRANCH   6  17
ATOM     17  C   UNL     1      -1.433  -0.534   0.013  0.00  0.00    +0.089 C 
ATOM     18  C   UNL     1      -1.416  -2.058  -0.121  0.00  0.00    +0.029 C 
BRANCH  17  20
ATOM     19  C   UNL     1      -0.019   1.526   0.010  0.00  0.00    +0.006 C 
ATOM     20  C   UNL     1       0.002  -0.004   0.002  0.00  0.00    +0.020 C 
ENDBRANCH  17  20
ENDBRANCH   6  17
ENDBRANCH   3  10
ENDBRANCH   1   3
BRANCH   1  21
ATOM     21  C   UNL     1      -8.965   1.757   1.716  0.00  0.00    +0.204 C 
BRANCH  21  22
ATOM     22  C   UNL     1      -8.492   0.554   0.942  0.00  0.00    +0.229 C 
ATOM     23  O   UNL     1      -7.533  -0.079   1.330  0.00  0.00    -0.274 OA
ATOM     24  N   UNL     1      -9.136   0.180  -0.182  0.00  0.00    -0.314 N 
ATOM     25  H   UNL     1      -9.903   0.686  -0.492  0.00  0.00    +0.149 HD
BRANCH  24  26
ATOM     26  C   UNL     1      -8.676  -0.989  -0.935  0.00  0.00    +0.108 C 
BRANCH  26  27
ATOM     27  C   UNL     1      -9.572  -1.193  -2.158  0.00  0.00    +0.052 C 
BRANCH  27  28
ATOM     28  C   UNL     1      -9.100  -2.396  -2.932  0.00  0.00    -0.040 C 
ATOM     29  C   UNL     1      -9.568  -3.661  -2.835  0.00  0.00    -0.001 A 
ATOM     30  C   UNL     1     -10.617  -4.272  -2.010  0.00  0.00    +0.010 A 
ATOM     31  C   UNL     1     -10.864  -5.596  -2.137  0.00  0.00    +0.001 A 
ATOM     32  C   UNL     1     -10.145  -6.397  -3.034  0.00  0.00    +0.002 A 
ATOM     33  C   UNL     1      -9.166  -5.908  -3.826  0.00  0.00    +0.026 A 
ATOM     34  C   UNL     1      -8.823  -4.529  -3.775  0.00  0.00    +0.043 A 
ATOM     35  N   UNL     1      -7.929  -3.827  -4.429  0.00  0.00    -0.380 N 
ATOM     36  C   UNL     1      -8.010  -2.433  -3.980  0.00  0.00    +0.144 C 
ATOM     37  H   UNL     1      -7.319  -4.172  -5.099  0.00  0.00    +0.160 HD
ENDBRANCH  27  28
ENDBRANCH  26  27
ENDBRANCH  24  26
ENDBRANCH  21  22
ENDBRANCH   1  21
TORSDOF 9
