REMARK  Name = ZINC09191542
REMARK  6 active torsions:
REMARK  status: ('A' for Active; 'I' for Inactive)
REMARK    1  A    between atoms: C_3  and  S_10
REMARK    2  A    between atoms: C_6  and  N_7
REMARK    3  A    between atoms: S_10  and  C_13
REMARK    4  A    between atoms: C_19  and  C_21
REMARK    5  A    between atoms: C_21  and  S_22
REMARK    6  A    between atoms: S_22  and  C_23
REMARK                            x       y       z     vdW  Elec       q    Type
REMARK                         _______ _______ _______ _____ _____    ______ ____
ROOT
ATOM      1  C   UNL     1       4.355   2.571   1.656  0.00  0.00    +0.152 A 
ATOM      2  C   UNL     1       5.117   1.801   2.471  0.00  0.00    +0.148 A 
ATOM      3  N   UNL     1       5.309   2.238   3.702  0.00  0.00    -0.231 NA
ATOM      4  H   UNL     1       4.441   4.815   5.533  0.00  0.00    +0.157 HD
ATOM      5  C   UNL     1       4.781   3.371   4.112  0.00  0.00    +0.166 A 
ATOM      6  N   UNL     1       4.884   3.969   5.362  0.00  0.00    -0.264 N 
ATOM      7  C   UNL     1       5.600   3.375   6.337  0.00  0.00    +0.229 C 
ATOM      8  O   UNL     1       6.155   2.318   6.123  0.00  0.00    -0.275 OA
ATOM      9  S   UNL     1       3.958   3.924   2.752  0.00  0.00    -0.033 S 
ENDROOT
BRANCH   1  10
ATOM     10  S   UNL     1       3.891   2.312  -0.024  0.00  0.00    +0.033 S 
ATOM     11  O   UNL     1       4.872   1.453  -0.588  0.00  0.00    -0.164 OA
ATOM     12  O   UNL     1       3.597   3.593  -0.566  0.00  0.00    -0.164 OA
BRANCH  10  15
ATOM     13  C   UNL     1      -0.017   1.378   0.010  0.00  0.00    +0.034 A 
ATOM     14  C   UNL     1       1.171   2.086   0.002  0.00  0.00    +0.029 A 
ATOM     15  C   UNL     1       2.377   1.411  -0.013  0.00  0.00    +0.094 A 
ATOM     16  C   UNL     1       2.396   0.029  -0.020  0.00  0.00    +0.029 A 
ATOM     17  C   UNL     1       1.208  -0.679  -0.012  0.00  0.00    +0.034 A 
ATOM     18  C   UNL     1       0.002  -0.004   0.002  0.00  0.00    +0.126 A 
BRANCH  18  19
ATOM     19  N   UNL     1      -1.270  -0.761   0.011  0.00  0.00    +0.056 N 
ATOM     20  O   UNL     1      -2.325  -0.171   0.024  0.00  0.00    -0.126 OA
ATOM     21  O   UNL     1      -1.253  -1.970   0.004  0.00  0.00    -0.126 OA
ENDBRANCH  18  19
ENDBRANCH  10  15
ENDBRANCH   1  10
BRANCH   7  22
ATOM     22  C   UNL     1       5.712   4.024   7.692  0.00  0.00    +0.173 C 
BRANCH  22  23
ATOM     23  S   UNL     1       6.733   2.988   8.777  0.00  0.00    -0.079 S 
BRANCH  23  24
ATOM     24  C   UNL     1       6.767   3.871  10.301  0.00  0.00    +0.168 A 
ATOM     25  N   UNL     1       7.429   3.469  11.427  0.00  0.00    -0.333 N 
ATOM     26  H   UNL     1       7.956   2.661  11.526  0.00  0.00    +0.168 HD
ATOM     27  C   UNL     1       7.209   4.432  12.399  0.00  0.00    +0.067 A 
ATOM     28  C   UNL     1       7.613   4.577  13.717  0.00  0.00    +0.029 A 
ATOM     29  C   UNL     1       7.214   5.682  14.441  0.00  0.00    +0.022 A 
ATOM     30  C   UNL     1       6.409   6.651  13.857  0.00  0.00    +0.043 A 
ATOM     31  C   UNL     1       5.999   6.523  12.548  0.00  0.00    +0.050 A 
ATOM     32  C   UNL     1       6.395   5.410  11.803  0.00  0.00    +0.091 A 
ATOM     33  N   UNL     1       6.165   5.014  10.524  0.00  0.00    -0.222 NA
ATOM     34 CL   UNL     1       5.917   8.034  14.784  0.00  0.00    -0.083 Cl
ENDBRANCH  23  24
ENDBRANCH  22  23
ENDBRANCH   7  22
TORSDOF 6
