REMARK  Name = ZINC43218819
REMARK  9 active torsions:
REMARK  status: ('A' for Active; 'I' for Inactive)
REMARK    1  A    between atoms: C_1  and  C_2
REMARK    2  A    between atoms: C_2  and  C_3
REMARK    3  A    between atoms: C_2  and  C_4
REMARK    4  A    between atoms: C_2  and  N_5
REMARK    5  A    between atoms: C_10  and  C_27
REMARK    6  A    between atoms: C_13  and  C_18
REMARK    7  A    between atoms: C_13  and  C_24
REMARK    8  A    between atoms: C_31  and  O_33
REMARK    9  A    between atoms: O_33  and  C_34
REMARK                            x       y       z     vdW  Elec       q    Type
REMARK                         _______ _______ _______ _____ _____    ______ ____
ROOT
ATOM      1  N   UNL     1       0.325  -0.705  -1.424  0.00  0.00    -0.236 N 
ATOM      2  C   UNL     1      -0.126  -1.470  -2.471  0.00  0.00    +0.225 C 
ATOM      3  O   UNL     1      -1.274  -1.744  -2.747  0.00  0.00    -0.275 OA
ATOM      4  C   UNL     1       1.068  -1.876  -3.171  0.00  0.00    +0.077 C 
ATOM      5  C   UNL     1       1.501  -2.366  -4.491  0.00  0.00    -0.026 C 
ATOM      6  N   UNL     1       2.999  -2.284  -4.380  0.00  0.00    +0.398 N 
ATOM      7  C   UNL     1       3.325  -1.279  -3.325  0.00  0.00    +0.074 C 
ATOM      8  C   UNL     1       1.986  -0.602  -2.998  0.00  0.00    +0.090 C 
ATOM      9  C   UNL     1       1.637  -0.348  -1.558  0.00  0.00    +0.226 C 
ATOM     10  O   UNL     1       2.370   0.082  -0.693  0.00  0.00    -0.275 OA
ATOM     11  H   UNL     1       3.372  -3.185  -4.121  0.00  0.00    -0.083 HD
ATOM     12  H   UNL     1       3.391  -1.993  -5.263  0.00  0.00    -0.083 HD
ENDROOT
BRANCH   7  13
ATOM     13  C   UNL     1       3.902  -1.964  -2.113  0.00  0.00    -0.047 A 
ATOM     14  C   UNL     1       4.810  -1.299  -1.310  0.00  0.00    +0.003 A 
ATOM     15  C   UNL     1       5.339  -1.927  -0.198  0.00  0.00    +0.000 A 
ATOM     16  C   UNL     1       4.959  -3.219   0.112  0.00  0.00    +0.000 A 
ATOM     17  C   UNL     1       4.050  -3.884  -0.690  0.00  0.00    +0.000 A 
ATOM     18  C   UNL     1       3.518  -3.254  -1.800  0.00  0.00    +0.003 A 
ENDBRANCH   7  13
BRANCH   5  19
ATOM     19  C   UNL     1       1.054  -3.788  -4.710  0.00  0.00    -0.057 A 
ATOM     20  C   UNL     1       1.854  -4.836  -4.293  0.00  0.00    +0.002 A 
ATOM     21  C   UNL     1       1.447  -6.142  -4.492  0.00  0.00    +0.004 A 
ATOM     22  C   UNL     1       0.239  -6.403  -5.111  0.00  0.00    +0.046 A 
ATOM     23  C   UNL     1      -0.565  -5.354  -5.530  0.00  0.00    +0.130 A 
ATOM     24  C   UNL     1      -0.157  -4.044  -5.323  0.00  0.00    +0.048 A 
BRANCH  23  25
ATOM     25  O   UNL     1      -1.754  -5.608  -6.139  0.00  0.00    -0.406 OA
BRANCH  25  26
ATOM     26  C   UNL     1      -2.112  -6.980  -6.314  0.00  0.00    +0.575 C 
ATOM     27  F   UNL     1      -2.188  -7.605  -5.064  0.00  0.00    -0.133 F 
ATOM     28  F   UNL     1      -3.355  -7.060  -6.951  0.00  0.00    -0.133 F 
ATOM     29  F   UNL     1      -1.145  -7.619  -7.097  0.00  0.00    -0.133 F 
ENDBRANCH  25  26
ENDBRANCH  23  25
ENDBRANCH   5  19
BRANCH   1  31
ATOM     30  C   UNL     1      -0.589   1.218  -0.221  0.00  0.00    +0.031 C 
ATOM     31  C   UNL     1      -0.512  -0.308  -0.289  0.00  0.00    +0.036 C 
ATOM     32  C   UNL     1       0.097  -0.846   1.007  0.00  0.00    +0.031 C 
ATOM     33  C   UNL     1      -1.919  -0.882  -0.468  0.00  0.00    +0.031 C 
ENDBRANCH   1  31
BRANCH   7  34
ATOM     34  C   UNL     1       4.296  -0.258  -3.860  0.00  0.00    +0.350 C 
ATOM     35  O   UNL     1       4.714  -0.354  -5.002  0.00  0.00    -0.248 OA
ATOM     36  O   UNL     1       4.663   0.664  -3.152  0.00  0.00    -0.248 OA
ENDBRANCH   7  34
TORSDOF 6
