REMARK  Name = ZINC09170781
REMARK  11 active torsions:
REMARK  status: ('A' for Active; 'I' for Inactive)
REMARK    1  A    between atoms: C_1  and  C_2
REMARK    2  A    between atoms: C_2  and  C_3
REMARK    3  A    between atoms: C_3  and  C_4
REMARK    4  A    between atoms: N_6  and  C_7
REMARK    5  A    between atoms: C_10  and  S_13
REMARK    6  A    between atoms: S_13  and  N_16
REMARK    7  A    between atoms: N_16  and  C_17
REMARK    8  A    between atoms: N_23  and  C_31
REMARK    9  A    between atoms: C_26  and  C_29
REMARK   10  A    between atoms: C_26  and  C_30
REMARK   11  A    between atoms: C_31  and  C_32
REMARK                            x       y       z     vdW  Elec       q    Type
REMARK                         _______ _______ _______ _____ _____    ______ ____
ROOT
ATOM      1  N   UNL     1      -5.797   4.508   1.874  0.00  0.00    -0.216 N 
ATOM      2  H   UNL     1      -6.498   3.936   2.225  0.00  0.00    +0.174 HD
ENDROOT
BRANCH   1   3
ATOM      3  C   UNL     1      -5.109   5.375   2.729  0.00  0.00    +0.050 A 
ATOM      4  C   UNL     1      -4.873   6.689   2.343  0.00  0.00    +0.028 A 
ATOM      5  C   UNL     1      -4.195   7.549   3.185  0.00  0.00    +0.049 A 
ATOM      6  C   UNL     1      -3.746   7.103   4.417  0.00  0.00    +0.142 A 
ATOM      7  C   UNL     1      -3.978   5.785   4.805  0.00  0.00    +0.080 A 
ATOM      8  C   UNL     1      -4.665   4.925   3.965  0.00  0.00    +0.051 A 
ATOM      9  N   UNL     1      -3.512   5.344   6.051  0.00  0.00    -0.268 N 
ATOM     10  C   UNL     1      -3.764   6.086   7.153  0.00  0.00    +0.229 C 
ATOM     11  O   UNL     1      -3.313   5.752   8.228  0.00  0.00    -0.275 OA
ATOM     12  C   UNL     1      -4.608   7.330   7.038  0.00  0.00    +0.076 C 
ATOM     13  C   UNL     1      -3.805   8.448   6.377  0.00  0.00    +0.244 C 
ATOM     14  O   UNL     1      -3.084   7.946   5.254  0.00  0.00    -0.489 OA
ATOM     15  C   UNL     1      -5.045   7.777   8.435  0.00  0.00    +0.024 C 
ATOM     16  C   UNL     1      -5.846   7.024   6.193  0.00  0.00    +0.024 C 
BRANCH   9  17
ATOM     17  C   UNL     1      -2.760   4.092   6.159  0.00  0.00    +0.110 C 
ATOM     18  C   UNL     1      -3.730   2.933   6.401  0.00  0.00    +0.025 C 
ENDBRANCH   9  17
ENDBRANCH   1   3
BRANCH   1  19
ATOM     19  S   UNL     1      -5.417   4.457   0.263  0.00  0.00    +0.072 S 
ATOM     20  O   UNL     1      -5.388   5.804  -0.190  0.00  0.00    -0.150 OA
ATOM     21  O   UNL     1      -6.260   3.475  -0.323  0.00  0.00    -0.150 OA
BRANCH  19  25
ATOM     22  C   UNL     1      -1.180   2.890  -0.065  0.00  0.00    +0.033 A 
ATOM     23  C   UNL     1      -1.410   4.255   0.056  0.00  0.00    +0.025 A 
ATOM     24  C   UNL     1      -2.704   4.730   0.150  0.00  0.00    +0.030 A 
ATOM     25  C   UNL     1      -3.768   3.848   0.136  0.00  0.00    +0.109 A 
ATOM     26  C   UNL     1      -3.543   2.488   0.022  0.00  0.00    +0.030 A 
ATOM     27  C   UNL     1      -2.252   2.007  -0.079  0.00  0.00    +0.025 A 
BRANCH  22  30
ATOM     28  C   UNL     1       1.071   3.138  -0.793  0.00  0.00    +0.217 C 
ATOM     29  O   UNL     1       0.766   4.173  -1.347  0.00  0.00    -0.275 OA
ATOM     30  N   UNL     1       0.129   2.406  -0.166  0.00  0.00    -0.285 N 
ATOM     31  H   UNL     1       0.357   1.542   0.211  0.00  0.00    +0.155 HD
BRANCH  28  32
ATOM     32  C   UNL     1       2.503   2.669  -0.807  0.00  0.00    +0.096 C 
BRANCH  32  34
ATOM     33  C   UNL     1       4.815   3.198  -1.593  0.00  0.00    +0.004 C 
ATOM     34  C   UNL     1       3.361   3.674  -1.579  0.00  0.00    +0.006 C 
ENDBRANCH  32  34
ENDBRANCH  28  32
ENDBRANCH  22  30
ENDBRANCH  19  25
ENDBRANCH   1  19
TORSDOF 7
