REMARK  Name = ZINC39744037
REMARK  10 active torsions:
REMARK  status: ('A' for Active; 'I' for Inactive)
REMARK    1  A    between atoms: C_1  and  C_2
REMARK    2  A    between atoms: C_5  and  N_9
REMARK    3  A    between atoms: C_6  and  C_8
REMARK    4  A    between atoms: C_10  and  C_12
REMARK    5  A    between atoms: C_12  and  C_13
REMARK    6  A    between atoms: C_16  and  S_19
REMARK    7  A    between atoms: N_17  and  C_18
REMARK    8  A    between atoms: S_19  and  C_20
REMARK    9  A    between atoms: C_20  and  C_21
REMARK   10  A    between atoms: C_27  and  C_33
REMARK                            x       y       z     vdW  Elec       q    Type
REMARK                         _______ _______ _______ _____ _____    ______ ____
ROOT
ATOM      1  C   UNL     1      -0.235  -6.840  -2.606  0.00  0.00    +0.143 A 
ATOM      2  N   UNL     1      -1.332  -7.024  -3.284  0.00  0.00    -0.133 NA
ATOM      3  N   UNL     1      -1.056  -7.454  -4.463  0.00  0.00    -0.122 NA
ATOM      4  C   UNL     1       0.244  -7.568  -4.603  0.00  0.00    +0.192 A 
ATOM      5  N   UNL     1       0.809  -7.175  -3.423  0.00  0.00    -0.309 N 
ATOM      6  C   UNL     1       2.237  -7.125  -3.100  0.00  0.00    +0.152 C 
ENDROOT
BRANCH   1   7
ATOM      7  C   UNL     1      -0.134  -6.343  -1.187  0.00  0.00    +0.172 C 
BRANCH   7   9
ATOM      8  N   UNL     1       0.059  -4.170  -0.021  0.00  0.00    -0.285 N 
ATOM      9  C   UNL     1      -0.040  -4.839  -1.187  0.00  0.00    +0.225 C 
ATOM     10  O   UNL     1      -0.054  -4.230  -2.236  0.00  0.00    -0.275 OA
ATOM     11  H   UNL     1       0.135  -4.658   0.814  0.00  0.00    +0.155 HD
BRANCH   8  16
ATOM     12  C   UNL     1       0.025   1.503   0.005  0.00  0.00    +0.044 C 
ATOM     13  C   UNL     1       0.034  -0.004  -0.002  0.00  0.00    -0.050 A 
ATOM     14  C   UNL     1       0.632  -0.685  -1.046  0.00  0.00    +0.005 A 
ATOM     15  C   UNL     1       0.641  -2.066  -1.055  0.00  0.00    +0.024 A 
ATOM     16  C   UNL     1       0.051  -2.771  -0.014  0.00  0.00    +0.036 A 
ATOM     17  C   UNL     1      -0.548  -2.083   1.033  0.00  0.00    -0.029 A 
ATOM     18  C   UNL     1      -0.550  -0.702   1.039  0.00  0.00    +0.008 A 
ATOM     19  C   UNL     1      -1.190  -2.843   2.165  0.00  0.00    +0.045 C 
ENDBRANCH   8  16
ENDBRANCH   7   9
ENDBRANCH   1   7
BRANCH   4  20
ATOM     20  S   UNL     1       1.099  -8.119  -6.042  0.00  0.00    -0.077 S 
BRANCH  20  21
ATOM     21  C   UNL     1      -0.225  -8.472  -7.230  0.00  0.00    +0.173 C 
BRANCH  21  22
ATOM     22  C   UNL     1       0.377  -8.959  -8.523  0.00  0.00    +0.229 C 
ATOM     23  O   UNL     1       1.581  -9.058  -8.632  0.00  0.00    -0.275 OA
ATOM     24  N   UNL     1      -0.422  -9.283  -9.559  0.00  0.00    -0.264 N 
ATOM     25  C   UNL     1       0.132  -9.731 -10.747  0.00  0.00    +0.165 A 
ATOM     26  N   UNL     1      -0.475 -10.085 -11.856  0.00  0.00    -0.224 NA
ATOM     27  C   UNL     1       0.198 -10.506 -12.949  0.00  0.00    +0.083 A 
ATOM     28  C   UNL     1      -0.330 -10.914 -14.196  0.00  0.00    -0.024 A 
ATOM     29  C   UNL     1       0.500 -11.316 -15.210  0.00  0.00    +0.005 A 
ATOM     30  C   UNL     1       1.878 -11.337 -15.053  0.00  0.00    +0.001 A 
ATOM     31  C   UNL     1       2.429 -10.944 -13.847  0.00  0.00    +0.017 A 
ATOM     32  C   UNL     1       1.606 -10.540 -12.826  0.00  0.00    +0.041 A 
ATOM     33  S   UNL     1       1.854  -9.964 -11.164  0.00  0.00    -0.052 S 
ATOM     34  C   UNL     1      -1.821 -10.907 -14.412  0.00  0.00    +0.046 C 
ATOM     35  H   UNL     1      -1.385  -9.204  -9.472  0.00  0.00    +0.157 HD
ENDBRANCH  21  22
ENDBRANCH  20  21
ENDBRANCH   4  20
TORSDOF 6
