REMARK  Name = ZINC20242441
REMARK  12 active torsions:
REMARK  status: ('A' for Active; 'I' for Inactive)
REMARK    1  A    between atoms: C_1  and  C_2
REMARK    2  A    between atoms: C_2  and  C_3
REMARK    3  A    between atoms: C_3  and  N_4
REMARK    4  A    between atoms: N_4  and  C_5
REMARK    5  A    between atoms: N_4  and  C_8
REMARK    6  A    between atoms: C_5  and  C_6
REMARK    7  A    between atoms: C_6  and  C_7
REMARK    8  A    between atoms: C_8  and  C_9
REMARK    9  A    between atoms: C_9  and  N_10
REMARK   10  A    between atoms: C_11  and  C_13
REMARK   11  A    between atoms: N_19  and  C_30
REMARK   12  A    between atoms: C_30  and  C_31
REMARK                            x       y       z     vdW  Elec       q    Type
REMARK                         _______ _______ _______ _____ _____    ______ ____
ROOT
ATOM      1  C   UNL     1      -2.400  -1.525  -2.213  0.00  0.00    +0.039 A 
ATOM      2  C   UNL     1      -3.668  -1.055  -2.558  0.00  0.00    +0.014 A 
ATOM      3  C   UNL     1      -3.954   0.298  -2.445  0.00  0.00    +0.020 A 
ATOM      4  C   UNL     1      -2.985   1.183  -2.002  0.00  0.00    +0.065 A 
ATOM      5  C   UNL     1      -1.721   0.726  -1.657  0.00  0.00    +0.054 A 
ATOM      6  C   UNL     1      -1.430  -0.633  -1.763  0.00  0.00    +0.037 A 
ATOM      7  N   UNL     1      -0.730   1.578  -1.201  0.00  0.00    -0.262 N 
ATOM      8  C   UNL     1      -0.336   2.740  -1.648  0.00  0.00    +0.252 C 
ATOM      9  O   UNL     1       0.595   3.244  -1.049  0.00  0.00    -0.270 OA
ATOM     10  C   UNL     1      -0.862   3.521  -2.770  0.00  0.00    +0.053 A 
ATOM     11  C   UNL     1       0.033   4.143  -3.651  0.00  0.00    +0.014 A 
ATOM     12  C   UNL     1      -0.441   4.878  -4.715  0.00  0.00    +0.001 A 
ATOM     13  C   UNL     1      -1.803   5.007  -4.922  0.00  0.00    +0.001 A 
ATOM     14  C   UNL     1      -2.695   4.397  -4.057  0.00  0.00    +0.018 A 
ATOM     15  C   UNL     1      -2.231   3.661  -2.987  0.00  0.00    +0.056 A 
ATOM     16  S   UNL     1      -3.376   2.898  -1.887  0.00  0.00    +0.088 S 
ATOM     17  O   UNL     1      -2.914   3.270  -0.596  0.00  0.00    -0.247 OA
ENDROOT
BRANCH   1  19
ATOM     18  N   UNL     1      -3.027  -3.827  -2.760  0.00  0.00    -0.313 N 
ATOM     19  C   UNL     1      -2.087  -2.966  -2.325  0.00  0.00    +0.244 C 
ATOM     20  O   UNL     1      -0.982  -3.373  -2.024  0.00  0.00    -0.270 OA
ATOM     21  H   UNL     1      -4.027  -3.459  -3.033  0.00  0.00    +0.149 HD
BRANCH  18  22
ATOM     22  C   UNL     1      -2.717  -5.255  -2.871  0.00  0.00    +0.086 C 
BRANCH  22  23
ATOM     23  C   UNL     1      -3.947  -6.005  -3.385  0.00  0.00    -0.060 C 
BRANCH  23  24
ATOM     24  N   UNL     1      -3.601  -7.415  -3.613  0.00  0.00    +0.381 N 
ATOM     25  H   UNL     1      -2.613  -7.446  -4.095  0.00  0.00    -0.082 HD
BRANCH  24  26
ATOM     26  C   UNL     1      -3.508  -8.146  -2.343  0.00  0.00    -0.079 C 
BRANCH  26  28
ATOM     27  C   UNL     1      -2.811 -10.293  -1.271  0.00  0.00    +0.002 C 
ATOM     28  C   UNL     1      -2.908  -9.531  -2.595  0.00  0.00    -0.022 C 
ENDBRANCH  26  28
ENDBRANCH  24  26
BRANCH  24  29
ATOM     29  C   UNL     1      -4.565  -8.053  -4.519  0.00  0.00    -0.079 C 
BRANCH  29  30
ATOM     30  C   UNL     1      -4.296  -7.597  -5.955  0.00  0.00    -0.022 C 
ATOM     31  C   UNL     1      -5.215  -8.358  -6.912  0.00  0.00    +0.002 C 
ENDBRANCH  29  30
ENDBRANCH  24  29
ENDBRANCH  23  24
ENDBRANCH  22  23
ENDBRANCH  18  22
ENDBRANCH   1  19
BRANCH   7  32
ATOM     32  C   UNL     1       0.001   1.093  -0.027  0.00  0.00    +0.152 C 
BRANCH  32  33
ATOM     33  C   UNL     1      -0.686   1.572   1.226  0.00  0.00    +0.005 A 
ATOM     34  C   UNL     1      -1.437   0.692   1.982  0.00  0.00    +0.008 A 
ATOM     35  C   UNL     1      -2.067   1.131   3.131  0.00  0.00    +0.000 A 
ATOM     36  C   UNL     1      -1.947   2.450   3.526  0.00  0.00    +0.003 A 
ATOM     37  C   UNL     1      -1.198   3.332   2.771  0.00  0.00    +0.038 A 
ATOM     38  C   UNL     1      -0.561   2.893   1.622  0.00  0.00    +0.128 A 
ATOM     39  F   UNL     1       0.176   3.753   0.887  0.00  0.00    -0.205 F 
ENDBRANCH  32  33
ENDBRANCH   7  32
TORSDOF 10
