REMARK  Name = ZINC24764372
REMARK  12 active torsions:
REMARK  status: ('A' for Active; 'I' for Inactive)
REMARK    1  A    between atoms: C_1  and  C_2
REMARK    2  A    between atoms: C_2  and  C_3
REMARK    3  A    between atoms: C_2  and  C_4
REMARK    4  A    between atoms: C_4  and  N_5
REMARK    5  A    between atoms: N_5  and  C_6
REMARK    6  A    between atoms: C_7  and  N_22
REMARK    7  A    between atoms: N_8  and  C_15
REMARK    8  A    between atoms: C_15  and  C_16
REMARK    9  A    between atoms: C_23  and  C_25
REMARK   10  A    between atoms: C_25  and  O_26
REMARK   11  A    between atoms: O_26  and  C_27
REMARK   12  A    between atoms: C_27  and  C_29
REMARK                            x       y       z     vdW  Elec       q    Type
REMARK                         _______ _______ _______ _____ _____    ______ ____
ROOT
ATOM      1  N   UNL     1       0.588   3.208   0.537  0.00  0.00    -0.261 N 
ATOM      2  C   UNL     1       1.766   3.848   0.385  0.00  0.00    +0.258 C 
ATOM      3  O   UNL     1       2.806   3.224   0.430  0.00  0.00    -0.272 OA
ENDROOT
BRANCH   1   4
ATOM      4  C   UNL     1       0.559   1.801   0.648  0.00  0.00    +0.140 A 
ATOM      5  C   UNL     1       1.030   1.006  -0.377  0.00  0.00    +0.128 A 
ATOM      6  N   UNL     1       0.988  -0.361  -0.240  0.00  0.00    -0.276 N 
ATOM      7  C   UNL     1       0.492  -0.918   0.880  0.00  0.00    +0.331 A 
ATOM      8  O   UNL     1       0.463  -2.130   0.982  0.00  0.00    -0.246 OA
ATOM      9  N   UNL     1       0.028  -0.160   1.889  0.00  0.00    -0.273 N 
ATOM     10  H   UNL     1      -0.372  -0.636   2.796  0.00  0.00    +0.173 HD
ATOM     11  C   UNL     1       0.047   1.185   1.805  0.00  0.00    +0.277 A 
ATOM     12  O   UNL     1      -0.381   1.863   2.723  0.00  0.00    -0.266 OA
BRANCH   5  13
ATOM     13  N   UNL     1       1.536   1.575  -1.522  0.00  0.00    -0.343 N 
ATOM     14  H   UNL     1       1.909   0.936  -2.335  0.00  0.00    +0.144 HD
ATOM     15  H   UNL     1       1.566   2.670  -1.625  0.00  0.00    +0.144 HD
ENDBRANCH   5  13
BRANCH   6  16
ATOM     16  C   UNL     1       1.484  -1.217  -1.320  0.00  0.00    +0.163 C 
BRANCH  16  17
ATOM     17  C   UNL     1       0.359  -1.529  -2.273  0.00  0.00    -0.028 A 
ATOM     18  C   UNL     1      -0.429  -2.646  -2.070  0.00  0.00    +0.005 A 
ATOM     19  C   UNL     1      -1.465  -2.929  -2.941  0.00  0.00    +0.000 A 
ATOM     20  C   UNL     1      -1.706  -2.100  -4.021  0.00  0.00    +0.000 A 
ATOM     21  C   UNL     1      -0.914  -0.986  -4.226  0.00  0.00    +0.000 A 
ATOM     22  C   UNL     1       0.118  -0.700  -3.353  0.00  0.00    +0.005 A 
ENDBRANCH  16  17
ENDBRANCH   6  16
ENDBRANCH   1   4
BRANCH   1  23
ATOM     23  C   UNL     1      -0.660   3.972   0.587  0.00  0.00    +0.117 C 
BRANCH  23  25
ATOM     24  C   UNL     1      -1.560   2.884  -1.474  0.00  0.00    +0.009 C 
ATOM     25  C   UNL     1      -1.165   4.217  -0.836  0.00  0.00    +0.001 C 
ATOM     26  C   UNL     1      -2.384   5.142  -0.793  0.00  0.00    +0.009 C 
ENDBRANCH  23  25
ENDBRANCH   1  23
BRANCH   2  27
ATOM     27  C   UNL     1       1.790   5.338   0.160  0.00  0.00    +0.328 C 
BRANCH  27  28
ATOM     28  O   UNL     1       3.161   5.775  -0.038  0.00  0.00    -0.453 OA
BRANCH  28  29
ATOM     29  C   UNL     1       3.357   7.085  -0.253  0.00  0.00    +0.352 C 
ATOM     30  O   UNL     1       2.415   7.842  -0.276  0.00  0.00    -0.247 OA
BRANCH  29  31
ATOM     31  C   UNL     1       4.753   7.613  -0.467  0.00  0.00    +0.318 C 
ATOM     32  C   UNL     1       5.319   7.060  -1.782  0.00  0.00    +0.285 C 
ATOM     33  O   UNL     1       6.637   7.590  -1.960  0.00  0.00    -0.484 OA
ATOM     34  C   UNL     1       6.793   8.925  -1.745  0.00  0.00    +0.162 A 
ATOM     35  C   UNL     1       7.922   9.566  -2.234  0.00  0.00    +0.049 A 
ATOM     36  C   UNL     1       8.097  10.920  -2.021  0.00  0.00    +0.004 A 
ATOM     37  C   UNL     1       7.147  11.640  -1.320  0.00  0.00    +0.004 A 
ATOM     38  C   UNL     1       6.019  11.008  -0.832  0.00  0.00    +0.049 A 
ATOM     39  C   UNL     1       5.837   9.649  -1.043  0.00  0.00    +0.163 A 
ATOM     40  O   UNL     1       4.720   9.041  -0.558  0.00  0.00    -0.471 OA
ENDBRANCH  29  31
ENDBRANCH  28  29
ENDBRANCH  27  28
ENDBRANCH   2  27
TORSDOF 10
