REMARK  Name = ZINC48858532
REMARK  4 active torsions:
REMARK  status: ('A' for Active; 'I' for Inactive)
REMARK    1  A    between atoms: C_6  and  S_7
REMARK    2  A    between atoms: S_7  and  N_10
REMARK    3  A    between atoms: C_15  and  C_17
REMARK    4  A    between atoms: C_17  and  O_18
REMARK                            x       y       z     vdW  Elec       q    Type
REMARK                         _______ _______ _______ _____ _____    ______ ____
ROOT
ATOM      1  S   UNL     1      -1.370  -0.824  -0.037  0.00  0.00    +0.061 S 
ATOM      2  O   UNL     1      -1.144  -2.099   0.549  0.00  0.00    -0.153 OA
ATOM      3  O   UNL     1      -2.272   0.122   0.519  0.00  0.00    -0.153 OA
ENDROOT
BRANCH   1   9
ATOM      4  C   UNL     1       0.272   1.351  -0.183  0.00  0.00    +0.030 A 
ATOM      5  C   UNL     1       1.502   1.974  -0.259  0.00  0.00    +0.025 A 
ATOM      6  C   UNL     1       2.666   1.215  -0.283  0.00  0.00    +0.030 A 
ATOM      7  C   UNL     1       2.593  -0.169  -0.228  0.00  0.00    -0.025 A 
ATOM      8  C   UNL     1       1.356  -0.786  -0.154  0.00  0.00    +0.034 A 
ATOM      9  C   UNL     1       0.200  -0.029  -0.132  0.00  0.00    +0.106 A 
ATOM     10  C   UNL     1       3.833  -1.023  -0.241  0.00  0.00    +0.038 C 
ATOM     11  C   UNL     1       5.014  -0.244  -0.820  0.00  0.00    +0.023 C 
ATOM     12  C   UNL     1       5.126   1.101  -0.090  0.00  0.00    +0.102 C 
ATOM     13  N   UNL     1       3.902   1.865  -0.365  0.00  0.00    -0.344 N 
ATOM     14  H   UNL     1       3.950   2.805  -0.599  0.00  0.00    +0.146 HD
ENDBRANCH   1   9
BRANCH   1  15
ATOM     15  N   UNL     1      -1.873  -1.100  -1.591  0.00  0.00    -0.171 NA
ATOM     16  C   UNL     1      -2.786  -0.163  -2.260  0.00  0.00    +0.110 C 
ATOM     17  C   UNL     1      -3.994  -0.944  -2.787  0.00  0.00    +0.017 C 
ATOM     18  C   UNL     1      -3.506  -2.090  -3.677  0.00  0.00    +0.003 C 
ATOM     19  C   UNL     1      -2.637  -3.043  -2.854  0.00  0.00    +0.023 C 
ATOM     20  C   UNL     1      -1.409  -2.283  -2.329  0.00  0.00    +0.105 C 
BRANCH  20  21
ATOM     21  C   UNL     1      -0.605  -3.188  -1.394  0.00  0.00    +0.176 C 
BRANCH  21  22
ATOM     22  O   UNL     1      -1.493  -3.853  -0.493  0.00  0.00    -0.393 OA
ATOM     23  H   UNL     1      -1.050  -4.445   0.130  0.00  0.00    +0.209 HD
ENDBRANCH  21  22
ENDBRANCH  20  21
ENDBRANCH   1  15
TORSDOF 4
