REMARK  Name = ZINC36347184
REMARK  11 active torsions:
REMARK  status: ('A' for Active; 'I' for Inactive)
REMARK    1  A    between atoms: C_1  and  C_2
REMARK    2  A    between atoms: C_2  and  C_3
REMARK    3  A    between atoms: C_2  and  C_4
REMARK    4  A    between atoms: C_4  and  C_5
REMARK    5  A    between atoms: N_7  and  C_8
REMARK    6  A    between atoms: C_8  and  C_10
REMARK    7  A    between atoms: C_8  and  C_23
REMARK    8  A    between atoms: N_18  and  C_19
REMARK    9  A    between atoms: C_19  and  C_20
REMARK   10  A    between atoms: C_19  and  C_21
REMARK   11  A    between atoms: C_19  and  C_22
REMARK                            x       y       z     vdW  Elec       q    Type
REMARK                         _______ _______ _______ _____ _____    ______ ____
ROOT
ATOM      1  C   UNL     1      -4.083   0.063  -2.821  0.00  0.00    +0.162 C 
ENDROOT
BRANCH   1   2
ATOM      2  C   UNL     1      -4.424   1.469  -3.319  0.00  0.00    +0.021 C 
ATOM      3  C   UNL     1      -5.077   1.376  -4.699  0.00  0.00    +0.025 C 
ATOM      4  C   UNL     1      -5.386   2.787  -5.210  0.00  0.00    +0.109 C 
ATOM      5  N   UNL     1      -6.196   3.487  -4.204  0.00  0.00    -0.286 N 
ATOM      6  C   UNL     1      -5.702   3.556  -2.822  0.00  0.00    +0.109 C 
ATOM      7  C   UNL     1      -5.391   2.136  -2.338  0.00  0.00    +0.025 C 
ATOM      8  C   UNL     1      -7.370   4.056  -4.543  0.00  0.00    +0.303 C 
ATOM      9  O   UNL     1      -7.817   3.907  -5.664  0.00  0.00    -0.253 OA
ATOM     10  N   UNL     1      -8.050   4.789  -3.639  0.00  0.00    -0.294 N 
ATOM     11  H   UNL     1      -7.729   4.852  -2.726  0.00  0.00    +0.151 HD
BRANCH  10  12
ATOM     12  C   UNL     1      -9.273   5.491  -4.036  0.00  0.00    +0.028 C 
ATOM     13  C   UNL     1     -10.303   4.477  -4.538  0.00  0.00    +0.031 C 
ATOM     14  C   UNL     1      -9.843   6.243  -2.831  0.00  0.00    +0.031 C 
ATOM     15  C   UNL     1      -8.951   6.486  -5.152  0.00  0.00    +0.031 C 
ENDBRANCH  10  12
ENDBRANCH   1   2
BRANCH   1  16
ATOM     16  C   UNL     1      -3.187  -0.621  -3.821  0.00  0.00    +0.236 C 
ATOM     17  O   UNL     1      -1.994  -0.403  -3.815  0.00  0.00    -0.274 OA
ATOM     18  N   UNL     1      -3.711  -1.476  -4.722  0.00  0.00    -0.300 N 
ATOM     19  C   UNL     1      -5.166  -1.642  -4.836  0.00  0.00    +0.108 C 
ATOM     20  C   UNL     1      -5.575  -1.417  -6.295  0.00  0.00    +0.019 C 
ATOM     21  C   UNL     1      -4.762  -2.349  -7.198  0.00  0.00    +0.003 C 
ATOM     22  C   UNL     1      -3.273  -2.026  -7.058  0.00  0.00    +0.019 C 
ATOM     23  C   UNL     1      -2.838  -2.253  -5.612  0.00  0.00    +0.108 C 
ENDBRANCH   1  16
BRANCH   1  26
ATOM     24  C   UNL     1      -2.229   0.826  -1.436  0.00  0.00    +0.214 C 
ATOM     25  O   UNL     1      -1.750   1.352  -2.418  0.00  0.00    -0.276 OA
ATOM     26  N   UNL     1      -3.394   0.155  -1.531  0.00  0.00    -0.304 N 
ATOM     27  H   UNL     1      -3.777  -0.266  -0.745  0.00  0.00    +0.149 HD
BRANCH  24  28
ATOM     28  C   UNL     1      -1.520   0.921  -0.109  0.00  0.00    +0.098 C 
BRANCH  28  30
ATOM     29  C   UNL     1      -0.579   3.170  -0.653  0.00  0.00    +0.008 C 
ATOM     30  C   UNL     1      -0.232   1.729  -0.276  0.00  0.00    -0.008 C 
ATOM     31  C   UNL     1       0.549   1.721   1.040  0.00  0.00    +0.008 C 
ENDBRANCH  28  30
ENDBRANCH  24  28
ENDBRANCH   1  26
TORSDOF 6
