REMARK  Name = ZINC02926249
REMARK  11 active torsions:
REMARK  status: ('A' for Active; 'I' for Inactive)
REMARK    1  A    between atoms: C_1  and  C_2
REMARK    2  A    between atoms: C_2  and  S_3
REMARK    3  A    between atoms: S_3  and  C_4
REMARK    4  A    between atoms: C_4  and  C_5
REMARK    5  A    between atoms: C_5  and  O_6
REMARK    6  A    between atoms: O_6  and  C_7
REMARK    7  A    between atoms: C_7  and  C_9
REMARK    8  A    between atoms: C_10  and  C_38
REMARK    9  A    between atoms: C_14  and  C_16
REMARK   10  A    between atoms: C_19  and  N_22
REMARK   11  A    between atoms: C_28  and  C_31
REMARK                            x       y       z     vdW  Elec       q    Type
REMARK                         _______ _______ _______ _____ _____    ______ ____
ROOT
ATOM      1  C   UNL     1      -0.595  10.760  -1.385  0.00  0.00    +0.065 C 
ATOM      2  C   UNL     1      -0.628   9.932  -2.444  0.00  0.00    +0.016 C 
ATOM      3  N   UNL     1      -0.989   8.623  -2.289  0.00  0.00    -0.321 N 
ATOM      4  C   UNL     1      -0.941   8.026  -1.058  0.00  0.00    +0.016 C 
ATOM      5  C   UNL     1      -0.914   8.775   0.066  0.00  0.00    +0.024 C 
ATOM      6  C   UNL     1      -0.958  10.280  -0.011  0.00  0.00    +0.092 C 
ATOM      7  C   UNL     1      -0.848   8.175   1.335  0.00  0.00    +0.162 C 
ATOM      8  O   UNL     1      -0.835   8.877   2.327  0.00  0.00    -0.292 OA
ATOM      9  C   UNL     1      -0.793   6.679   1.490  0.00  0.00    +0.088 C 
ATOM     10  C   UNL     1      -0.134   6.073   0.247  0.00  0.00    +0.032 C 
ATOM     11  C   UNL     1      -0.921   6.519  -0.988  0.00  0.00    +0.059 C 
ATOM     12  C   UNL     1      -0.263  10.450  -3.811  0.00  0.00    +0.061 C 
ATOM     13  H   UNL     1      -1.322   8.037  -3.158  0.00  0.00    +0.152 HD
ENDROOT
BRANCH  10  14
ATOM     14  C   UNL     1      -0.155   4.569   0.344  0.00  0.00    -0.043 A 
ATOM     15  C   UNL     1       1.031   3.860   0.339  0.00  0.00    +0.005 A 
ATOM     16  C   UNL     1       1.012   2.481   0.428  0.00  0.00    +0.020 A 
ATOM     17  C   UNL     1      -0.195   1.810   0.523  0.00  0.00    +0.041 A 
ATOM     18  C   UNL     1      -1.382   2.521   0.524  0.00  0.00    +0.020 A 
ATOM     19  C   UNL     1      -1.361   3.901   0.439  0.00  0.00    +0.005 A 
ATOM     20 CL   UNL     1      -0.220   0.078   0.636  0.00  0.00    -0.084 Cl
ENDBRANCH  10  14
BRANCH   6  21
ATOM     21  C   UNL     1      -2.349  10.752   0.327  0.00  0.00    -0.035 A 
ATOM     22  C   UNL     1      -3.422  10.347  -0.444  0.00  0.00    +0.007 A 
ATOM     23  C   UNL     1      -4.699  10.776  -0.131  0.00  0.00    +0.033 A 
ATOM     24  C   UNL     1      -4.900  11.618   0.946  0.00  0.00    +0.126 A 
ATOM     25  C   UNL     1      -3.826  12.027   1.714  0.00  0.00    +0.033 A 
ATOM     26  C   UNL     1      -2.550  11.594   1.405  0.00  0.00    +0.007 A 
BRANCH  24  27
ATOM     27  N   UNL     1      -6.266  12.082   1.278  0.00  0.00    +0.056 N 
ATOM     28  O   UNL     1      -6.444  12.825   2.227  0.00  0.00    -0.126 OA
ATOM     29  O   UNL     1      -7.213  11.722   0.601  0.00  0.00    -0.126 OA
ENDBRANCH  24  27
ENDBRANCH   6  21
BRANCH   1  30
ATOM     30  C   UNL     1      -0.212  12.109  -1.571  0.00  0.00    +0.338 C 
ATOM     31  O   UNL     1       0.185  12.484  -2.658  0.00  0.00    -0.245 OA
BRANCH  30  32
ATOM     32  O   UNL     1      -0.286  12.979  -0.542  0.00  0.00    -0.460 OA
BRANCH  32  33
ATOM     33  C   UNL     1       0.117  14.325  -0.801  0.00  0.00    +0.243 C 
BRANCH  33  34
ATOM     34  C   UNL     1      -0.036  15.157   0.474  0.00  0.00    +0.110 C 
BRANCH  34  35
ATOM     35  S   UNL     1       0.476  16.866   0.146  0.00  0.00    -0.158 S 
BRANCH  35  37
ATOM     36  C   UNL     1       0.637  19.179   1.597  0.00  0.00    +0.015 C 
ATOM     37  C   UNL     1       0.237  17.709   1.734  0.00  0.00    +0.066 C 
ENDBRANCH  35  37
ENDBRANCH  34  35
ENDBRANCH  33  34
ENDBRANCH  32  33
ENDBRANCH  30  32
ENDBRANCH   1  30
TORSDOF 9
