REMARK  Name = ZINC39982909
REMARK  10 active torsions:
REMARK  status: ('A' for Active; 'I' for Inactive)
REMARK    1  A    between atoms: C_1  and  C_2
REMARK    2  A    between atoms: C_3  and  O_31
REMARK    3  A    between atoms: C_6  and  C_9
REMARK    4  A    between atoms: C_7  and  O_8
REMARK    5  A    between atoms: C_10  and  C_19
REMARK    6  A    between atoms: C_11  and  C_15
REMARK    7  A    between atoms: C_22  and  C_27
REMARK    8  A    between atoms: C_24  and  C_26
REMARK    9  A    between atoms: C_27  and  O_29
REMARK   10  A    between atoms: O_29  and  C_30
REMARK                            x       y       z     vdW  Elec       q    Type
REMARK                         _______ _______ _______ _____ _____    ______ ____
ROOT
ATOM      1  C   UNL     1      -0.078  -2.838   2.394  0.00  0.00    +0.099 C 
ATOM      2  C   UNL     1       0.188  -2.282   3.592  0.00  0.00    +0.003 C 
ATOM      3  C   UNL     1       0.370  -3.474   4.514  0.00  0.00    +0.260 C 
ATOM      4  N   UNL     1       0.161  -4.625   3.620  0.00  0.00    -0.170 NA
ATOM      5  N   UNL     1      -0.082  -4.194   2.491  0.00  0.00    -0.153 NA
ENDROOT
BRANCH   1  11
ATOM      6  C   UNL     1      -2.993   0.211  -0.292  0.00  0.00    +0.051 C 
ATOM      7  C   UNL     1      -1.738  -0.610  -0.149  0.00  0.00    +0.033 A 
ATOM      8  C   UNL     1      -0.818  -0.658  -1.186  0.00  0.00    +0.123 A 
ATOM      9  C   UNL     1       0.340  -1.414  -1.059  0.00  0.00    +0.046 A 
ATOM     10  C   UNL     1       0.583  -2.121   0.100  0.00  0.00    +0.017 A 
ATOM     11  C   UNL     1      -0.336  -2.079   1.147  0.00  0.00    +0.044 A 
ATOM     12  C   UNL     1      -1.500  -1.313   1.020  0.00  0.00    +0.132 A 
BRANCH  12  13
ATOM     13  O   UNL     1      -2.397  -1.263   2.039  0.00  0.00    -0.506 OA
ATOM     14  H   UNL     1      -3.031  -1.993   2.041  0.00  0.00    +0.292 HD
ENDBRANCH  12  13
BRANCH   8  15
ATOM     15  O   UNL     1      -1.051   0.037  -2.330  0.00  0.00    -0.506 OA
ATOM     16  H   UNL     1      -0.699   0.938  -2.322  0.00  0.00    +0.292 HD
ENDBRANCH   8  15
ENDBRANCH   1  11
BRANCH   2  17
ATOM     17  C   UNL     1       0.283  -0.818   3.936  0.00  0.00    +0.086 C 
ATOM     18  C   UNL     1       0.013   0.046   2.716  0.00  0.00    +0.037 C 
ATOM     19  C   UNL     1       1.191   0.489   2.278  0.00  0.00    +0.202 C 
ATOM     20  O   UNL     1       2.237   0.044   3.018  0.00  0.00    -0.482 OA
ATOM     21  C   UNL     1       1.739  -0.425   4.287  0.00  0.00    +0.182 C 
ATOM     22  C   UNL     1       2.532  -1.641   4.771  0.00  0.00    +0.053 C 
BRANCH  19  23
ATOM     23  C   UNL     1       1.343   1.372   1.108  0.00  0.00    +0.374 C 
ATOM     24  O   UNL     1       0.362   1.734   0.489  0.00  0.00    -0.242 OA
BRANCH  23  25
ATOM     25  O   UNL     1       2.569   1.778   0.725  0.00  0.00    -0.462 OA
ATOM     26  C   UNL     1       2.642   2.634  -0.418  0.00  0.00    +0.280 C 
ENDBRANCH  23  25
ENDBRANCH  19  23
ENDBRANCH   2  17
BRANCH   3  27
ATOM     27  C   UNL     1      -0.675  -3.457   5.632  0.00  0.00    +0.417 C 
ATOM     28  F   UNL     1      -1.955  -3.389   5.072  0.00  0.00    -0.168 F 
ATOM     29  F   UNL     1      -0.561  -4.624   6.395  0.00  0.00    -0.168 F 
ATOM     30  F   UNL     1      -0.464  -2.342   6.451  0.00  0.00    -0.168 F 
ENDBRANCH   3  27
TORSDOF 7
