REMARK  Name = ZINC39929029
REMARK  14 active torsions:
REMARK  status: ('A' for Active; 'I' for Inactive)
REMARK    1  A    between atoms: C_1  and  C_2
REMARK    2  A    between atoms: C_6  and  N_9
REMARK    3  A    between atoms: C_7  and  C_8
REMARK    4  A    between atoms: N_9  and  C_10
REMARK    5  A    between atoms: C_10  and  C_11
REMARK    6  A    between atoms: C_16  and  O_23
REMARK    7  A    between atoms: O_23  and  C_24
REMARK    8  A    between atoms: C_25  and  C_27
REMARK    9  A    between atoms: C_29  and  O_37
REMARK   10  A    between atoms: C_30  and  O_35
REMARK   11  A    between atoms: C_31  and  O_33
REMARK   12  A    between atoms: O_33  and  C_34
REMARK   13  A    between atoms: O_35  and  C_36
REMARK   14  A    between atoms: O_37  and  C_38
REMARK                            x       y       z     vdW  Elec       q    Type
REMARK                         _______ _______ _______ _____ _____    ______ ____
ROOT
ATOM      1  N   UNL     1       0.208  -2.879   2.586  0.00  0.00    -0.266 N 
ATOM      2  C   UNL     1      -0.970  -3.351   3.039  0.00  0.00    +0.251 C 
ATOM      3  O   UNL     1      -0.991  -4.248   3.859  0.00  0.00    -0.270 OA
ENDROOT
BRANCH   1   9
ATOM      4  C   UNL     1       0.907  -1.808  -2.160  0.00  0.00    +0.044 C 
ATOM      5  C   UNL     1       0.570  -1.386  -0.754  0.00  0.00    -0.046 A 
ATOM      6  C   UNL     1       0.285  -0.060  -0.480  0.00  0.00    +0.004 A 
ATOM      7  C   UNL     1      -0.025   0.331   0.810  0.00  0.00    +0.002 A 
ATOM      8  C   UNL     1      -0.051  -0.601   1.829  0.00  0.00    +0.024 A 
ATOM      9  C   UNL     1       0.234  -1.933   1.557  0.00  0.00    +0.040 A 
ATOM     10  C   UNL     1       0.539  -2.324   0.259  0.00  0.00    -0.026 A 
ATOM     11  C   UNL     1       0.844  -3.769  -0.041  0.00  0.00    +0.046 C 
ENDBRANCH   1   9
BRANCH   2  12
ATOM     12  C   UNL     1      -2.235  -2.778   2.539  0.00  0.00    +0.044 A 
ATOM     13  C   UNL     1      -2.392  -2.509   1.177  0.00  0.00    +0.062 A 
ATOM     14  C   UNL     1      -3.578  -1.973   0.711  0.00  0.00    +0.166 A 
ATOM     15  C   UNL     1      -4.616  -1.702   1.598  0.00  0.00    +0.204 A 
ATOM     16  C   UNL     1      -4.463  -1.969   2.956  0.00  0.00    +0.166 A 
ATOM     17  C   UNL     1      -3.281  -2.510   3.426  0.00  0.00    +0.062 A 
BRANCH  16  18
ATOM     18  O   UNL     1      -5.478  -1.701   3.820  0.00  0.00    -0.491 OA
ATOM     19  C   UNL     1      -5.253  -2.000   5.199  0.00  0.00    +0.277 C 
ENDBRANCH  16  18
BRANCH  15  20
ATOM     20  O   UNL     1      -5.781  -1.174   1.138  0.00  0.00    -0.488 OA
ATOM     21  C   UNL     1      -6.797  -2.096   0.739  0.00  0.00    +0.277 C 
ENDBRANCH  15  20
BRANCH  14  22
ATOM     22  O   UNL     1      -3.730  -1.711  -0.615  0.00  0.00    -0.491 OA
ATOM     23  C   UNL     1      -2.662  -2.100  -1.480  0.00  0.00    +0.277 C 
ENDBRANCH  14  22
ENDBRANCH   2  12
BRANCH   1  24
ATOM     24  C   UNL     1       1.463  -3.357   3.173  0.00  0.00    +0.131 C 
BRANCH  24  25
ATOM     25  C   UNL     1       1.903  -2.402   4.284  0.00  0.00    +0.116 C 
ATOM     26  C   UNL     1       3.345  -2.721   4.627  0.00  0.00    -0.003 C 
ATOM     27  C   UNL     1       3.620  -3.063   5.917  0.00  0.00    -0.004 A 
ATOM     28  C   UNL     1       4.986  -3.386   6.332  0.00  0.00    +0.055 A 
ATOM     29  C   UNL     1       5.214  -3.724   7.632  0.00  0.00    +0.121 A 
ATOM     30  C   UNL     1       4.171  -3.765   8.566  0.00  0.00    +0.047 A 
ATOM     31  C   UNL     1       2.885  -3.476   8.240  0.00  0.00    +0.027 A 
ATOM     32  C   UNL     1       2.544  -3.116   6.922  0.00  0.00    +0.041 A 
ATOM     33  N   UNL     1       1.278  -2.835   6.617  0.00  0.00    -0.284 N 
ATOM     34  C   UNL     1       0.888  -2.491   5.401  0.00  0.00    +0.226 C 
ATOM     35  O   UNL     1      -0.283  -2.247   5.183  0.00  0.00    -0.275 OA
ATOM     36  H   UNL     1       0.611  -2.885   7.319  0.00  0.00    +0.155 HD
BRANCH  29  37
ATOM     37  O   UNL     1       6.478  -4.026   8.030  0.00  0.00    -0.495 OA
ATOM     38  C   UNL     1       6.660  -4.373   9.405  0.00  0.00    +0.277 C 
ENDBRANCH  29  37
ENDBRANCH  24  25
ENDBRANCH   1  24
TORSDOF 8
