REMARK  Name = ZINC39545568
REMARK  6 active torsions:
REMARK  status: ('A' for Active; 'I' for Inactive)
REMARK    1  A    between atoms: C_4  and  O_7
REMARK    2  A    between atoms: O_7  and  S_8
REMARK    3  A    between atoms: S_8  and  C_11
REMARK    4  A    between atoms: C_13  and  C_25
REMARK    5  A    between atoms: N_27  and  C_28
REMARK    6  A    between atoms: C_33  and  O_34
REMARK                            x       y       z     vdW  Elec       q    Type
REMARK                         _______ _______ _______ _____ _____    ______ ____
ROOT
ATOM      1  C   UNL     1       3.068  -2.380   1.880  0.00  0.00    +0.142 C 
ATOM      2  C   UNL     1       1.572  -2.367   2.102  0.00  0.00    +0.092 C 
ATOM      3  C   UNL     1       1.243  -3.812   2.522  0.00  0.00    +0.152 C 
ATOM      4  N   UNL     1       2.550  -4.489   2.532  0.00  0.00    -0.368 NA
ATOM      5  C   UNL     1       3.533  -3.579   2.121  0.00  0.00    +0.100 C 
ATOM      6  N   UNL     1       4.872  -3.989   1.983  0.00  0.00    -0.302 N 
ATOM      7  C   UNL     1       5.042  -5.301   1.508  0.00  0.00    +0.037 A 
ATOM      8  C   UNL     1       6.316  -5.775   1.229  0.00  0.00    +0.023 A 
ATOM      9  C   UNL     1       6.483  -7.067   0.771  0.00  0.00    +0.002 A 
ATOM     10  C   UNL     1       5.380  -7.883   0.594  0.00  0.00    +0.000 A 
ATOM     11  C   UNL     1       4.112  -7.410   0.869  0.00  0.00    +0.007 A 
ATOM     12  C   UNL     1       3.932  -6.114   1.324  0.00  0.00    -0.010 A 
ATOM     13  C   UNL     1       2.541  -5.622   1.600  0.00  0.00    +0.124 C 
ATOM     14  H   UNL     1       5.620  -3.411   2.199  0.00  0.00    +0.153 HD
ATOM     15  H   UNL     1       2.757  -4.815   3.464  0.00  0.00    +0.129 HD
ENDROOT
BRANCH   3  16
ATOM     16  C   UNL     1       0.319  -4.456   1.520  0.00  0.00    +0.253 C 
ATOM     17  O   UNL     1       0.299  -4.062   0.373  0.00  0.00    -0.272 OA
ATOM     18  N   UNL     1      -0.485  -5.470   1.899  0.00  0.00    -0.177 N 
ATOM     19 CL   UNL     1      -0.457  -6.024   3.516  0.00  0.00    +0.009 Cl
BRANCH  18  20
ATOM     20  C   UNL     1      -1.343  -6.068   0.968  0.00  0.00    +0.094 A 
ATOM     21  C   UNL     1      -0.880  -7.090   0.151  0.00  0.00    +0.028 A 
ATOM     22  C   UNL     1      -1.729  -7.679  -0.766  0.00  0.00    +0.002 A 
ATOM     23  C   UNL     1      -3.041  -7.253  -0.874  0.00  0.00    +0.004 A 
ATOM     24  C   UNL     1      -3.509  -6.236  -0.063  0.00  0.00    +0.047 A 
ATOM     25  C   UNL     1      -2.666  -5.644   0.863  0.00  0.00    +0.139 A 
BRANCH  25  26
ATOM     26  O   UNL     1      -3.127  -4.647   1.665  0.00  0.00    -0.505 OA
ATOM     27  H   UNL     1      -3.021  -3.761   1.292  0.00  0.00    +0.292 HD
ENDBRANCH  25  26
ENDBRANCH  18  20
ENDBRANCH   3  16
BRANCH   1  28
ATOM     28  S   UNL     1       4.033  -0.997   1.369  0.00  0.00    +0.150 S 
ATOM     29  O   UNL     1       5.389  -1.420   1.384  0.00  0.00    -0.132 OA
ATOM     30  O   UNL     1       3.574   0.118   2.122  0.00  0.00    -0.132 OA
BRANCH  28  31
ATOM     31  O   UNL     1       3.681  -0.715  -0.084  0.00  0.00    -0.342 OA
BRANCH  31  35
ATOM     32  C   UNL     1       5.321  -3.394  -2.759  0.00  0.00    +0.000 A 
ATOM     33  C   UNL     1       4.112  -3.678  -2.152  0.00  0.00    +0.004 A 
ATOM     34  C   UNL     1       3.561  -2.782  -1.256  0.00  0.00    +0.048 A 
ATOM     35  C   UNL     1       4.222  -1.598  -0.965  0.00  0.00    +0.157 A 
ATOM     36  C   UNL     1       5.435  -1.316  -1.575  0.00  0.00    +0.048 A 
ATOM     37  C   UNL     1       5.982  -2.214  -2.470  0.00  0.00    +0.004 A 
ENDBRANCH  31  35
ENDBRANCH  28  31
ENDBRANCH   1  28
TORSDOF 6
