REMARK  Name = ZINC17011047
REMARK  8 active torsions:
REMARK  status: ('A' for Active; 'I' for Inactive)
REMARK    1  A    between atoms: C_1  and  C_2
REMARK    2  A    between atoms: C_6  and  C_29
REMARK    3  A    between atoms: C_7  and  N_8
REMARK    4  A    between atoms: C_9  and  C_11
REMARK    5  A    between atoms: N_15  and  O_18
REMARK    6  A    between atoms: O_18  and  C_19
REMARK    7  A    between atoms: C_19  and  C_20
REMARK    8  A    between atoms: C_24  and  N_26
REMARK                            x       y       z     vdW  Elec       q    Type
REMARK                         _______ _______ _______ _____ _____    ______ ____
ROOT
ATOM      1  C   UNL     1       1.347   8.592  -1.417  0.00  0.00    +0.104 A 
ATOM      2  C   UNL     1       0.177   8.752  -0.678  0.00  0.00    +0.020 A 
ATOM      3  C   UNL     1      -0.907   7.913  -0.939  0.00  0.00    +0.022 A 
ATOM      4  C   UNL     1      -0.816   6.962  -1.903  0.00  0.00    +0.133 A 
ATOM      5  N   UNL     1       0.320   6.797  -2.622  0.00  0.00    -0.151 N 
ATOM      6  C   UNL     1       1.395   7.580  -2.411  0.00  0.00    +0.296 A 
ATOM      7  O   UNL     1       2.407   7.420  -3.072  0.00  0.00    -0.264 OA
ENDROOT
BRANCH   1   9
ATOM      8  N   UNL     1       3.585   9.386  -1.983  0.00  0.00    -0.281 N 
ATOM      9  C   UNL     1       2.511   9.457  -1.173  0.00  0.00    +0.254 C 
ATOM     10  O   UNL     1       2.504  10.236  -0.238  0.00  0.00    -0.270 OA
ATOM     11  H   UNL     1       3.569   8.805  -2.760  0.00  0.00    +0.155 HD
BRANCH   8  18
ATOM     12  C   UNL     1       3.380  12.218  -2.168  0.00  0.00    +0.046 C 
ATOM     13  C   UNL     1       4.667  11.536  -1.782  0.00  0.00    -0.028 A 
ATOM     14  C   UNL     1       5.791  12.287  -1.502  0.00  0.00    +0.020 A 
ATOM     15  C   UNL     1       6.975  11.661  -1.153  0.00  0.00    +0.018 A 
ATOM     16  C   UNL     1       7.035  10.281  -1.080  0.00  0.00    +0.020 A 
ATOM     17  C   UNL     1       5.913   9.524  -1.355  0.00  0.00    -0.028 A 
ATOM     18  C   UNL     1       4.723  10.150  -1.704  0.00  0.00    +0.040 A 
ATOM     19  C   UNL     1       5.979   8.021  -1.276  0.00  0.00    +0.046 C 
ATOM     20 BR   UNL     1       8.513  12.694  -0.776  0.00  0.00    -0.050 Br
ENDBRANCH   8  18
ENDBRANCH   1   9
BRANCH   5  21
ATOM     21  O   UNL     1       0.376   5.790  -3.615  0.00  0.00    -0.404 OA
BRANCH  21  22
ATOM     22  C   UNL     1       0.843   4.527  -3.137  0.00  0.00    +0.296 C 
BRANCH  22  23
ATOM     23  C   UNL     1       0.862   3.536  -4.272  0.00  0.00    -0.006 A 
ATOM     24  C   UNL     1       1.995   3.399  -5.052  0.00  0.00    +0.007 A 
ATOM     25  C   UNL     1       2.012   2.489  -6.093  0.00  0.00    +0.003 A 
ATOM     26  C   UNL     1       0.896   1.717  -6.354  0.00  0.00    +0.033 A 
ATOM     27  C   UNL     1      -0.239   1.857  -5.578  0.00  0.00    +0.127 A 
ATOM     28  C   UNL     1      -0.255   2.764  -4.534  0.00  0.00    +0.039 A 
BRANCH  27  29
ATOM     29  N   UNL     1      -1.436   1.035  -5.862  0.00  0.00    +0.056 N 
ATOM     30  O   UNL     1      -1.421   0.233  -6.779  0.00  0.00    -0.126 OA
ATOM     31  O   UNL     1      -2.437   1.159  -5.178  0.00  0.00    -0.126 OA
ENDBRANCH  27  29
ENDBRANCH  22  23
ENDBRANCH  21  22
ENDBRANCH   5  21
TORSDOF 6
