REMARK  Name = ZINC16840124
REMARK  9 active torsions:
REMARK  status: ('A' for Active; 'I' for Inactive)
REMARK    1  A    between atoms: C_1  and  C_2
REMARK    2  A    between atoms: C_5  and  S_9
REMARK    3  A    between atoms: C_6  and  C_8
REMARK    4  A    between atoms: S_9  and  C_12
REMARK    5  A    between atoms: C_15  and  S_19
REMARK    6  A    between atoms: S_19  and  C_20
REMARK    7  A    between atoms: C_20  and  C_21
REMARK    8  A    between atoms: N_23  and  C_24
REMARK    9  A    between atoms: C_29  and  C_30
REMARK                            x       y       z     vdW  Elec       q    Type
REMARK                         _______ _______ _______ _____ _____    ______ ____
ROOT
ATOM      1  C   UNL     1       1.602  -4.989   0.702  0.00  0.00    +0.177 A 
ATOM      2  C   UNL     1       1.639  -5.695   1.891  0.00  0.00    +0.146 A 
ATOM      3  N   UNL     1       2.808  -6.069   2.386  0.00  0.00    -0.228 NA
ATOM      4  C   UNL     1       3.938  -5.777   1.757  0.00  0.00    +0.192 A 
ATOM      5  N   UNL     1       3.944  -5.101   0.617  0.00  0.00    -0.182 NA
ATOM      6  C   UNL     1       2.806  -4.701   0.062  0.00  0.00    +0.299 A 
ATOM      7  O   UNL     1       2.816  -4.017  -1.108  0.00  0.00    -0.264 OA
ENDROOT
BRANCH   1   8
ATOM      8  S   UNL     1       0.067  -4.472   0.009  0.00  0.00    +0.032 S 
ATOM      9  O   UNL     1      -0.948  -4.895   0.909  0.00  0.00    -0.164 OA
ATOM     10  O   UNL     1       0.085  -4.864  -1.357  0.00  0.00    -0.164 OA
BRANCH   8  15
ATOM     11  C   UNL     1       0.021   1.561   0.071  0.00  0.00    +0.044 C 
ATOM     12  C   UNL     1       0.033   0.054   0.056  0.00  0.00    -0.050 A 
ATOM     13  C   UNL     1       0.029  -0.625  -1.149  0.00  0.00    +0.005 A 
ATOM     14  C   UNL     1       0.040  -2.007  -1.163  0.00  0.00    +0.028 A 
ATOM     15  C   UNL     1       0.054  -2.710   0.027  0.00  0.00    +0.097 A 
ATOM     16  C   UNL     1       0.059  -2.031   1.231  0.00  0.00    -0.025 A 
ATOM     17  C   UNL     1       0.053  -0.649   1.245  0.00  0.00    +0.008 A 
ATOM     18  C   UNL     1       0.075  -2.798   2.528  0.00  0.00    +0.046 C 
ENDBRANCH   8  15
ENDBRANCH   1   8
BRANCH   4  19
ATOM     19  S   UNL     1       5.470  -6.297   2.456  0.00  0.00    -0.077 S 
BRANCH  19  20
ATOM     20  C   UNL     1       6.715  -5.690   1.284  0.00  0.00    +0.173 C 
BRANCH  20  21
ATOM     21  C   UNL     1       8.089  -6.073   1.769  0.00  0.00    +0.227 C 
ATOM     22  O   UNL     1       8.217  -6.694   2.803  0.00  0.00    -0.275 OA
ATOM     23  N   UNL     1       9.177  -5.725   1.053  0.00  0.00    -0.285 N 
ATOM     24  H   UNL     1       9.073  -5.300   0.188  0.00  0.00    +0.155 HD
BRANCH  23  25
ATOM     25  C   UNL     1      10.457  -5.978   1.559  0.00  0.00    +0.036 A 
ATOM     26  C   UNL     1      10.655  -6.089   2.929  0.00  0.00    +0.023 A 
ATOM     27  C   UNL     1      11.919  -6.339   3.425  0.00  0.00    +0.002 A 
ATOM     28  C   UNL     1      12.989  -6.477   2.559  0.00  0.00    +0.000 A 
ATOM     29  C   UNL     1      12.795  -6.367   1.194  0.00  0.00    +0.005 A 
ATOM     30  C   UNL     1      11.532  -6.124   0.692  0.00  0.00    -0.029 A 
ATOM     31  C   UNL     1      11.321  -6.011  -0.796  0.00  0.00    +0.045 C 
ENDBRANCH  23  25
ENDBRANCH  20  21
ENDBRANCH  19  20
ENDBRANCH   4  19
TORSDOF 6
