REMARK  Name = ZINC19501981
REMARK  10 active torsions:
REMARK  status: ('A' for Active; 'I' for Inactive)
REMARK    1  A    between atoms: C_1  and  C_2
REMARK    2  A    between atoms: C_2  and  C_3
REMARK    3  A    between atoms: C_3  and  C_4
REMARK    4  A    between atoms: C_4  and  C_31
REMARK    5  A    between atoms: C_9  and  C_12
REMARK    6  A    between atoms: C_15  and  C_18
REMARK    7  A    between atoms: N_21  and  C_24
REMARK    8  A    between atoms: C_27  and  C_30
REMARK    9  A    between atoms: C_31  and  O_33
REMARK   10  A    between atoms: O_33  and  C_34
REMARK                            x       y       z     vdW  Elec       q    Type
REMARK                         _______ _______ _______ _____ _____    ______ ____
ROOT
ATOM      1  C   UNL     1      -1.628  -1.925   0.292  0.00  0.00    +0.129 C 
ATOM      2  C   UNL     1      -3.034  -2.434  -0.086  0.00  0.00    +0.120 C 
ATOM      3  C   UNL     1      -2.927  -2.822  -1.586  0.00  0.00    +0.111 C 
ATOM      4  C   UNL     1      -1.471  -2.495  -1.976  0.00  0.00    +0.097 C 
ATOM      5  N   UNL     1      -0.717  -2.567  -0.691  0.00  0.00    -0.293 NA
ATOM      6  C   UNL     1      -3.131  -4.320  -1.575  0.00  0.00    +0.232 C 
ATOM      7  O   UNL     1      -3.123  -5.035  -2.553  0.00  0.00    -0.274 OA
ATOM      8  N   UNL     1      -3.320  -4.733  -0.316  0.00  0.00    -0.210 N 
ATOM      9  C   UNL     1      -3.292  -3.750   0.613  0.00  0.00    +0.232 C 
ATOM     10  O   UNL     1      -3.445  -3.890   1.807  0.00  0.00    -0.274 OA
ATOM     11  H   UNL     1       0.154  -2.063  -0.759  0.00  0.00    +0.124 HD
ENDROOT
BRANCH   4  12
ATOM     12  C   UNL     1      -0.941  -3.527  -2.938  0.00  0.00    -0.030 A 
ATOM     13  C   UNL     1      -0.498  -4.749  -2.466  0.00  0.00    +0.005 A 
ATOM     14  C   UNL     1      -0.012  -5.696  -3.349  0.00  0.00    +0.003 A 
ATOM     15  C   UNL     1       0.030  -5.421  -4.703  0.00  0.00    -0.050 A 
ATOM     16  C   UNL     1      -0.414  -4.200  -5.175  0.00  0.00    +0.003 A 
ATOM     17  C   UNL     1      -0.904  -3.255  -4.293  0.00  0.00    +0.005 A 
ATOM     18  C   UNL     1       0.560  -6.453  -5.665  0.00  0.00    +0.044 C 
ENDBRANCH   4  12
BRANCH   8  19
ATOM     19  C   UNL     1      -3.538  -6.078   0.016  0.00  0.00    +0.044 A 
ATOM     20  C   UNL     1      -2.585  -6.777   0.745  0.00  0.00    +0.024 A 
ATOM     21  C   UNL     1      -2.802  -8.102   1.070  0.00  0.00    +0.005 A 
ATOM     22  C   UNL     1      -3.967  -8.731   0.671  0.00  0.00    -0.050 A 
ATOM     23  C   UNL     1      -4.917  -8.037  -0.055  0.00  0.00    +0.005 A 
ATOM     24  C   UNL     1      -4.708  -6.711  -0.379  0.00  0.00    +0.024 A 
ATOM     25  C   UNL     1      -4.200 -10.177   1.028  0.00  0.00    +0.044 C 
ENDBRANCH   8  19
BRANCH   1  26
ATOM     26  C   UNL     1      -1.272  -2.351   1.693  0.00  0.00    +0.328 C 
ATOM     27  O   UNL     1      -1.464  -1.600   2.620  0.00  0.00    -0.249 OA
BRANCH  26  28
ATOM     28  O   UNL     1      -0.742  -3.565   1.912  0.00  0.00    -0.467 OA
ATOM     29  C   UNL     1      -0.429  -3.902   3.265  0.00  0.00    +0.280 C 
ENDBRANCH  26  28
ENDBRANCH   1  26
BRANCH   1  30
ATOM     30  C   UNL     1      -1.560  -0.402   0.166  0.00  0.00    +0.034 C 
BRANCH  30  32
ATOM     31  C   UNL     1      -0.045   1.584   0.217  0.00  0.00    +0.004 C 
ATOM     32  C   UNL     1      -0.112   0.061   0.344  0.00  0.00    -0.001 C 
ENDBRANCH  30  32
ENDBRANCH   1  30
TORSDOF 6
