REMARK  Name = ZINC22619396
REMARK  9 active torsions:
REMARK  status: ('A' for Active; 'I' for Inactive)
REMARK    1  A    between atoms: C_5  and  C_7
REMARK    2  A    between atoms: C_7  and  C_9
REMARK    3  A    between atoms: C_7  and  N_29
REMARK    4  A    between atoms: C_9  and  N_10
REMARK    5  A    between atoms: C_11  and  C_13
REMARK    6  A    between atoms: C_13  and  C_14
REMARK    7  A    between atoms: C_14  and  C_15
REMARK    8  A    between atoms: C_15  and  N_16
REMARK    9  A    between atoms: C_20  and  N_26
REMARK                            x       y       z     vdW  Elec       q    Type
REMARK                         _______ _______ _______ _____ _____    ______ ____
ROOT
ATOM      1  N   UNL     1      -4.030   8.557  -3.373  0.00  0.00    -0.317 N 
ATOM      2  C   UNL     1      -3.127   7.558  -3.336  0.00  0.00    +0.213 C 
ATOM      3  O   UNL     1      -2.569   7.207  -4.354  0.00  0.00    -0.276 OA
ATOM      4  H   UNL     1      -4.536   8.876  -2.449  0.00  0.00    +0.149 HD
ENDROOT
BRANCH   1   5
ATOM      5  C   UNL     1      -4.339   9.219  -4.643  0.00  0.00    +0.093 C 
BRANCH   5   6
ATOM      6  C   UNL     1      -5.261  10.412  -4.385  0.00  0.00    -0.019 C 
BRANCH   6  11
ATOM      7  C   UNL     1      -5.243  12.651  -7.425  0.00  0.00    +0.000 A 
ATOM      8  C   UNL     1      -6.355  12.198  -8.109  0.00  0.00    +0.001 A 
ATOM      9  C   UNL     1      -7.114  11.166  -7.589  0.00  0.00    +0.020 A 
ATOM     10  C   UNL     1      -6.757  10.584  -6.386  0.00  0.00    +0.043 A 
ATOM     11  C   UNL     1      -5.647  11.042  -5.699  0.00  0.00    -0.041 A 
ATOM     12  C   UNL     1      -4.889  12.073  -6.220  0.00  0.00    +0.003 A 
ATOM     13 CL   UNL     1      -7.706   9.284  -5.735  0.00  0.00    -0.083 Cl
ENDBRANCH   6  11
BRANCH   6  14
ATOM     14  N   UNL     1      -4.562  11.402  -3.555  0.00  0.00    +0.385 N 
ATOM     15  C   UNL     1      -5.348  12.657  -3.445  0.00  0.00    -0.078 C 
ATOM     16  C   UNL     1      -4.766  13.331  -2.177  0.00  0.00    -0.020 C 
ATOM     17  C   UNL     1      -4.499  12.131  -1.240  0.00  0.00    -0.020 C 
ATOM     18  C   UNL     1      -4.394  10.909  -2.171  0.00  0.00    -0.078 C 
ATOM     19  H   UNL     1      -3.590  11.569  -4.043  0.00  0.00    -0.081 HD
ENDBRANCH   6  14
ENDBRANCH   5   6
ENDBRANCH   1   5
BRANCH   2  20
ATOM     20  C   UNL     1      -2.809   6.877  -2.029  0.00  0.00    +0.097 C 
BRANCH  20  21
ATOM     21  C   UNL     1      -1.760   5.788  -2.264  0.00  0.00    +0.031 C 
BRANCH  21  22
ATOM     22  C   UNL     1      -1.438   5.097  -0.937  0.00  0.00    +0.129 C 
BRANCH  22  23
ATOM     23  N   UNL     1      -0.434   4.054  -1.162  0.00  0.00    -0.274 N 
ATOM     24  C   UNL     1       0.950   4.214  -1.098  0.00  0.00    +0.090 A 
ATOM     25  C   UNL     1       1.772   5.298  -0.828  0.00  0.00    +0.032 A 
ATOM     26  C   UNL     1       3.144   5.139  -0.839  0.00  0.00    +0.035 A 
ATOM     27  C   UNL     1       3.699   3.903  -1.117  0.00  0.00    +0.130 A 
ATOM     28  C   UNL     1       2.887   2.818  -1.387  0.00  0.00    +0.081 A 
ATOM     29  C   UNL     1       1.509   2.969  -1.384  0.00  0.00    +0.159 A 
ATOM     30  O   UNL     1       0.485   2.108  -1.599  0.00  0.00    -0.407 OA
ATOM     31  C   UNL     1      -0.678   2.765  -1.468  0.00  0.00    +0.421 A 
ATOM     32  O   UNL     1      -1.782   2.272  -1.603  0.00  0.00    -0.223 OA
BRANCH  27  33
ATOM     33  N   UNL     1       5.170   3.741  -1.127  0.00  0.00    +0.057 N 
ATOM     34  O   UNL     1       5.662   2.654  -1.372  0.00  0.00    -0.126 OA
ATOM     35  O   UNL     1       5.889   4.696  -0.889  0.00  0.00    -0.126 OA
ENDBRANCH  27  33
ENDBRANCH  22  23
ENDBRANCH  21  22
ENDBRANCH  20  21
ENDBRANCH   2  20
TORSDOF 9
