REMARK  Name = ZINC61638450
REMARK  5 active torsions:
REMARK  status: ('A' for Active; 'I' for Inactive)
REMARK    1  A    between atoms: C_1  and  C_2
REMARK    2  A    between atoms: C_2  and  C_3
REMARK    3  A    between atoms: C_3  and  C_4
REMARK    4  A    between atoms: N_8  and  C_12
REMARK    5  A    between atoms: C_12  and  C_13
REMARK                            x       y       z     vdW  Elec       q    Type
REMARK                         _______ _______ _______ _____ _____    ______ ____
ROOT
ATOM      1  C   UNL     1      -1.413  -2.063   0.004  0.00  0.00    +0.161 C 
ATOM      2  C   UNL     1      -2.823  -2.616  -0.056  0.00  0.00    +0.244 C 
ATOM      3  O   UNL     1      -3.638  -2.448  -0.938  0.00  0.00    -0.273 OA
ATOM      4  N   UNL     1      -2.982  -3.332   1.074  0.00  0.00    -0.219 N 
ATOM      5  C   UNL     1      -1.880  -3.310   1.832  0.00  0.00    +0.309 C 
ATOM      6  O   UNL     1      -1.783  -3.883   2.899  0.00  0.00    -0.252 OA
ATOM      7  N   UNL     1      -0.889  -2.582   1.280  0.00  0.00    -0.288 N 
ATOM      8  H   UNL     1      -0.004  -2.429   1.649  0.00  0.00    +0.151 HD
ENDROOT
BRANCH   1   9
ATOM      9  C   UNL     1      -1.433  -0.534   0.013  0.00  0.00    +0.031 C 
BRANCH   9  11
ATOM     10  C   UNL     1      -0.019   1.526   0.010  0.00  0.00    +0.004 C 
ATOM     11  C   UNL     1       0.002  -0.004   0.002  0.00  0.00    -0.001 C 
ENDBRANCH   9  11
ENDBRANCH   1   9
BRANCH   4  12
ATOM     12  C   UNL     1      -4.211  -4.047   1.429  0.00  0.00    +0.174 C 
BRANCH  12  13
ATOM     13  C   UNL     1      -4.151  -5.451   0.884  0.00  0.00    +0.079 A 
ATOM     14  C   UNL     1      -4.631  -5.712  -0.387  0.00  0.00    +0.064 A 
ATOM     15  C   UNL     1      -4.571  -7.007  -0.880  0.00  0.00    +0.025 A 
ATOM     16  C   UNL     1      -4.028  -7.995  -0.073  0.00  0.00    +0.041 A 
ATOM     17  C   UNL     1      -3.568  -7.659   1.187  0.00  0.00    +0.130 A 
ATOM     18  N   UNL     1      -3.636  -6.415   1.621  0.00  0.00    -0.237 NA
ATOM     19 CL   UNL     1      -2.886  -8.887   2.207  0.00  0.00    -0.062 Cl
ATOM     20 CL   UNL     1      -5.302  -4.434  -1.353  0.00  0.00    -0.082 Cl
ENDBRANCH  12  13
ENDBRANCH   4  12
TORSDOF 4
