REMARK  Name = ZINC19940734
REMARK  10 active torsions:
REMARK  status: ('A' for Active; 'I' for Inactive)
REMARK    1  A    between atoms: C_1  and  C_2
REMARK    2  A    between atoms: C_2  and  C_3
REMARK    3  A    between atoms: C_10  and  C_15
REMARK    4  A    between atoms: C_15  and  C_17
REMARK    5  A    between atoms: C_15  and  N_29
REMARK    6  A    between atoms: N_21  and  C_22
REMARK    7  A    between atoms: C_22  and  C_23
REMARK    8  A    between atoms: N_32  and  C_35
REMARK    9  A    between atoms: C_40  and  O_41
REMARK   10  A    between atoms: O_41  and  C_42
REMARK                            x       y       z     vdW  Elec       q    Type
REMARK                         _______ _______ _______ _____ _____    ______ ____
ROOT
ATOM      1  C   UNL     1       3.064   4.821   1.887  0.00  0.00    +0.162 C 
ENDROOT
BRANCH   1   9
ATOM      2  C   UNL     1       7.668   7.573  -1.198  0.00  0.00    -0.047 A 
ATOM      3  C   UNL     1       7.549   8.812  -0.583  0.00  0.00    +0.005 A 
ATOM      4  C   UNL     1       6.590   9.028   0.382  0.00  0.00    +0.026 A 
ATOM      5  C   UNL     1       5.731   7.996   0.746  0.00  0.00    +0.049 A 
ATOM      6  C   UNL     1       5.855   6.741   0.120  0.00  0.00    -0.001 A 
ATOM      7  C   UNL     1       6.836   6.545  -0.858  0.00  0.00    +0.013 A 
ATOM      8  C   UNL     1       4.947   5.661   0.509  0.00  0.00    +0.021 A 
ATOM      9  C   UNL     1       4.015   5.910   1.463  0.00  0.00    +0.042 A 
ATOM     10  C   UNL     1       3.929   7.188   2.056  0.00  0.00    +0.254 A 
ATOM     11  O   UNL     1       3.081   7.392   2.907  0.00  0.00    -0.268 OA
ATOM     12  N   UNL     1       4.763   8.184   1.709  0.00  0.00    -0.322 N 
ATOM     13  H   UNL     1       4.663   9.161   2.205  0.00  0.00    +0.169 HD
BRANCH   2  15
ATOM     14  C   UNL     1       8.149   7.706  -3.627  0.00  0.00    +0.009 C 
ATOM     15  C   UNL     1       8.724   7.361  -2.252  0.00  0.00    +0.032 C 
ENDBRANCH   2  15
ENDBRANCH   1   9
BRANCH   1  16
ATOM     16  N   UNL     1       3.147   4.637   3.342  0.00  0.00    -0.286 NA
ATOM     17  C   UNL     1       4.526   4.348   3.759  0.00  0.00    +0.104 C 
ATOM     18  C   UNL     1       4.584   4.243   5.284  0.00  0.00    +0.120 C 
ATOM     19  N   UNL     1       3.668   3.185   5.735  0.00  0.00    -0.325 N 
ATOM     20  C   UNL     1       2.289   3.474   5.318  0.00  0.00    +0.120 C 
ATOM     21  C   UNL     1       2.231   3.579   3.792  0.00  0.00    +0.104 C 
BRANCH  19  22
ATOM     22  C   UNL     1       3.747   3.011   7.121  0.00  0.00    +0.072 A 
ATOM     23  C   UNL     1       4.448   3.921   7.898  0.00  0.00    +0.027 A 
ATOM     24  C   UNL     1       4.524   3.746   9.267  0.00  0.00    +0.002 A 
ATOM     25  C   UNL     1       3.903   2.665   9.865  0.00  0.00    +0.004 A 
ATOM     26  C   UNL     1       3.202   1.754   9.097  0.00  0.00    +0.047 A 
ATOM     27  C   UNL     1       3.116   1.925   7.725  0.00  0.00    +0.141 A 
BRANCH  27  28
ATOM     28  O   UNL     1       2.422   1.033   6.969  0.00  0.00    -0.493 OA
ATOM     29  C   UNL     1       1.801  -0.055   7.657  0.00  0.00    +0.277 C 
ENDBRANCH  27  28
ENDBRANCH  19  22
ENDBRANCH   1  16
BRANCH   1  30
ATOM     30  C   UNL     1       1.657   5.206   1.508  0.00  0.00    +0.173 A 
ATOM     31  N   UNL     1       0.901   6.092   2.107  0.00  0.00    -0.111 NA
ATOM     32  N   UNL     1      -0.229   6.135   1.489  0.00  0.00    -0.023 NA
ATOM     33  N   UNL     1      -0.210   5.303   0.507  0.00  0.00    -0.044 NA
ATOM     34  N   UNL     1       0.934   4.706   0.489  0.00  0.00    -0.225 N 
BRANCH  34  35
ATOM     35  C   UNL     1       1.367   3.682  -0.465  0.00  0.00    +0.179 C 
BRANCH  35  36
ATOM     36  C   UNL     1       1.002   2.297   0.073  0.00  0.00    +0.140 C 
ATOM     37  C   UNL     1       1.460   1.191  -0.912  0.00  0.00    +0.035 C 
ATOM     38  C   UNL     1       0.498   0.029  -0.564  0.00  0.00    +0.031 C 
ATOM     39  C   UNL     1      -0.691   0.718   0.132  0.00  0.00    +0.160 C 
ATOM     40  O   UNL     1      -0.432   2.132   0.121  0.00  0.00    -0.375 OA
ENDBRANCH  35  36
ENDBRANCH  34  35
ENDBRANCH   1  30
TORSDOF 8
