REMARK  Name = ZINC09534781
REMARK  10 active torsions:
REMARK  status: ('A' for Active; 'I' for Inactive)
REMARK    1  A    between atoms: C_1  and  C_2
REMARK    2  A    between atoms: C_2  and  C_3
REMARK    3  A    between atoms: C_3  and  C_4
REMARK    4  A    between atoms: C_4  and  N_5
REMARK    5  A    between atoms: C_6  and  C_10
REMARK    6  A    between atoms: C_10  and  S_11
REMARK    7  A    between atoms: S_11  and  C_12
REMARK    8  A    between atoms: C_15  and  C_18
REMARK    9  A    between atoms: N_16  and  N_17
REMARK   10  A    between atoms: C_18  and  C_19
REMARK                            x       y       z     vdW  Elec       q    Type
REMARK                         _______ _______ _______ _____ _____    ______ ____
ROOT
ATOM      1  C   UNL     1      -2.808   1.915   3.348  0.00  0.00    +0.209 A 
ATOM      2  N   UNL     1      -2.139   3.045   3.388  0.00  0.00    -0.121 NA
ATOM      3  N   UNL     1      -1.560   3.249   2.259  0.00  0.00    -0.132 NA
ATOM      4  C   UNL     1      -1.822   2.271   1.438  0.00  0.00    +0.155 A 
ATOM      5  N   UNL     1      -2.630   1.389   2.101  0.00  0.00    -0.228 N 
ENDROOT
BRANCH   5   6
ATOM      6  N   UNL     1      -3.149   0.222   1.616  0.00  0.00    -0.295 N 
ATOM      7  H   UNL     1      -2.526  -0.552   1.794  0.00  0.00    +0.163 HD
ATOM      8  H   UNL     1      -4.064   0.046   2.001  0.00  0.00    +0.163 HD
ENDBRANCH   5   6
BRANCH   1   9
ATOM      9  S   UNL     1      -3.759   1.214   4.655  0.00  0.00    -0.077 S 
BRANCH   9  10
ATOM     10  C   UNL     1      -3.512   2.471   5.933  0.00  0.00    +0.155 C 
BRANCH  10  12
ATOM     11  N   UNL     1      -3.781   1.330   8.198  0.00  0.00    -0.228 N 
ATOM     12  C   UNL     1      -4.257   2.072   7.181  0.00  0.00    +0.161 A 
ATOM     13  N   UNL     1      -5.492   2.385   7.489  0.00  0.00    -0.113 NA
ATOM     14  N   UNL     1      -5.763   1.856   8.632  0.00  0.00    -0.023 NA
ATOM     15  N   UNL     1      -4.731   1.220   9.065  0.00  0.00    -0.044 NA
BRANCH  11  16
ATOM     16  C   UNL     1      -2.437   0.756   8.302  0.00  0.00    +0.147 C 
BRANCH  16  17
ATOM     17  C   UNL     1      -1.508   1.754   8.996  0.00  0.00    +0.023 C 
BRANCH  17  19
ATOM     18  C   UNL     1       0.824   2.152   9.799  0.00  0.00    +0.004 C 
ATOM     19  C   UNL     1      -0.105   1.154   9.105  0.00  0.00    -0.002 C 
ENDBRANCH  17  19
ENDBRANCH  16  17
ENDBRANCH  11  16
ENDBRANCH  10  12
ENDBRANCH   9  10
ENDBRANCH   1   9
BRANCH   4  20
ATOM     20  C   UNL     1      -1.330   2.140   0.020  0.00  0.00    +0.113 C 
BRANCH  20  21
ATOM     21  C   UNL     1      -0.017   1.401   0.010  0.00  0.00    -0.032 A 
ATOM     22  C   UNL     1       1.157   2.090   0.002  0.00  0.00    +0.004 A 
ATOM     23  C   UNL     1       2.380   1.424  -0.012  0.00  0.00    +0.001 A 
ATOM     24  C   UNL     1       2.437   0.064  -0.020  0.00  0.00    +0.008 A 
ATOM     25  C   UNL     1       1.247  -0.682  -0.013  0.00  0.00    -0.018 A 
ATOM     26  C   UNL     1       0.002  -0.004   0.002  0.00  0.00    -0.014 A 
ATOM     27  C   UNL     1      -1.189  -0.750   0.008  0.00  0.00    +0.009 A 
ATOM     28  C   UNL     1      -1.131  -2.110  -0.001  0.00  0.00    +0.001 A 
ATOM     29  C   UNL     1       0.092  -2.777  -0.016  0.00  0.00    +0.001 A 
ATOM     30  C   UNL     1       1.266  -2.087  -0.022  0.00  0.00    +0.008 A 
ENDBRANCH  20  21
ENDBRANCH   4  20
TORSDOF 9
