REMARK  Name = ZINC39914449
REMARK  9 active torsions:
REMARK  status: ('A' for Active; 'I' for Inactive)
REMARK    1  A    between atoms: C_1  and  C_2
REMARK    2  A    between atoms: C_2  and  C_3
REMARK    3  A    between atoms: C_3  and  C_4
REMARK    4  A    between atoms: C_4  and  C_5
REMARK    5  A    between atoms: C_5  and  N_6
REMARK    6  A    between atoms: C_7  and  C_26
REMARK    7  A    between atoms: C_10  and  C_17
REMARK    8  A    between atoms: C_20  and  C_24
REMARK    9  A    between atoms: C_22  and  O_23
REMARK                            x       y       z     vdW  Elec       q    Type
REMARK                         _______ _______ _______ _____ _____    ______ ____
ROOT
ATOM      1  N   UNL     1       1.468  -4.191  -2.337  0.00  0.00    -0.285 N 
ATOM      2  C   UNL     1       2.671  -4.807  -1.764  0.00  0.00    +0.144 C 
ATOM      3  C   UNL     1       2.545  -6.284  -2.016  0.00  0.00    +0.035 A 
ATOM      4  C   UNL     1       3.105  -7.558  -1.872  0.00  0.00    +0.102 A 
ATOM      5  N   UNL     1       2.276  -8.419  -2.428  0.00  0.00    -0.173 NA
ATOM      6  N   UNL     1       1.248  -7.816  -2.908  0.00  0.00    -0.272 N 
ATOM      7  H   UNL     1       0.508  -8.250  -3.361  0.00  0.00    +0.189 HD
ATOM      8  C   UNL     1       1.350  -6.472  -2.685  0.00  0.00    +0.126 A 
ATOM      9  C   UNL     1       0.706  -5.167  -2.864  0.00  0.00    +0.265 C 
ATOM     10  O   UNL     1      -0.365  -4.990  -3.414  0.00  0.00    -0.268 OA
ENDROOT
BRANCH   4  11
ATOM     11  C   UNL     1       4.396  -7.880  -1.215  0.00  0.00    +0.045 A 
ATOM     12  C   UNL     1       5.228  -6.857  -0.767  0.00  0.00    +0.034 A 
ATOM     13  C   UNL     1       6.428  -7.162  -0.156  0.00  0.00    +0.045 A 
ATOM     14  C   UNL     1       6.808  -8.483   0.013  0.00  0.00    -0.029 A 
ATOM     15  C   UNL     1       5.989  -9.505  -0.428  0.00  0.00    +0.050 A 
ATOM     16  C   UNL     1       4.780  -9.212  -1.038  0.00  0.00    +0.126 A 
ATOM     17  C   UNL     1       8.120  -8.806   0.680  0.00  0.00    +0.045 C 
ATOM     18 CL   UNL     1       7.464  -5.885   0.402  0.00  0.00    -0.083 Cl
BRANCH  16  19
ATOM     19  O   UNL     1       3.972 -10.217  -1.466  0.00  0.00    -0.506 OA
ATOM     20  H   UNL     1       4.141 -10.497  -2.377  0.00  0.00    +0.292 HD
ENDBRANCH  16  19
ENDBRANCH   4  11
BRANCH   2  21
ATOM     21  C   UNL     1       2.737  -4.536  -0.283  0.00  0.00    +0.013 A 
ATOM     22  C   UNL     1       2.381  -5.524   0.617  0.00  0.00    +0.008 A 
ATOM     23  C   UNL     1       2.441  -5.276   1.975  0.00  0.00    +0.001 A 
ATOM     24  C   UNL     1       2.856  -4.040   2.436  0.00  0.00    +0.003 A 
ATOM     25  C   UNL     1       3.212  -3.052   1.539  0.00  0.00    +0.039 A 
ATOM     26  C   UNL     1       3.158  -3.301   0.178  0.00  0.00    +0.129 A 
ATOM     27  F   UNL     1       3.510  -2.336  -0.701  0.00  0.00    -0.205 F 
ENDBRANCH   2  21
BRANCH   1  28
ATOM     28  C   UNL     1       1.149  -2.761  -2.332  0.00  0.00    +0.109 C 
BRANCH  28  29
ATOM     29  C   UNL     1       0.252  -2.444  -1.134  0.00  0.00    +0.019 C 
BRANCH  29  30
ATOM     30  C   UNL     1       0.005  -0.936  -1.067  0.00  0.00    +0.001 C 
BRANCH  30  32
ATOM     31  C   UNL     1      -1.140   0.890   0.197  0.00  0.00    +0.004 C 
ATOM     32  C   UNL     1      -0.893  -0.618   0.131  0.00  0.00    -0.003 C 
ENDBRANCH  30  32
ENDBRANCH  29  30
ENDBRANCH  28  29
ENDBRANCH   1  28
TORSDOF 7
