REMARK  Name = ZINC10775881
REMARK  3 active torsions:
REMARK  status: ('A' for Active; 'I' for Inactive)
REMARK    1  A    between atoms: C_15  and  C_17
REMARK    2  A    between atoms: N_23  and  S_24
REMARK    3  A    between atoms: S_24  and  C_27
REMARK                            x       y       z     vdW  Elec       q    Type
REMARK                         _______ _______ _______ _____ _____    ______ ____
ROOT
ATOM      1  C   UNL     1       1.056   0.148 -10.307  0.00  0.00    +0.001 A 
ATOM      2  C   UNL     1       1.896  -0.276  -9.281  0.00  0.00    +0.001 A 
ATOM      3  C   UNL     1       1.824   0.289  -8.042  0.00  0.00    +0.010 A 
ATOM      4  C   UNL     1       0.894   1.307  -7.800  0.00  0.00    +0.009 A 
ATOM      5  C   UNL     1       0.040   1.740  -8.837  0.00  0.00    -0.016 A 
ATOM      6  C   UNL     1       0.141   1.135 -10.103  0.00  0.00    +0.008 A 
ATOM      7  C   UNL     1      -0.901   2.763  -8.605  0.00  0.00    +0.010 A 
ATOM      8  C   UNL     1      -0.990   3.339  -7.376  0.00  0.00    +0.018 A 
ATOM      9  C   UNL     1      -0.171   2.942  -6.336  0.00  0.00    +0.041 A 
ATOM     10  C   UNL     1       0.800   1.931  -6.465  0.00  0.00    +0.088 A 
ATOM     11  N   UNL     1       1.520   1.664  -5.367  0.00  0.00    -0.224 NA
ATOM     12  C   UNL     1       1.336   2.292  -4.227  0.00  0.00    +0.166 A 
ATOM     13  S   UNL     1       0.020   3.430  -4.637  0.00  0.00    -0.052 S 
ATOM     14  N   UNL     1       1.996   2.120  -3.020  0.00  0.00    -0.263 N 
ATOM     15  C   UNL     1       1.660   2.875  -1.955  0.00  0.00    +0.238 C 
ATOM     16  O   UNL     1       0.781   3.705  -2.053  0.00  0.00    -0.274 OA
ATOM     17  H   UNL     1       2.699   1.456  -2.942  0.00  0.00    +0.157 HD
ENDROOT
BRANCH  15  18
ATOM     18  C   UNL     1       2.378   2.688  -0.643  0.00  0.00    +0.166 C 
ATOM     19  C   UNL     1       3.073   3.993  -0.244  0.00  0.00    +0.030 C 
ATOM     20  C   UNL     1       3.682   3.836   1.151  0.00  0.00    +0.003 C 
ATOM     21  C   UNL     1       2.571   3.551   2.165  0.00  0.00    +0.017 C 
ATOM     22  C   UNL     1       1.869   2.246   1.794  0.00  0.00    +0.110 C 
ATOM     23  N   UNL     1       1.408   2.329   0.401  0.00  0.00    -0.164 NA
BRANCH  23  24
ATOM     24  S   UNL     1      -0.175   2.033   0.017  0.00  0.00    +0.068 S 
ATOM     25  O   UNL     1      -0.685   1.177   1.030  0.00  0.00    -0.152 OA
ATOM     26  O   UNL     1      -0.200   1.681  -1.360  0.00  0.00    -0.152 OA
BRANCH  24  27
ATOM     27  C   UNL     1      -1.042   3.559   0.163  0.00  0.00    +0.143 A 
ATOM     28  C   UNL     1      -1.388   4.441  -0.807  0.00  0.00    +0.036 A 
ATOM     29  C   UNL     1      -2.078   5.586  -0.457  0.00  0.00    +0.010 A 
ATOM     30  C   UNL     1      -2.378   5.800   0.848  0.00  0.00    +0.047 A 
ATOM     31  S   UNL     1      -1.685   4.351   1.628  0.00  0.00    -0.077 S 
ENDBRANCH  24  27
ENDBRANCH  23  24
ENDBRANCH  15  18
TORSDOF 3
