REMARK  Name = ZINC37810887
REMARK  5 active torsions:
REMARK  status: ('A' for Active; 'I' for Inactive)
REMARK    1  A    between atoms: C_1  and  S_2
REMARK    2  A    between atoms: S_2  and  N_5
REMARK    3  A    between atoms: N_5  and  C_6
REMARK    4  A    between atoms: C_6  and  C_7
REMARK    5  A    between atoms: C_14  and  C_16
REMARK                            x       y       z     vdW  Elec       q    Type
REMARK                         _______ _______ _______ _____ _____    ______ ____
ROOT
ATOM      1  C   UNL     1       3.026  -0.614  -2.742  0.00  0.00    +0.091 C 
ATOM      2  C   UNL     1       4.335   0.182  -2.779  0.00  0.00    +0.024 C 
ATOM      3  C   UNL     1       5.114  -0.185  -4.044  0.00  0.00    +0.003 C 
ATOM      4  C   UNL     1       4.289   0.185  -5.279  0.00  0.00    +0.019 C 
ATOM      5  C   UNL     1       2.980  -0.610  -5.270  0.00  0.00    +0.108 C 
ATOM      6  N   UNL     1       2.292  -0.379  -3.992  0.00  0.00    -0.298 N 
ATOM      7  C   UNL     1       1.012   0.043  -3.968  0.00  0.00    +0.203 C 
ATOM      8  O   UNL     1       0.486   0.325  -2.912  0.00  0.00    -0.277 OA
ENDROOT
BRANCH   7   9
ATOM      9  C   UNL     1       0.234   0.166  -5.253  0.00  0.00    +0.027 C 
ATOM     10  C   UNL     1      -0.157  -1.256  -5.753  0.00  0.00    +0.060 C 
ATOM     11  S   UNL     1      -1.569  -0.781  -6.848  0.00  0.00    -0.181 S 
ATOM     12  C   UNL     1      -2.118   0.696  -5.893  0.00  0.00    -0.011 C 
ATOM     13  N   UNL     1      -0.960   0.979  -5.018  0.00  0.00    +0.393 N 
ATOM     14  H   UNL     1      -1.249   0.845  -4.060  0.00  0.00    -0.084 HD
ATOM     15  H   UNL     1      -0.709   1.949  -5.136  0.00  0.00    -0.084 HD
ENDBRANCH   7   9
BRANCH   1  16
ATOM     16  C   UNL     1       2.179  -0.152  -1.555  0.00  0.00    +0.128 C 
BRANCH  16  17
ATOM     17  N   UNL     1       1.020  -1.036  -1.409  0.00  0.00    -0.193 NA
ATOM     18  H   UNL     1       0.761  -1.621  -2.138  0.00  0.00    +0.148 HD
BRANCH  17  20
ATOM     19  C   UNL     1      -0.583   0.618   0.099  0.00  0.00    +0.214 C 
ATOM     20  S   UNL     1       0.152  -1.038   0.002  0.00  0.00    +0.027 S 
ATOM     21  O   UNL     1       1.124  -1.203   1.025  0.00  0.00    -0.158 OA
ATOM     22  O   UNL     1      -0.862  -2.013  -0.198  0.00  0.00    -0.158 OA
ENDBRANCH  17  20
ENDBRANCH  16  17
ENDBRANCH   1  16
TORSDOF 4
