REMARK  Name = ZINC33035686
REMARK  5 active torsions:
REMARK  status: ('A' for Active; 'I' for Inactive)
REMARK    1  A    between atoms: C_4  and  N_7
REMARK    2  A    between atoms: C_14  and  C_17
REMARK    3  A    between atoms: C_21  and  C_23
REMARK    4  A    between atoms: N_25  and  C_26
REMARK    5  A    between atoms: C_26  and  C_27
REMARK                            x       y       z     vdW  Elec       q    Type
REMARK                         _______ _______ _______ _____ _____    ______ ____
ROOT
ATOM      1  N   UNL     1      -0.766   9.440  -2.076  0.00  0.00    -0.269 N 
ATOM      2  C   UNL     1      -0.748   8.098  -2.200  0.00  0.00    +0.306 C 
ATOM      3  O   UNL     1      -0.358   7.588  -3.232  0.00  0.00    -0.252 OA
ATOM      4  N   UNL     1      -1.163   7.321  -1.179  0.00  0.00    -0.285 N 
ATOM      5  C   UNL     1      -1.528   7.916   0.114  0.00  0.00    +0.109 C 
ATOM      6  C   UNL     1      -0.727   7.222   1.220  0.00  0.00    +0.020 C 
ATOM      7  C   UNL     1      -0.955   5.711   1.137  0.00  0.00    +0.011 C 
ATOM      8  C   UNL     1      -0.460   5.192  -0.216  0.00  0.00    +0.036 C 
ATOM      9  C   UNL     1      -1.258   5.864  -1.338  0.00  0.00    +0.117 C 
ATOM     10  H   UNL     1      -1.049   9.900  -1.117  0.00  0.00    +0.156 HD
ENDROOT
BRANCH   1  14
ATOM     11  C   UNL     1       0.247  11.845  -5.323  0.00  0.00    +0.000 A 
ATOM     12  C   UNL     1      -0.741  12.251  -4.446  0.00  0.00    +0.002 A 
ATOM     13  C   UNL     1      -1.079  11.456  -3.368  0.00  0.00    +0.023 A 
ATOM     14  C   UNL     1      -0.426  10.248  -3.167  0.00  0.00    +0.035 A 
ATOM     15  C   UNL     1       0.570   9.845  -4.047  0.00  0.00    +0.023 A 
ATOM     16  C   UNL     1       0.900  10.642  -5.125  0.00  0.00    +0.002 A 
ENDBRANCH   1  14
BRANCH   8  17
ATOM     17  C   UNL     1      -0.655   3.700  -0.284  0.00  0.00    -0.042 A 
ATOM     18  C   UNL     1      -1.924   3.163  -0.160  0.00  0.00    +0.004 A 
ATOM     19  C   UNL     1      -2.112   1.794  -0.226  0.00  0.00    +0.001 A 
ATOM     20  C   UNL     1      -1.032   0.954  -0.406  0.00  0.00    +0.013 A 
ATOM     21  C   UNL     1       0.251   1.489  -0.532  0.00  0.00    +0.037 A 
ATOM     22  C   UNL     1       0.432   2.872  -0.469  0.00  0.00    +0.017 A 
BRANCH  21  23
ATOM     23  C   UNL     1       1.411   0.595  -0.730  0.00  0.00    +0.244 C 
ATOM     24  O   UNL     1       2.528   1.064  -0.840  0.00  0.00    -0.270 OA
ATOM     25  N   UNL     1       1.232  -0.739  -0.790  0.00  0.00    -0.304 N 
ATOM     26  H   UNL     1       0.223  -1.163  -0.691  0.00  0.00    +0.149 HD
BRANCH  25  27
ATOM     27  C   UNL     1       2.383  -1.625  -0.986  0.00  0.00    +0.179 C 
BRANCH  27  28
ATOM     28  C   UNL     1       1.915  -3.057  -1.016  0.00  0.00    +0.122 A 
ATOM     29  C   UNL     1       1.537  -3.738  -2.112  0.00  0.00    +0.046 A 
ATOM     30  C   UNL     1       1.179  -5.037  -1.684  0.00  0.00    +0.041 A 
ATOM     31  C   UNL     1       1.359  -5.072  -0.351  0.00  0.00    +0.195 A 
ATOM     32  O   UNL     1       1.811  -3.871   0.047  0.00  0.00    -0.466 OA
ENDBRANCH  27  28
ENDBRANCH  25  27
ENDBRANCH  21  23
ENDBRANCH   8  17
TORSDOF 5
