REMARK  Name = ZINC13127133
REMARK  3 active torsions:
REMARK  status: ('A' for Active; 'I' for Inactive)
REMARK    1  A    between atoms: C_4  and  C_7
REMARK    2  A    between atoms: C_10  and  C_26
REMARK    3  A    between atoms: C_19  and  C_21
REMARK                            x       y       z     vdW  Elec       q    Type
REMARK                         _______ _______ _______ _____ _____    ______ ____
ROOT
ATOM      1  C   UNL     1       3.711  -0.707  -0.038  0.00  0.00    +0.143 C 
ATOM      2  C   UNL     1       3.791  -1.587  -1.291  0.00  0.00    +0.058 C 
ATOM      3  C   UNL     1       4.989  -2.538  -1.180  0.00  0.00    +0.106 C 
ATOM      4  N   UNL     1       4.779  -3.425  -0.020  0.00  0.00    -0.307 N 
ATOM      5  C   UNL     1       4.308  -2.821   1.138  0.00  0.00    +0.216 A 
ATOM      6  N   UNL     1       3.812  -1.558   1.147  0.00  0.00    -0.224 N 
ATOM      7  N   UNL     1       3.443  -1.282   2.465  0.00  0.00    -0.131 NA
ATOM      8  C   UNL     1       3.723  -2.355   3.170  0.00  0.00    +0.243 A 
ATOM      9  N   UNL     1       4.245  -3.291   2.355  0.00  0.00    -0.180 NA
ATOM     10  N   UNL     1       3.507  -2.503   4.543  0.00  0.00    -0.247 N 
ATOM     11  C   UNL     1       3.837  -3.656   5.156  0.00  0.00    +0.286 C 
ATOM     12  O   UNL     1       4.322  -4.570   4.515  0.00  0.00    -0.266 OA
ATOM     13  H   UNL     1       4.961  -4.377  -0.064  0.00  0.00    +0.149 HD
ATOM     14  H   UNL     1       3.121  -1.774   5.054  0.00  0.00    +0.158 HD
ENDROOT
BRANCH   3  15
ATOM     15  C   UNL     1       5.099  -3.361  -2.438  0.00  0.00    -0.027 A 
ATOM     16  C   UNL     1       4.282  -4.461  -2.618  0.00  0.00    +0.007 A 
ATOM     17  C   UNL     1       4.382  -5.217  -3.771  0.00  0.00    +0.020 A 
ATOM     18  C   UNL     1       5.302  -4.871  -4.745  0.00  0.00    +0.041 A 
ATOM     19  C   UNL     1       6.120  -3.770  -4.565  0.00  0.00    +0.020 A 
ATOM     20  C   UNL     1       6.014  -3.012  -3.414  0.00  0.00    +0.007 A 
ATOM     21 CL   UNL     1       5.429  -5.820  -6.194  0.00  0.00    -0.084 Cl
ENDBRANCH   3  15
BRANCH   1  25
ATOM     22  C   UNL     1      -0.017   1.378   0.010  0.00  0.00    +0.000 A 
ATOM     23  C   UNL     1       1.171   2.086   0.002  0.00  0.00    +0.000 A 
ATOM     24  C   UNL     1       2.377   1.411  -0.013  0.00  0.00    +0.006 A 
ATOM     25  C   UNL     1       2.396   0.029  -0.020  0.00  0.00    -0.023 A 
ATOM     26  C   UNL     1       1.208  -0.679  -0.012  0.00  0.00    +0.006 A 
ATOM     27  C   UNL     1       0.002  -0.004   0.002  0.00  0.00    +0.000 A 
ENDBRANCH   1  25
BRANCH  11  28
ATOM     28  C   UNL     1       3.611  -3.811   6.597  0.00  0.00    +0.189 A 
ATOM     29  C   UNL     1       3.902  -4.919   7.340  0.00  0.00    +0.054 A 
ATOM     30  C   UNL     1       3.524  -4.629   8.661  0.00  0.00    +0.042 A 
ATOM     31  C   UNL     1       3.024  -3.374   8.665  0.00  0.00    +0.196 A 
ATOM     32  O   UNL     1       3.084  -2.882   7.421  0.00  0.00    -0.458 OA
ENDBRANCH  11  28
TORSDOF 3
