REMARK  Name = ZINC36207840
REMARK  13 active torsions:
REMARK  status: ('A' for Active; 'I' for Inactive)
REMARK    1  A    between atoms: C_1  and  O_2
REMARK    2  A    between atoms: O_2  and  C_3
REMARK    3  A    between atoms: C_6  and  C_9
REMARK    4  A    between atoms: C_18  and  C_20
REMARK    5  A    between atoms: C_20  and  N_21
REMARK    6  A    between atoms: N_21  and  C_22
REMARK    7  A    between atoms: N_21  and  C_28
REMARK    8  A    between atoms: C_22  and  C_23
REMARK    9  A    between atoms: C_28  and  C_29
REMARK   10  A    between atoms: C_29  and  C_31
REMARK   11  A    between atoms: C_29  and  O_35
REMARK   12  A    between atoms: C_31  and  C_32
REMARK   13  A    between atoms: C_32  and  C_33
REMARK                            x       y       z     vdW  Elec       q    Type
REMARK                         _______ _______ _______ _____ _____    ______ ____
ROOT
ATOM      1  C   UNL     1      -5.696  -1.901  -0.033  0.00  0.00    +0.004 A 
ATOM      2  C   UNL     1      -6.798  -1.522   0.658  0.00  0.00    +0.056 A 
ATOM      3  S   UNL     1      -8.000  -2.767   0.233  0.00  0.00    -0.076 S 
ATOM      4  C   UNL     1      -7.006  -3.758  -0.853  0.00  0.00    +0.116 A 
ATOM      5  C   UNL     1      -5.767  -3.097  -0.865  0.00  0.00    +0.080 A 
ATOM      6  C   UNL     1      -4.755  -3.692  -1.684  0.00  0.00    +0.260 A 
ATOM      7  O   UNL     1      -3.645  -3.194  -1.755  0.00  0.00    -0.267 OA
ATOM      8  N   UNL     1      -5.048  -4.810  -2.373  0.00  0.00    -0.312 N 
ATOM      9  H   UNL     1      -4.366  -5.218  -2.930  0.00  0.00    +0.170 HD
ATOM     10  C   UNL     1      -6.279  -5.379  -2.305  0.00  0.00    +0.094 A 
ATOM     11  N   UNL     1      -7.220  -4.865  -1.559  0.00  0.00    -0.229 NA
ENDROOT
BRANCH   1  15
ATOM     12  C   UNL     1      -2.104   0.364   0.204  0.00  0.00    +0.120 A 
ATOM     13  C   UNL     1      -3.309   1.001  -0.062  0.00  0.00    +0.046 A 
ATOM     14  C   UNL     1      -4.475   0.270  -0.140  0.00  0.00    +0.012 A 
ATOM     15  C   UNL     1      -4.444  -1.112   0.049  0.00  0.00    -0.016 A 
ATOM     16  C   UNL     1      -3.233  -1.748   0.316  0.00  0.00    +0.012 A 
ATOM     17  C   UNL     1      -2.069  -1.011   0.387  0.00  0.00    +0.046 A 
BRANCH  12  19
ATOM     18  C   UNL     1      -1.065   2.499   0.081  0.00  0.00    +0.277 C 
ATOM     19  O   UNL     1      -0.957   1.088   0.280  0.00  0.00    -0.495 OA
ENDBRANCH  12  19
ENDBRANCH   1  15
BRANCH  10  20
ATOM     20  C   UNL     1      -6.561  -6.631  -3.094  0.00  0.00    -0.003 C 
BRANCH  20  21
ATOM     21  N   UNL     1      -7.948  -7.055  -2.861  0.00  0.00    +0.391 N 
ATOM     22  H   UNL     1      -8.105  -7.160  -1.870  0.00  0.00    -0.080 HD
BRANCH  21  23
ATOM     23  C   UNL     1      -8.866  -6.042  -3.398  0.00  0.00    -0.002 C 
BRANCH  23  24
ATOM     24  C   UNL     1     -10.283  -6.404  -3.033  0.00  0.00    +0.089 A 
ATOM     25  C   UNL     1     -10.896  -6.110  -1.872  0.00  0.00    +0.042 A 
ATOM     26  C   UNL     1     -12.206  -6.635  -1.956  0.00  0.00    +0.041 A 
ATOM     27  C   UNL     1     -12.315  -7.219  -3.164  0.00  0.00    +0.195 A 
ATOM     28  O   UNL     1     -11.149  -7.071  -3.813  0.00  0.00    -0.470 OA
ENDBRANCH  23  24
ENDBRANCH  21  23
BRANCH  21  29
ATOM     29  C   UNL     1      -8.187  -8.339  -3.534  0.00  0.00    -0.046 C 
BRANCH  29  30
ATOM     30  C   UNL     1      -7.334  -9.426  -2.878  0.00  0.00    +0.098 C 
BRANCH  30  31
ATOM     31  O   UNL     1      -7.710  -9.564  -1.506  0.00  0.00    -0.394 OA
ATOM     32  H   UNL     1      -8.617  -9.876  -1.377  0.00  0.00    +0.210 HD
ENDBRANCH  30  31
BRANCH  30  33
ATOM     33  C   UNL     1      -7.553 -10.754  -3.604  0.00  0.00    +0.033 C 
BRANCH  33  34
ATOM     34  C   UNL     1      -6.608 -11.812  -3.030  0.00  0.00    +0.029 C 
BRANCH  34  35
ATOM     35  C   UNL     1      -6.825 -13.120  -3.745  0.00  0.00    -0.034 C 
ATOM     36  C   UNL     1      -5.815 -13.731  -4.314  0.00  0.00    +0.004 C 
ENDBRANCH  34  35
ENDBRANCH  33  34
ENDBRANCH  30  33
ENDBRANCH  29  30
ENDBRANCH  21  29
ENDBRANCH  20  21
ENDBRANCH  10  20
TORSDOF 12
