REMARK  Name = ZINC14461369
REMARK  7 active torsions:
REMARK  status: ('A' for Active; 'I' for Inactive)
REMARK    1  A    between atoms: C_1  and  C_2
REMARK    2  A    between atoms: C_2  and  N_3
REMARK    3  A    between atoms: N_3  and  C_4
REMARK    4  A    between atoms: N_3  and  C_6
REMARK    5  A    between atoms: C_4  and  C_5
REMARK    6  A    between atoms: C_9  and  C_12
REMARK    7  A    between atoms: C_23  and  O_28
REMARK                            x       y       z     vdW  Elec       q    Type
REMARK                         _______ _______ _______ _____ _____    ______ ____
ROOT
ATOM      1  C   UNL     1       0.667   3.211  -2.075  0.00  0.00    +0.105 C 
ATOM      2  C   UNL     1       0.691   3.315  -0.547  0.00  0.00    +0.029 C 
ATOM      3  C   UNL     1       1.222   1.957   0.001  0.00  0.00    +0.033 C 
ATOM      4  C   UNL     1      -0.013   1.076   0.008  0.00  0.00    -0.030 C 
ATOM      5  C   UNL     1      -1.100   1.808   0.017  0.00  0.00    -0.023 C 
ATOM      6  C   UNL     1      -0.741   3.275   0.021  0.00  0.00    +0.049 C 
ATOM      7  C   UNL     1      -1.713   4.066  -0.811  0.00  0.00    -0.016 A 
ATOM      8  C   UNL     1      -2.975   4.318  -0.290  0.00  0.00    +0.051 A 
ATOM      9  C   UNL     1      -3.898   5.057  -1.010  0.00  0.00    +0.117 A 
ATOM     10  C   UNL     1      -3.569   5.553  -2.263  0.00  0.00    +0.047 A 
ATOM     11  C   UNL     1      -2.316   5.306  -2.788  0.00  0.00    +0.027 A 
ATOM     12  C   UNL     1      -1.392   4.563  -2.064  0.00  0.00    +0.032 A 
ATOM     13  N   UNL     1      -0.125   4.321  -2.614  0.00  0.00    -0.336 N 
ATOM     14  H   UNL     1       0.218   4.873  -3.334  0.00  0.00    +0.147 HD
ENDROOT
BRANCH   1  18
ATOM     15  C   UNL     1       4.659   3.435  -3.587  0.00  0.00    +0.030 A 
ATOM     16  C   UNL     1       4.032   2.202  -3.456  0.00  0.00    +0.023 A 
ATOM     17  C   UNL     1       2.742   2.133  -2.967  0.00  0.00    +0.007 A 
ATOM     18  C   UNL     1       2.075   3.290  -2.608  0.00  0.00    -0.027 A 
ATOM     19  C   UNL     1       2.694   4.519  -2.742  0.00  0.00    +0.007 A 
ATOM     20  C   UNL     1       3.986   4.595  -3.224  0.00  0.00    +0.023 A 
BRANCH  15  21
ATOM     21  N   UNL     1       5.963   3.508  -4.081  0.00  0.00    -0.330 N 
BRANCH  21  23
ATOM     22  C   UNL     1       7.368   5.141  -2.924  0.00  0.00    +0.024 C 
ATOM     23  C   UNL     1       6.623   4.809  -4.218  0.00  0.00    +0.102 C 
ENDBRANCH  21  23
BRANCH  21  24
ATOM     24  C   UNL     1       6.671   2.284  -4.463  0.00  0.00    +0.102 C 
ATOM     25  C   UNL     1       6.402   1.978  -5.938  0.00  0.00    +0.024 C 
ENDBRANCH  21  24
ENDBRANCH  15  21
ENDBRANCH   1  18
BRANCH   9  26
ATOM     26  O   UNL     1      -5.131   5.296  -0.488  0.00  0.00    -0.507 OA
ATOM     27  H   UNL     1      -5.185   6.107   0.036  0.00  0.00    +0.292 HD
ENDBRANCH   9  26
TORSDOF 5
