REMARK  Name = ZINC39995179
REMARK  8 active torsions:
REMARK  status: ('A' for Active; 'I' for Inactive)
REMARK    1  A    between atoms: C_1  and  C_2
REMARK    2  A    between atoms: C_2  and  C_4
REMARK    3  A    between atoms: C_2  and  N_9
REMARK    4  A    between atoms: C_10  and  C_12
REMARK    5  A    between atoms: C_12  and  S_13
REMARK    6  A    between atoms: S_13  and  C_14
REMARK    7  A    between atoms: C_18  and  C_23
REMARK    8  A    between atoms: N_19  and  C_20
REMARK                            x       y       z     vdW  Elec       q    Type
REMARK                         _______ _______ _______ _____ _____    ______ ____
ROOT
ATOM      1  C   UNL     1      -5.716  -1.865  -2.610  0.00  0.00    +0.237 C 
ATOM      2  N   UNL     1      -6.348  -0.972  -1.625  0.00  0.00    -0.237 N 
ATOM      3  N   UNL     1      -6.888  -1.795  -0.630  0.00  0.00    -0.169 NA
ATOM      4  C   UNL     1      -6.665  -3.057  -0.886  0.00  0.00    +0.147 C 
ATOM      5  N   UNL     1      -5.953  -3.218  -2.081  0.00  0.00    -0.282 N 
ATOM      6  H   UNL     1      -6.383  -0.003  -1.658  0.00  0.00    +0.171 HD
ENDROOT
BRANCH   4   7
ATOM      7  C   UNL     1      -7.086  -4.117  -0.068  0.00  0.00    +0.022 C 
ATOM      8  C   UNL     1      -7.880  -4.035   1.077  0.00  0.00    +0.006 A 
ATOM      9  C   UNL     1      -8.480  -2.946   1.744  0.00  0.00    +0.010 A 
ATOM     10  C   UNL     1      -9.218  -3.166   2.863  0.00  0.00    +0.001 A 
ATOM     11  C   UNL     1      -9.402  -4.452   3.377  0.00  0.00    +0.002 A 
ATOM     12  C   UNL     1      -8.855  -5.543   2.787  0.00  0.00    +0.026 A 
ATOM     13  C   UNL     1      -8.071  -5.392   1.614  0.00  0.00    +0.043 A 
ATOM     14  N   UNL     1      -7.442  -6.277   0.865  0.00  0.00    -0.380 N 
ATOM     15  C   UNL     1      -6.780  -5.588  -0.246  0.00  0.00    +0.152 C 
ATOM     16  H   UNL     1      -7.425  -7.234   1.022  0.00  0.00    +0.160 HD
ENDBRANCH   4   7
BRANCH   5  17
ATOM     17  C   UNL     1      -5.526  -4.482  -2.686  0.00  0.00    +0.078 C 
ATOM     18  C   UNL     1      -4.679  -4.406  -3.958  0.00  0.00    +0.024 C 
ATOM     19  C   UNL     1      -6.138  -4.861  -4.037  0.00  0.00    +0.024 C 
ENDBRANCH   5  17
BRANCH   1  20
ATOM     20  S   UNL     1      -3.937  -1.530  -2.721  0.00  0.00    -0.109 S 
BRANCH  20  21
ATOM     21  C   UNL     1      -3.342  -1.748  -1.021  0.00  0.00    +0.168 C 
BRANCH  21  23
ATOM     22  N   UNL     1      -1.194  -1.600   0.197  0.00  0.00    -0.305 N 
ATOM     23  C   UNL     1      -1.857  -1.495  -0.972  0.00  0.00    +0.224 C 
ATOM     24  O   UNL     1      -1.259  -1.197  -1.984  0.00  0.00    -0.275 OA
ATOM     25  H   UNL     1      -1.672  -1.839   1.006  0.00  0.00    +0.149 HD
BRANCH  22  27
ATOM     26  C   UNL     1       0.507   0.145   0.402  0.00  0.00    +0.036 C 
ATOM     27  C   UNL     1       0.250  -1.355   0.244  0.00  0.00    +0.136 C 
BRANCH  27  28
ATOM     28  C   UNL     1       0.847  -2.092   1.415  0.00  0.00    +0.125 A 
ATOM     29  C   UNL     1       2.026  -2.739   1.419  0.00  0.00    +0.046 A 
ATOM     30  C   UNL     1       2.190  -3.284   2.713  0.00  0.00    +0.041 A 
ATOM     31  C   UNL     1       1.102  -2.937   3.423  0.00  0.00    +0.195 A 
ATOM     32  O   UNL     1       0.294  -2.210   2.633  0.00  0.00    -0.466 OA
ENDBRANCH  27  28
ENDBRANCH  22  27
ENDBRANCH  21  23
ENDBRANCH  20  21
ENDBRANCH   1  20
TORSDOF 7
