REMARK  Name = ZINC19842539
REMARK  3 active torsions:
REMARK  status: ('A' for Active; 'I' for Inactive)
REMARK    1  A    between atoms: C_5  and  C_7
REMARK    2  A    between atoms: C_7  and  C_9
REMARK    3  A    between atoms: C_7  and  N_23
REMARK                            x       y       z     vdW  Elec       q    Type
REMARK                         _______ _______ _______ _____ _____    ______ ____
ROOT
ATOM      1  C   UNL     1       2.744   4.413  -1.398  0.00  0.00    -0.056 A 
ATOM      2  C   UNL     1       3.302   3.544  -2.321  0.00  0.00    +0.004 A 
ATOM      3  C   UNL     1       3.568   3.971  -3.605  0.00  0.00    +0.028 A 
ATOM      4  C   UNL     1       3.287   5.282  -3.975  0.00  0.00    +0.066 A 
ATOM      5  C   UNL     1       2.730   6.160  -3.044  0.00  0.00    +0.066 A 
ATOM      6  C   UNL     1       2.461   5.716  -1.753  0.00  0.00    +0.030 A 
ATOM      7  N   UNL     1       2.442   7.475  -3.395  0.00  0.00    -0.316 N 
ATOM      8  H   UNL     1       2.003   8.159  -2.653  0.00  0.00    +0.169 HD
ATOM      9  C   UNL     1       2.700   7.914  -4.644  0.00  0.00    +0.314 A 
ATOM     10  O   UNL     1       2.450   9.061  -4.954  0.00  0.00    -0.262 OA
ATOM     11  C   UNL     1       3.294   6.976  -5.639  0.00  0.00    +0.314 A 
ATOM     12  O   UNL     1       3.534   7.352  -6.769  0.00  0.00    -0.262 OA
ATOM     13  N   UNL     1       3.563   5.707  -5.272  0.00  0.00    -0.316 N 
ATOM     14  H   UNL     1       4.001   5.006  -5.998  0.00  0.00    +0.169 HD
ENDROOT
BRANCH   1  15
ATOM     15  C   UNL     1       2.451   3.936   0.001  0.00  0.00    -0.012 C 
BRANCH  15  20
ATOM     16  C   UNL     1      -0.013   1.076   0.008  0.00  0.00    +0.000 A 
ATOM     17  C   UNL     1      -1.219   1.751   0.017  0.00  0.00    +0.001 A 
ATOM     18  C   UNL     1      -1.238   3.132   0.031  0.00  0.00    +0.014 A 
ATOM     19  C   UNL     1      -0.050   3.840   0.024  0.00  0.00    +0.015 A 
ATOM     20  C   UNL     1       1.157   3.165   0.009  0.00  0.00    -0.045 A 
ATOM     21  C   UNL     1       1.175   1.783   0.000  0.00  0.00    +0.003 A 
ATOM     22  I   UNL     1      -0.079   5.935   0.036  0.00  0.00    -0.044 I 
ENDBRANCH  15  20
BRANCH  15  23
ATOM     23  N   UNL     1       3.542   3.066   0.460  0.00  0.00    +0.385 N 
ATOM     24  H   UNL     1       4.487   3.628   0.455  0.00  0.00    -0.089 HD
ATOM     25  H   UNL     1       3.627   2.200  -0.212  0.00  0.00    -0.089 HD
ATOM     26  H   UNL     1       3.328   2.718   1.482  0.00  0.00    -0.089 HD
ENDBRANCH  15  23
ENDBRANCH   1  15
TORSDOF 3
