REMARK  Name = ZINC12151491
REMARK  6 active torsions:
REMARK  status: ('A' for Active; 'I' for Inactive)
REMARK    1  A    between atoms: C_4  and  C_7
REMARK    2  A    between atoms: C_8  and  C_13
REMARK    3  A    between atoms: C_13  and  N_14
REMARK    4  A    between atoms: C_15  and  C_17
REMARK    5  A    between atoms: C_17  and  N_59
REMARK    6  A    between atoms: C_26  and  C_29
REMARK                            x       y       z     vdW  Elec       q    Type
REMARK                         _______ _______ _______ _____ _____    ______ ____
ROOT
ATOM      1  C   UNL     1       4.520  -0.053  -2.998  0.00  0.00    +0.019 C 
ENDROOT
BRANCH   1  12
ATOM      2  C   UNL     1       5.396   0.816  -0.916  0.00  0.00    -0.038 C 
ATOM      3  C   UNL     1       5.381   0.420   0.547  0.00  0.00    -0.022 A 
ATOM      4  C   UNL     1       6.363  -0.408   1.052  0.00  0.00    +0.005 A 
ATOM      5  C   UNL     1       6.368  -0.722   2.399  0.00  0.00    +0.000 A 
ATOM      6  C   UNL     1       5.394  -0.208   3.235  0.00  0.00    +0.004 A 
ATOM      7  C   UNL     1       4.404   0.612   2.728  0.00  0.00    +0.046 A 
ATOM      8  C   UNL     1       4.394   0.920   1.375  0.00  0.00    +0.123 A 
ATOM      9  O   UNL     1       3.412   1.709   0.859  0.00  0.00    -0.486 OA
ATOM     10  C   UNL     1       2.490   1.048  -0.016  0.00  0.00    +0.187 C 
ATOM     11  C   UNL     1       3.025   1.015  -1.431  0.00  0.00    -0.028 C 
ATOM     12  N   UNL     1       4.232   0.174  -1.572  0.00  0.00    +0.391 N 
ATOM     13  H   UNL     1       4.057  -0.732  -1.120  0.00  0.00    -0.080 HD
BRANCH  10  14
ATOM     14  C   UNL     1       1.175   1.783   0.000  0.00  0.00    -0.009 A 
ATOM     15  C   UNL     1      -0.013   1.076   0.008  0.00  0.00    +0.007 A 
ATOM     16  C   UNL     1      -1.219   1.751   0.017  0.00  0.00    +0.000 A 
ATOM     17  C   UNL     1      -1.238   3.133   0.030  0.00  0.00    +0.000 A 
ATOM     18  C   UNL     1      -0.050   3.840   0.022  0.00  0.00    +0.000 A 
ATOM     19  C   UNL     1       1.156   3.165   0.008  0.00  0.00    +0.007 A 
ENDBRANCH  10  14
ENDBRANCH   1  12
BRANCH   1  21
ATOM     20  N   UNL     1       6.010  -1.520  -4.319  0.00  0.00    -0.313 N 
ATOM     21  C   UNL     1       5.586  -1.113  -3.106  0.00  0.00    +0.197 C 
ATOM     22  O   UNL     1       6.063  -1.599  -2.102  0.00  0.00    -0.278 OA
ATOM     23  H   UNL     1       5.629  -1.132  -5.122  0.00  0.00    +0.149 HD
BRANCH  20  24
ATOM     24  C   UNL     1       7.047  -2.550  -4.424  0.00  0.00    +0.143 C 
BRANCH  24  26
ATOM     25  C   UNL     1       8.150  -2.041  -6.721  0.00  0.00    +0.097 A 
ATOM     26  C   UNL     1       7.338  -2.823  -5.877  0.00  0.00    +0.015 A 
ATOM     27  C   UNL     1       6.862  -3.858  -6.603  0.00  0.00    +0.110 A 
ATOM     28  N   UNL     1       7.353  -3.748  -7.857  0.00  0.00    -0.284 N 
ATOM     29  H   UNL     1       7.170  -4.374  -8.615  0.00  0.00    +0.188 HD
ATOM     30  N   UNL     1       8.160  -2.605  -7.910  0.00  0.00    -0.174 NA
BRANCH  25  34
ATOM     31  C   UNL     1      10.211   1.513  -5.621  0.00  0.00    +0.000 A 
ATOM     32  C   UNL     1      10.779   0.641  -6.532  0.00  0.00    +0.001 A 
ATOM     33  C   UNL     1      10.114  -0.514  -6.892  0.00  0.00    +0.010 A 
ATOM     34  C   UNL     1       8.869  -0.801  -6.337  0.00  0.00    +0.002 A 
ATOM     35  C   UNL     1       8.299   0.084  -5.424  0.00  0.00    +0.010 A 
ATOM     36  C   UNL     1       8.975   1.233  -5.066  0.00  0.00    +0.001 A 
ENDBRANCH  25  34
ENDBRANCH  24  26
ENDBRANCH  20  24
ENDBRANCH   1  21
TORSDOF 6
