REMARK  Name = ZINC64143366
REMARK  14 active torsions:
REMARK  status: ('A' for Active; 'I' for Inactive)
REMARK    1  A    between atoms: C_1  and  C_2
REMARK    2  A    between atoms: C_2  and  C_4
REMARK    3  A    between atoms: C_2  and  N_13
REMARK    4  A    between atoms: C_14  and  C_16
REMARK    5  A    between atoms: N_18  and  C_31
REMARK    6  A    between atoms: C_20  and  C_23
REMARK    7  A    between atoms: N_25  and  C_26
REMARK    8  A    between atoms: C_26  and  C_27
REMARK    9  A    between atoms: C_27  and  C_28
REMARK   10  A    between atoms: C_28  and  C_29
REMARK   11  A    between atoms: C_28  and  C_30
REMARK   12  A    between atoms: C_31  and  C_32
REMARK   13  A    between atoms: C_32  and  C_33
REMARK   14  A    between atoms: C_32  and  C_34
REMARK                            x       y       z     vdW  Elec       q    Type
REMARK                         _______ _______ _______ _____ _____    ______ ____
ROOT
ATOM      1  C   UNL     1       2.711  -1.173  -2.383  0.00  0.00    +0.100 A 
ATOM      2  C   UNL     1       4.073  -1.381  -2.377  0.00  0.00    +0.102 A 
ATOM      3  N   UNL     1       4.707  -1.897  -3.443  0.00  0.00    -0.351 N 
ATOM      4  C   UNL     1       4.080  -2.245  -4.578  0.00  0.00    +0.102 A 
ATOM      5  C   UNL     1       2.718  -2.092  -4.722  0.00  0.00    +0.100 A 
ATOM      6  C   UNL     1       1.954  -1.538  -3.592  0.00  0.00    +0.206 A 
ATOM      7  O   UNL     1       0.746  -1.383  -3.657  0.00  0.00    -0.286 OA
ENDROOT
BRANCH   1   9
ATOM      8  N   UNL     1       0.684  -0.515  -1.188  0.00  0.00    -0.305 N 
ATOM      9  C   UNL     1       2.028  -0.607  -1.207  0.00  0.00    +0.250 C 
ATOM     10  O   UNL     1       2.678  -0.222  -0.254  0.00  0.00    -0.270 OA
ATOM     11  H   UNL     1       0.170  -0.753  -1.975  0.00  0.00    +0.149 HD
BRANCH   8  13
ATOM     12  C   UNL     1      -0.043   1.473   0.037  0.00  0.00    +0.032 C 
ATOM     13  C   UNL     1      -0.002  -0.056   0.023  0.00  0.00    +0.113 C 
BRANCH  13  14
ATOM     14  C   UNL     1      -1.429  -0.606   0.040  0.00  0.00    +0.194 C 
ATOM     15  N   UNL     1      -2.187  -0.075  -1.100  0.00  0.00    -0.362 N 
ATOM     16  C   UNL     1      -3.194   0.597  -0.621  0.00  0.00    +0.060 A 
ATOM     17  C   UNL     1      -4.288   1.346  -1.255  0.00  0.00    +0.027 A 
ATOM     18  C   UNL     1      -5.210   1.956  -0.484  0.00  0.00    +0.002 A 
ATOM     19  C   UNL     1      -5.175   1.909   0.921  0.00  0.00    +0.002 A 
ATOM     20  C   UNL     1      -4.216   1.251   1.603  0.00  0.00    +0.027 A 
ATOM     21  C   UNL     1      -3.157   0.547   0.867  0.00  0.00    +0.060 A 
ATOM     22  N   UNL     1      -2.129  -0.153   1.249  0.00  0.00    -0.362 N 
ATOM     23  H   UNL     1      -1.976  -0.201  -2.038  0.00  0.00    +0.162 HD
ATOM     24  H   UNL     1      -1.872  -0.343   2.165  0.00  0.00    +0.162 HD
ENDBRANCH  13  14
ENDBRANCH   8  13
ENDBRANCH   1   9
BRANCH   5  25
ATOM     25  C   UNL     1       2.043  -2.478  -5.973  0.00  0.00    +0.249 C 
ATOM     26  O   UNL     1       2.670  -3.033  -6.856  0.00  0.00    -0.270 OA
ATOM     27  N   UNL     1       0.732  -2.216  -6.140  0.00  0.00    -0.311 N 
ATOM     28  H   UNL     1       0.216  -1.841  -5.410  0.00  0.00    +0.149 HD
BRANCH  27  29
ATOM     29  C   UNL     1       0.086  -2.498  -7.425  0.00  0.00    +0.105 C 
BRANCH  29  30
ATOM     30  C   UNL     1      -1.392  -2.112  -7.348  0.00  0.00    +0.022 C 
BRANCH  30  31
ATOM     31  C   UNL     1      -2.067  -2.406  -8.689  0.00  0.00    -0.016 C 
ATOM     32  C   UNL     1      -3.569  -2.138  -8.575  0.00  0.00    +0.007 C 
ATOM     33  C   UNL     1      -1.469  -1.504  -9.770  0.00  0.00    +0.007 C 
ENDBRANCH  30  31
ENDBRANCH  29  30
ENDBRANCH  27  29
ENDBRANCH   5  25
BRANCH   3  34
ATOM     34  C   UNL     1       6.158  -2.088  -3.363  0.00  0.00    +0.124 C 
BRANCH  34  35
ATOM     35  C   UNL     1       6.459  -3.484  -2.814  0.00  0.00    +0.003 C 
ATOM     36  C   UNL     1       7.968  -3.730  -2.847  0.00  0.00    +0.009 C 
ATOM     37  C   UNL     1       5.957  -3.583  -1.372  0.00  0.00    +0.009 C 
ENDBRANCH  34  35
ENDBRANCH   3  34
TORSDOF 9
