REMARK  Name = ZINC18350624
REMARK  8 active torsions:
REMARK  status: ('A' for Active; 'I' for Inactive)
REMARK    1  A    between atoms: C_1  and  C_2
REMARK    2  A    between atoms: N_11  and  C_15
REMARK    3  A    between atoms: C_15  and  C_16
REMARK    4  A    between atoms: N_18  and  C_19
REMARK    5  A    between atoms: C_19  and  C_21
REMARK    6  A    between atoms: C_19  and  C_32
REMARK    7  A    between atoms: C_32  and  C_33
REMARK    8  A    between atoms: C_32  and  C_34
REMARK                            x       y       z     vdW  Elec       q    Type
REMARK                         _______ _______ _______ _____ _____    ______ ____
ROOT
ATOM      1  C   UNL     1      -2.969   0.347   5.573  0.00  0.00    +0.231 C 
ATOM      2  O   UNL     1      -1.778   0.378   5.343  0.00  0.00    -0.274 OA
ATOM      3  N   UNL     1      -3.409   0.315   6.847  0.00  0.00    -0.307 N 
ATOM      4  H   UNL     1      -4.361   0.290   7.030  0.00  0.00    +0.149 HD
ENDROOT
BRANCH   1   5
ATOM      5  C   UNL     1      -3.956   0.343   4.435  0.00  0.00    +0.213 C 
BRANCH   5  15
ATOM      6  C   UNL     1      -0.002   1.056   2.507  0.00  0.00    +0.010 C 
ATOM      7  C   UNL     1      -0.730   1.580   1.267  0.00  0.00    +0.018 C 
ATOM      8  C   UNL     1      -0.013   1.086   0.008  0.00  0.00    +0.006 C 
ATOM      9  C   UNL     1      -0.753   1.593  -1.231  0.00  0.00    +0.000 C 
ATOM     10  C   UNL     1      -2.186   1.056  -1.227  0.00  0.00    +0.003 C 
ATOM     11  C   UNL     1      -2.911   1.550   0.027  0.00  0.00    +0.035 C 
ATOM     12  C   UNL     1      -2.167   1.069   1.268  0.00  0.00    +0.115 C 
ATOM     13  C   UNL     1      -2.885   1.517   2.521  0.00  0.00    +0.247 C 
ATOM     14  O   UNL     1      -3.102   2.655   2.875  0.00  0.00    -0.273 OA
ATOM     15  N   UNL     1      -3.233   0.381   3.161  0.00  0.00    -0.215 N 
ATOM     16  C   UNL     1      -2.836  -0.706   2.489  0.00  0.00    +0.310 C 
ATOM     17  O   UNL     1      -3.035  -1.844   2.866  0.00  0.00    -0.252 OA
ATOM     18  N   UNL     1      -2.191  -0.397   1.347  0.00  0.00    -0.285 N 
ATOM     19  H   UNL     1      -1.817  -1.020   0.705  0.00  0.00    +0.151 HD
ENDBRANCH   5  15
ENDBRANCH   1   5
BRANCH   3  20
ATOM     20  C   UNL     1      -2.449   0.319   7.953  0.00  0.00    +0.106 C 
BRANCH  20  21
ATOM     21  C   UNL     1      -3.106   0.883   9.186  0.00  0.00    -0.023 A 
ATOM     22  C   UNL     1      -4.415   0.554   9.482  0.00  0.00    +0.009 A 
ATOM     23  C   UNL     1      -5.025   1.068  10.612  0.00  0.00    +0.050 A 
ATOM     24  C   UNL     1      -4.318   1.916  11.448  0.00  0.00    +0.162 A 
ATOM     25  C   UNL     1      -3.003   2.247  11.151  0.00  0.00    +0.162 A 
ATOM     26  C   UNL     1      -2.394   1.726  10.022  0.00  0.00    +0.055 A 
ATOM     27  O   UNL     1      -2.315   3.083  11.981  0.00  0.00    -0.488 OA
ATOM     28  C   UNL     1      -2.003   2.562  13.275  0.00  0.00    +0.232 C 
ATOM     29  C   UNL     1      -3.170   2.756  14.230  0.00  0.00    +0.082 C 
ATOM     30  C   UNL     1      -4.397   1.960  13.814  0.00  0.00    +0.232 C 
ATOM     31  O   UNL     1      -4.907   2.431  12.566  0.00  0.00    -0.488 OA
ENDBRANCH  20  21
BRANCH  20  32
ATOM     32  C   UNL     1      -1.986  -1.113   8.232  0.00  0.00    +0.008 C 
ATOM     33  C   UNL     1      -0.984  -1.109   9.388  0.00  0.00    +0.009 C 
ATOM     34  C   UNL     1      -3.194  -1.975   8.607  0.00  0.00    +0.009 C 
ENDBRANCH  20  32
ENDBRANCH   3  20
TORSDOF 5
