REMARK  Name = ZINC40124749
REMARK  6 active torsions:
REMARK  status: ('A' for Active; 'I' for Inactive)
REMARK    1  A    between atoms: C_1  and  C_2
REMARK    2  A    between atoms: C_2  and  C_3
REMARK    3  A    between atoms: C_2  and  C_4
REMARK    4  A    between atoms: C_7  and  C_10
REMARK    5  A    between atoms: C_12  and  C_18
REMARK    6  A    between atoms: C_18  and  C_20
REMARK                            x       y       z     vdW  Elec       q    Type
REMARK                         _______ _______ _______ _____ _____    ______ ____
ROOT
ATOM      1  C   UNL     1       2.723  -1.791  -4.506  0.00  0.00    +0.142 C 
ATOM      2  C   UNL     1       3.833  -0.941  -5.080  0.00  0.00    +0.079 C 
ATOM      3  C   UNL     1       4.911  -1.748  -5.218  0.00  0.00    +0.249 C 
ATOM      4  C   UNL     1       4.562  -3.107  -4.757  0.00  0.00    +0.285 C 
ATOM      5  O   UNL     1       5.319  -4.058  -4.755  0.00  0.00    -0.267 OA
ATOM      6  N   UNL     1       3.282  -3.138  -4.340  0.00  0.00    -0.298 N 
ATOM      7  O   UNL     1       6.117  -1.368  -5.701  0.00  0.00    -0.282 OA
ATOM      8  H   UNL     1       2.813  -3.912  -3.992  0.00  0.00    +0.150 HD
ENDROOT
BRANCH   1  12
ATOM      9  C   UNL     1       1.486  -0.240  -0.724  0.00  0.00    -0.045 A 
ATOM     10  C   UNL     1       0.658  -0.119  -1.824  0.00  0.00    +0.004 A 
ATOM     11  C   UNL     1       1.059  -0.622  -3.048  0.00  0.00    +0.006 A 
ATOM     12  C   UNL     1       2.287  -1.243  -3.172  0.00  0.00    -0.023 A 
ATOM     13  C   UNL     1       3.115  -1.363  -2.072  0.00  0.00    +0.006 A 
ATOM     14  C   UNL     1       2.717  -0.857  -0.849  0.00  0.00    +0.004 A 
BRANCH   9  16
ATOM     15  C   UNL     1       0.804   1.813   0.489  0.00  0.00    +0.012 C 
ATOM     16  C   UNL     1       1.050   0.307   0.611  0.00  0.00    +0.013 C 
ATOM     17  C   UNL     1      -0.242  -0.386   1.049  0.00  0.00    +0.012 C 
ENDBRANCH   9  16
ENDBRANCH   1  12
BRANCH   2  18
ATOM     18  C   UNL     1       3.756   0.483  -5.421  0.00  0.00    +0.230 C 
ATOM     19  O   UNL     1       4.425   1.294  -4.806  0.00  0.00    -0.283 OA
BRANCH  18  20
ATOM     20  C   UNL     1       2.873   0.932  -6.506  0.00  0.00    +0.176 A 
ATOM     21  C   UNL     1       2.781   2.211  -6.963  0.00  0.00    +0.061 A 
ATOM     22  C   UNL     1       1.788   2.186  -8.035  0.00  0.00    +0.021 A 
ATOM     23  C   UNL     1       1.252   3.155  -8.888  0.00  0.00    +0.011 A 
ATOM     24  C   UNL     1       0.310   2.797  -9.811  0.00  0.00    +0.001 A 
ATOM     25  C   UNL     1      -0.116   1.479  -9.907  0.00  0.00    +0.004 A 
ATOM     26  C   UNL     1       0.400   0.509  -9.075  0.00  0.00    +0.047 A 
ATOM     27  C   UNL     1       1.359   0.849  -8.128  0.00  0.00    +0.136 A 
ATOM     28  O   UNL     1       2.035   0.138  -7.204  0.00  0.00    -0.452 OA
ENDBRANCH  18  20
ENDBRANCH   2  18
TORSDOF 4
