REMARK  Name = ZINC08965459
REMARK  14 active torsions:
REMARK  status: ('A' for Active; 'I' for Inactive)
REMARK    1  A    between atoms: C_1  and  C_2
REMARK    2  A    between atoms: C_2  and  C_3
REMARK    3  A    between atoms: C_4  and  C_33
REMARK    4  A    between atoms: C_6  and  C_31
REMARK    5  A    between atoms: C_7  and  S_9
REMARK    6  A    between atoms: S_9  and  C_10
REMARK    7  A    between atoms: C_10  and  C_11
REMARK    8  A    between atoms: C_12  and  C_26
REMARK    9  A    between atoms: C_13  and  C_21
REMARK   10  A    between atoms: C_15  and  C_19
REMARK   11  A    between atoms: C_16  and  N_18
REMARK   12  A    between atoms: C_26  and  O_28
REMARK   13  A    between atoms: O_28  and  C_29
REMARK   14  A    between atoms: C_29  and  C_30
REMARK                            x       y       z     vdW  Elec       q    Type
REMARK                         _______ _______ _______ _____ _____    ______ ____
ROOT
ATOM      1  C   UNL     1      -1.454   5.172   2.690  0.00  0.00    +0.128 C 
ATOM      2  C   UNL     1      -1.540   3.861   2.435  0.00  0.00    +0.088 C 
ATOM      3  C   UNL     1      -2.219   2.925   3.398  0.00  0.00    +0.111 C 
ATOM      4  C   UNL     1      -3.054   3.709   4.370  0.00  0.00    +0.099 C 
ATOM      5  C   UNL     1      -2.879   5.045   4.514  0.00  0.00    +0.198 C 
ATOM      6  O   UNL     1      -1.955   5.719   3.808  0.00  0.00    -0.444 OA
ENDROOT
BRANCH   3   7
ATOM      7  C   UNL     1      -1.177   2.144   4.156  0.00  0.00    +0.003 A 
ATOM      8  C   UNL     1      -0.987   0.803   4.212  0.00  0.00    +0.012 A 
ATOM      9  C   UNL     1       0.048   0.304   4.980  0.00  0.00    +0.008 A 
ATOM     10  C   UNL     1       0.837   1.169   5.663  0.00  0.00    +0.045 A 
ATOM     11  S   UNL     1       0.124   2.745   5.221  0.00  0.00    -0.101 S 
ENDBRANCH   3   7
BRANCH   5  12
ATOM     12  N   UNL     1      -3.666   5.729   5.407  0.00  0.00    -0.328 N 
ATOM     13  H   UNL     1      -3.552   6.686   5.521  0.00  0.00    +0.145 HD
ATOM     14  H   UNL     1      -4.337   5.256   5.924  0.00  0.00    +0.145 HD
ENDBRANCH   5  12
BRANCH   4  15
ATOM     15  C   UNL     1      -4.051   3.038   5.148  0.00  0.00    +0.101 C 
ATOM     16  N   UNL     1      -4.843   2.505   5.766  0.00  0.00    -0.191 NA
ENDBRANCH   4  15
BRANCH   2  17
ATOM     17  C   UNL     1      -0.989   3.347   1.236  0.00  0.00    +0.339 C 
ATOM     18  O   UNL     1      -1.712   3.110   0.286  0.00  0.00    -0.245 OA
BRANCH  17  19
ATOM     19  O   UNL     1       0.338   3.121   1.146  0.00  0.00    -0.462 OA
BRANCH  19  20
ATOM     20  C   UNL     1       0.826   2.602  -0.093  0.00  0.00    +0.229 C 
ATOM     21  C   UNL     1       2.341   2.412  -0.006  0.00  0.00    +0.048 C 
ENDBRANCH  19  20
ENDBRANCH  17  19
ENDBRANCH   2  17
BRANCH   1  22
ATOM     22  C   UNL     1      -0.770   6.065   1.687  0.00  0.00    +0.150 C 
BRANCH  22  23
ATOM     23  S   UNL     1      -2.014   7.006   0.770  0.00  0.00    -0.097 S 
BRANCH  23  28
ATOM     24  C   UNL     1       1.165   8.461  -1.012  0.00  0.00    +0.045 A 
ATOM     25  C   UNL     1       0.685   9.364  -1.944  0.00  0.00    -0.028 A 
ATOM     26  C   UNL     1      -0.680   9.564  -2.060  0.00  0.00    +0.026 A 
ATOM     27  C   UNL     1      -1.532   8.836  -1.222  0.00  0.00    +0.084 A 
ATOM     28  C   UNL     1      -0.968   7.936  -0.299  0.00  0.00    +0.115 A 
ATOM     29  N   UNL     1       0.347   7.789  -0.227  0.00  0.00    -0.244 NA
ATOM     30  C   UNL     1       1.641  10.126  -2.825  0.00  0.00    +0.045 C 
BRANCH  24  32
ATOM     31  C   UNL     1       3.224   9.227   0.138  0.00  0.00    +0.010 C 
ATOM     32  C   UNL     1       2.652   8.247  -0.888  0.00  0.00    +0.052 C 
ENDBRANCH  24  32
BRANCH  27  33
ATOM     33  C   UNL     1      -2.951   9.005  -1.301  0.00  0.00    +0.102 C 
ATOM     34  N   UNL     1      -4.078   9.139  -1.363  0.00  0.00    -0.191 NA
ENDBRANCH  27  33
ENDBRANCH  23  28
ENDBRANCH  22  23
ENDBRANCH   1  22
TORSDOF 11
