REMARK  Name = ZINC38661317
REMARK  8 active torsions:
REMARK  status: ('A' for Active; 'I' for Inactive)
REMARK    1  A    between atoms: C_1  and  N_2
REMARK    2  A    between atoms: C_3  and  C_27
REMARK    3  A    between atoms: C_7  and  S_8
REMARK    4  A    between atoms: S_8  and  C_9
REMARK    5  A    between atoms: C_9  and  C_10
REMARK    6  A    between atoms: N_12  and  N_13
REMARK    7  A    between atoms: C_14  and  C_15
REMARK    8  A    between atoms: C_20  and  C_21
REMARK                            x       y       z     vdW  Elec       q    Type
REMARK                         _______ _______ _______ _____ _____    ______ ____
ROOT
ATOM      1  C   UNL     1       5.234  -0.796  -0.599  0.00  0.00    +0.242 C 
ATOM      2  O   UNL     1       5.449   0.394  -0.688  0.00  0.00    -0.273 OA
ATOM      3  N   UNL     1       6.257  -1.673  -0.664  0.00  0.00    -0.207 N 
ATOM      4  H   UNL     1       6.085  -2.625  -0.593  0.00  0.00    +0.177 HD
ENDROOT
BRANCH   3   5
ATOM      5  N   UNL     1       7.567  -1.208  -0.834  0.00  0.00    -0.192 NA
ATOM      6  C   UNL     1       8.538  -2.040  -0.896  0.00  0.00    +0.118 C 
BRANCH   6   7
ATOM      7  C   UNL     1       9.948  -1.541  -1.079  0.00  0.00    +0.125 C 
ATOM      8  C   UNL     1      10.841  -2.039   0.040  0.00  0.00    +0.123 C 
ATOM      9  N   UNL     1      11.752  -2.764  -0.524  0.00  0.00    -0.161 NA
ATOM     10  N   UNL     1      11.601  -2.830  -1.905  0.00  0.00    -0.153 NA
ATOM     11  C   UNL     1      10.571  -2.142  -2.324  0.00  0.00    +0.084 C 
BRANCH  11  12
ATOM     12  C   UNL     1      10.108  -1.984  -3.712  0.00  0.00    -0.001 A 
ATOM     13  C   UNL     1       8.982  -1.205  -3.993  0.00  0.00    +0.010 A 
ATOM     14  C   UNL     1       8.555  -1.062  -5.297  0.00  0.00    +0.001 A 
ATOM     15  C   UNL     1       9.238  -1.688  -6.325  0.00  0.00    +0.000 A 
ATOM     16  C   UNL     1      10.354  -2.461  -6.055  0.00  0.00    +0.001 A 
ATOM     17  C   UNL     1      10.797  -2.608  -4.757  0.00  0.00    +0.010 A 
ENDBRANCH  11  12
ENDBRANCH   6   7
ENDBRANCH   3   5
BRANCH   1  18
ATOM     18  C   UNL     1       3.825  -1.296  -0.416  0.00  0.00    +0.174 C 
BRANCH  18  19
ATOM     19  S   UNL     1       2.685   0.115  -0.368  0.00  0.00    -0.080 S 
BRANCH  19  25
ATOM     20  C   UNL     1      -0.236   1.546  -0.123  0.00  0.00    +0.133 C 
ATOM     21  N   UNL     1      -0.085   0.090  -0.061  0.00  0.00    -0.288 N 
ATOM     22  C   UNL     1      -1.161  -0.901   0.105  0.00  0.00    +0.208 C 
ATOM     23  N   UNL     1      -0.456  -2.194   0.101  0.00  0.00    -0.242 N 
ATOM     24  N   UNL     1       0.903  -1.896  -0.057  0.00  0.00    -0.162 NA
ATOM     25  C   UNL     1       1.100  -0.625  -0.152  0.00  0.00    +0.175 C 
ATOM     26  H   UNL     1      -0.853  -3.075   0.190  0.00  0.00    +0.170 HD
BRANCH  22  27
ATOM     27  C   UNL     1      -1.877  -0.690   1.415  0.00  0.00    -0.008 A 
ATOM     28  C   UNL     1      -3.228  -0.397   1.424  0.00  0.00    +0.008 A 
ATOM     29  C   UNL     1      -3.885  -0.204   2.625  0.00  0.00    +0.015 A 
ATOM     30  C   UNL     1      -3.191  -0.303   3.817  0.00  0.00    +0.018 A 
ATOM     31  C   UNL     1      -1.839  -0.596   3.807  0.00  0.00    +0.015 A 
ATOM     32  C   UNL     1      -1.184  -0.794   2.606  0.00  0.00    +0.008 A 
ATOM     33 BR   UNL     1      -4.089  -0.038   5.460  0.00  0.00    -0.050 Br
ENDBRANCH  22  27
ENDBRANCH  19  25
ENDBRANCH  18  19
ENDBRANCH   1  18
TORSDOF 7
