REMARK  Name = ZINC14550759
REMARK  4 active torsions:
REMARK  status: ('A' for Active; 'I' for Inactive)
REMARK    1  A    between atoms: C_1  and  C_2
REMARK    2  A    between atoms: C_5  and  O_27
REMARK    3  A    between atoms: C_15  and  C_18
REMARK    4  A    between atoms: C_21  and  N_24
REMARK                            x       y       z     vdW  Elec       q    Type
REMARK                         _______ _______ _______ _____ _____    ______ ____
ROOT
ATOM      1  C   UNL     1      -0.915   0.374  -1.441  0.00  0.00    +0.044 C 
ATOM      2  C   UNL     1      -1.122   0.867  -0.031  0.00  0.00    -0.045 A 
ATOM      3  C   UNL     1      -0.091   0.773   0.884  0.00  0.00    +0.007 A 
ATOM      4  C   UNL     1      -0.282   1.223   2.178  0.00  0.00    +0.047 A 
ATOM      5  C   UNL     1      -1.499   1.756   2.555  0.00  0.00    +0.138 A 
ATOM      6  C   UNL     1      -2.552   1.853   1.638  0.00  0.00    +0.074 A 
ATOM      7  C   UNL     1      -2.336   1.412   0.331  0.00  0.00    -0.013 A 
ATOM      8  C   UNL     1      -3.444   1.556  -0.638  0.00  0.00    +0.049 C 
ATOM      9  C   UNL     1      -3.624   0.645  -1.794  0.00  0.00    -0.023 C 
ATOM     10  C   UNL     1      -4.923   0.541  -2.052  0.00  0.00    -0.030 C 
ATOM     11  C   UNL     1      -5.723   1.365  -1.040  0.00  0.00    +0.033 C 
ATOM     12  C   UNL     1      -4.772   1.379   0.162  0.00  0.00    +0.029 C 
ATOM     13  C   UNL     1      -4.821   2.573   1.093  0.00  0.00    +0.105 C 
ATOM     14  N   UNL     1      -3.760   2.383   2.095  0.00  0.00    -0.334 N 
ATOM     15  H   UNL     1      -4.103   1.866   2.891  0.00  0.00    +0.147 HD
ENDROOT
BRANCH  13  16
ATOM     16  C   UNL     1      -4.573   3.840   0.316  0.00  0.00    -0.027 A 
ATOM     17  C   UNL     1      -3.293   4.354   0.222  0.00  0.00    +0.008 A 
ATOM     18  C   UNL     1      -3.064   5.514  -0.494  0.00  0.00    +0.033 A 
ATOM     19  C   UNL     1      -4.117   6.165  -1.109  0.00  0.00    +0.126 A 
ATOM     20  C   UNL     1      -5.398   5.654  -1.011  0.00  0.00    +0.033 A 
ATOM     21  C   UNL     1      -5.626   4.492  -0.298  0.00  0.00    +0.008 A 
BRANCH  19  22
ATOM     22  N   UNL     1      -3.873   7.409  -1.873  0.00  0.00    +0.056 N 
ATOM     23  O   UNL     1      -4.801   7.983  -2.415  0.00  0.00    -0.126 OA
ATOM     24  O   UNL     1      -2.745   7.859  -1.959  0.00  0.00    -0.126 OA
ENDBRANCH  19  22
ENDBRANCH  13  16
BRANCH   5  25
ATOM     25  O   UNL     1      -1.677   2.191   3.832  0.00  0.00    -0.505 OA
ATOM     26  H   UNL     1      -1.448   3.121   3.965  0.00  0.00    +0.292 HD
ENDBRANCH   5  25
TORSDOF 3
