REMARK  Name = ZINC06196987
REMARK  9 active torsions:
REMARK  status: ('A' for Active; 'I' for Inactive)
REMARK    1  A    between atoms: C_1  and  C_2
REMARK    2  A    between atoms: C_2  and  O_3
REMARK    3  A    between atoms: O_3  and  C_4
REMARK    4  A    between atoms: C_11  and  C_16
REMARK    5  A    between atoms: C_16  and  C_18
REMARK    6  A    between atoms: C_16  and  N_70
REMARK    7  A    between atoms: N_22  and  C_23
REMARK    8  A    between atoms: C_23  and  C_24
REMARK    9  A    between atoms: C_32  and  C_35
REMARK                            x       y       z     vdW  Elec       q    Type
REMARK                         _______ _______ _______ _____ _____    ______ ____
ROOT
ATOM      1  C   UNL     1       2.938  -6.255  -5.078  0.00  0.00    +0.039 C 
ENDROOT
BRANCH   1   9
ATOM      2  C   UNL     1      -2.148  -5.952  -1.546  0.00  0.00    +0.121 A 
ATOM      3  C   UNL     1      -1.567  -5.225  -0.509  0.00  0.00    +0.047 A 
ATOM      4  C   UNL     1      -0.240  -4.859  -0.567  0.00  0.00    +0.030 A 
ATOM      5  C   UNL     1       0.529  -5.205  -1.673  0.00  0.00    +0.049 A 
ATOM      6  C   UNL     1      -0.056  -5.934  -2.725  0.00  0.00    +0.002 A 
ATOM      7  C   UNL     1      -1.402  -6.305  -2.653  0.00  0.00    +0.055 A 
ATOM      8  C   UNL     1       0.766  -6.290  -3.884  0.00  0.00    +0.017 A 
ATOM      9  C   UNL     1       2.065  -5.904  -3.901  0.00  0.00    +0.011 A 
ATOM     10  C   UNL     1       2.604  -5.174  -2.820  0.00  0.00    +0.251 A 
ATOM     11  O   UNL     1       3.775  -4.837  -2.855  0.00  0.00    -0.268 OA
ATOM     12  N   UNL     1       1.858  -4.842  -1.752  0.00  0.00    -0.322 N 
ATOM     13  H   UNL     1       2.273  -4.324  -1.003  0.00  0.00    +0.169 HD
BRANCH   2  14
ATOM     14  O   UNL     1      -3.457  -6.310  -1.470  0.00  0.00    -0.492 OA
BRANCH  14  16
ATOM     15  C   UNL     1      -5.618  -6.401  -0.392  0.00  0.00    +0.048 C 
ATOM     16  C   UNL     1      -4.171  -5.912  -0.298  0.00  0.00    +0.225 C 
ENDBRANCH  14  16
ENDBRANCH   2  14
ENDBRANCH   1   9
BRANCH   1  22
ATOM     17  C   UNL     1       4.827  -7.609  -5.766  0.00  0.00    -0.072 C 
ATOM     18  C   UNL     1       6.151  -8.178  -5.247  0.00  0.00    +0.017 C 
ATOM     19  C   UNL     1       5.888  -9.086  -4.078  0.00  0.00    -0.048 C 
ATOM     20  C   UNL     1       4.752  -9.081  -3.416  0.00  0.00    -0.041 C 
ATOM     21  C   UNL     1       3.605  -8.176  -3.764  0.00  0.00    -0.049 C 
ATOM     22  N   UNL     1       4.084  -7.067  -4.610  0.00  0.00    +0.392 N 
ATOM     23  H   UNL     1       4.712  -6.471  -4.057  0.00  0.00    -0.080 HD
BRANCH  19  24
ATOM     24  C   UNL     1       6.950 -10.023  -3.656  0.00  0.00    -0.022 A 
ATOM     25  C   UNL     1       8.157  -9.534  -3.155  0.00  0.00    +0.011 A 
ATOM     26  C   UNL     1       9.143 -10.412  -2.757  0.00  0.00    +0.039 A 
ATOM     27  C   UNL     1       8.941 -11.779  -2.865  0.00  0.00    +0.123 A 
ATOM     28  C   UNL     1       7.747 -12.270  -3.368  0.00  0.00    +0.039 A 
ATOM     29  C   UNL     1       6.752 -11.400  -3.763  0.00  0.00    +0.011 A 
ATOM     30  F   UNL     1       9.912 -12.636  -2.480  0.00  0.00    -0.205 F 
ENDBRANCH  19  24
ENDBRANCH   1  22
BRANCH   1  31
ATOM     31  C   UNL     1       2.130  -7.027  -6.089  0.00  0.00    +0.143 A 
ATOM     32  N   UNL     1       1.754  -8.280  -5.999  0.00  0.00    -0.115 NA
ATOM     33  N   UNL     1       1.082  -8.571  -7.059  0.00  0.00    -0.023 NA
ATOM     34  N   UNL     1       1.020  -7.537  -7.823  0.00  0.00    -0.044 NA
ATOM     35  N   UNL     1       1.649  -6.563  -7.258  0.00  0.00    -0.228 N 
BRANCH  35  36
ATOM     36  C   UNL     1       1.814  -5.208  -7.789  0.00  0.00    +0.178 C 
BRANCH  36  37
ATOM     37  C   UNL     1       3.087  -5.143  -8.635  0.00  0.00    +0.140 C 
ATOM     38  C   UNL     1       3.251  -3.731  -9.252  0.00  0.00    +0.035 C 
ATOM     39  C   UNL     1       4.788  -3.682  -9.472  0.00  0.00    +0.031 C 
ATOM     40  C   UNL     1       5.316  -4.497  -8.272  0.00  0.00    +0.160 C 
ATOM     41  O   UNL     1       4.246  -5.328  -7.807  0.00  0.00    -0.375 OA
ENDBRANCH  36  37
ENDBRANCH  35  36
ENDBRANCH   1  31
TORSDOF 8
