REMARK  Name = ZINC36144769
REMARK  8 active torsions:
REMARK  status: ('A' for Active; 'I' for Inactive)
REMARK    1  A    between atoms: C_1  and  O_2
REMARK    2  A    between atoms: O_2  and  C_3
REMARK    3  A    between atoms: C_3  and  C_5
REMARK    4  A    between atoms: C_6  and  N_16
REMARK    5  A    between atoms: C_17  and  C_19
REMARK    6  A    between atoms: C_19  and  N_20
REMARK    7  A    between atoms: N_23  and  C_26
REMARK    8  A    between atoms: C_29  and  N_32
REMARK                            x       y       z     vdW  Elec       q    Type
REMARK                         _______ _______ _______ _____ _____    ______ ____
ROOT
ATOM      1  N   UNL     1       2.065  -2.246  -3.183  0.00  0.00    -0.282 N 
ATOM      2  C   UNL     1       2.573  -1.000  -3.110  0.00  0.00    +0.231 C 
ATOM      3  O   UNL     1       2.473  -0.363  -2.083  0.00  0.00    -0.274 OA
ATOM      4  H   UNL     1       2.205  -2.781  -3.980  0.00  0.00    +0.155 HD
ENDROOT
BRANCH   1   6
ATOM      5  C   UNL     1       1.245  -4.092  -1.751  0.00  0.00    +0.147 A 
ATOM      6  C   UNL     1       1.340  -2.765  -2.115  0.00  0.00    +0.073 A 
ATOM      7  C   UNL     1       0.528  -2.009  -1.159  0.00  0.00    +0.023 A 
ATOM      8  C   UNL     1       0.235  -0.650  -1.008  0.00  0.00    +0.027 A 
ATOM      9  C   UNL     1      -0.576  -0.240   0.011  0.00  0.00    +0.019 A 
ATOM     10  C   UNL     1      -1.114  -1.163   0.900  0.00  0.00    +0.017 A 
ATOM     11  C   UNL     1      -0.840  -2.505   0.770  0.00  0.00    +0.027 A 
ATOM     12  C   UNL     1      -0.014  -2.948  -0.262  0.00  0.00    +0.049 A 
ATOM     13  N   UNL     1       0.424  -4.196  -0.638  0.00  0.00    -0.348 N 
ATOM     14  H   UNL     1       0.195  -5.025  -0.190  0.00  0.00    +0.166 HD
ATOM     15 BR   UNL     1      -0.971   1.599   0.215  0.00  0.00    -0.050 Br
BRANCH   5  16
ATOM     16  C   UNL     1       1.880  -5.176  -2.411  0.00  0.00    +0.357 C 
ATOM     17  O   UNL     1       2.506  -4.981  -3.436  0.00  0.00    -0.243 OA
BRANCH  16  19
ATOM     18  C   UNL     1       2.452  -7.465  -2.619  0.00  0.00    +0.280 C 
ATOM     19  O   UNL     1       1.788  -6.422  -1.903  0.00  0.00    -0.463 OA
ENDBRANCH  16  19
ENDBRANCH   5  16
ENDBRANCH   1   6
BRANCH   2  20
ATOM     20  C   UNL     1       3.266  -0.398  -4.305  0.00  0.00    +0.180 C 
BRANCH  20  21
ATOM     21  N   UNL     1       3.727   0.957  -3.973  0.00  0.00    -0.291 NA
ATOM     22  C   UNL     1       4.769   0.920  -2.938  0.00  0.00    +0.104 C 
ATOM     23  C   UNL     1       5.092   2.349  -2.492  0.00  0.00    +0.120 C 
ATOM     24  N   UNL     1       5.425   3.147  -3.682  0.00  0.00    -0.327 N 
ATOM     25  C   UNL     1       4.492   3.124  -4.818  0.00  0.00    +0.120 C 
ATOM     26  C   UNL     1       4.193   1.664  -5.173  0.00  0.00    +0.104 C 
BRANCH  24  27
ATOM     27  C   UNL     1       6.597   3.905  -3.731  0.00  0.00    +0.030 A 
ATOM     28  C   UNL     1       6.953   4.561  -4.903  0.00  0.00    +0.025 A 
ATOM     29  C   UNL     1       8.112   5.311  -4.948  0.00  0.00    +0.034 A 
ATOM     30  C   UNL     1       8.918   5.409  -3.829  0.00  0.00    +0.126 A 
ATOM     31  C   UNL     1       8.567   4.757  -2.661  0.00  0.00    +0.034 A 
ATOM     32  C   UNL     1       7.406   4.010  -2.607  0.00  0.00    +0.025 A 
BRANCH  30  33
ATOM     33  N   UNL     1      10.159   6.213  -3.881  0.00  0.00    +0.056 N 
ATOM     34  O   UNL     1      10.468   6.783  -4.901  0.00  0.00    -0.126 OA
ATOM     35  O   UNL     1      10.865   6.299  -2.903  0.00  0.00    -0.126 OA
ENDBRANCH  30  33
ENDBRANCH  24  27
ENDBRANCH  20  21
ENDBRANCH   2  20
TORSDOF 7
