REMARK  Name = ZINC10537961
REMARK  10 active torsions:
REMARK  status: ('A' for Active; 'I' for Inactive)
REMARK    1  A    between atoms: C_1  and  C_2
REMARK    2  A    between atoms: C_2  and  C_3
REMARK    3  A    between atoms: C_3  and  N_4
REMARK    4  A    between atoms: N_4  and  C_5
REMARK    5  A    between atoms: C_5  and  C_6
REMARK    6  A    between atoms: N_8  and  C_9
REMARK    7  A    between atoms: C_14  and  C_15
REMARK    8  A    between atoms: C_16  and  C_18
REMARK    9  A    between atoms: C_18  and  N_19
REMARK   10  A    between atoms: C_23  and  C_24
REMARK                            x       y       z     vdW  Elec       q    Type
REMARK                         _______ _______ _______ _____ _____    ______ ____
ROOT
ATOM      1  N   UNL     1       8.998   2.653   1.602  0.00  0.00    -0.291 N 
ATOM      2  C   UNL     1       7.681   2.821   1.371  0.00  0.00    +0.234 C 
ATOM      3  O   UNL     1       6.908   2.911   2.301  0.00  0.00    -0.274 OA
ENDROOT
BRANCH   1   4
ATOM      4  C   UNL     1       9.931   2.543   0.477  0.00  0.00    +0.108 C 
BRANCH   4   6
ATOM      5  C   UNL     1      11.410   3.822  -1.077  0.00  0.00    +0.005 C 
ATOM      6  C   UNL     1      10.436   3.936   0.097  0.00  0.00    +0.016 C 
ENDBRANCH   4   6
ENDBRANCH   1   4
BRANCH   1   7
ATOM      7  C   UNL     1       9.496   2.579   2.977  0.00  0.00    +0.203 C 
BRANCH   7   8
ATOM      8  C   UNL     1       9.489   1.145   3.438  0.00  0.00    +0.235 C 
ATOM      9  O   UNL     1       9.106   0.270   2.692  0.00  0.00    -0.274 OA
ATOM     10  N   UNL     1       9.910   0.834   4.681  0.00  0.00    -0.284 N 
ATOM     11  H   UNL     1      10.291   1.521   5.250  0.00  0.00    +0.155 HD
BRANCH  10  12
ATOM     12  C   UNL     1       9.796  -0.479   5.150  0.00  0.00    +0.036 A 
ATOM     13  C   UNL     1       8.835  -1.328   4.615  0.00  0.00    +0.023 A 
ATOM     14  C   UNL     1       8.729  -2.625   5.077  0.00  0.00    +0.002 A 
ATOM     15  C   UNL     1       9.570  -3.076   6.078  0.00  0.00    +0.000 A 
ATOM     16  C   UNL     1      10.523  -2.231   6.617  0.00  0.00    +0.005 A 
ATOM     17  C   UNL     1      10.638  -0.934   6.155  0.00  0.00    -0.029 A 
ATOM     18  C   UNL     1      11.677  -0.014   6.743  0.00  0.00    +0.045 C 
ENDBRANCH  10  12
ENDBRANCH   7   8
ENDBRANCH   1   7
BRANCH   2  19
ATOM     19  C   UNL     1       7.168   2.896  -0.044  0.00  0.00    +0.213 C 
BRANCH  19  20
ATOM     20  N   UNL     1       5.714   3.079  -0.028  0.00  0.00    -0.219 N 
ATOM     21  C   UNL     1       4.924   2.019  -0.023  0.00  0.00    +0.261 C 
ATOM     22  O   UNL     1       5.386   0.893  -0.031  0.00  0.00    -0.269 OA
ATOM     23  C   UNL     1       3.513   2.235  -0.012  0.00  0.00    +0.080 C 
ATOM     24  C   UNL     1       2.497   1.326  -0.009  0.00  0.00    +0.035 C 
ATOM     25  S   UNL     1       3.441   4.021   0.005  0.00  0.00    -0.026 S 
ATOM     26  C   UNL     1       5.201   4.329  -0.011  0.00  0.00    +0.286 C 
ATOM     27  O   UNL     1       5.788   5.395  -0.007  0.00  0.00    -0.262 OA
BRANCH  24  28
ATOM     28  C   UNL     1       1.153   1.768   0.008  0.00  0.00    +0.013 A 
ATOM     29  C   UNL     1      -0.017   1.016   0.014  0.00  0.00    +0.015 A 
ATOM     30  C   UNL     1      -1.202   1.709   0.026  0.00  0.00    +0.008 A 
ATOM     31  C   UNL     1      -1.177   3.067   0.043  0.00  0.00    +0.046 A 
ATOM     32  S   UNL     1       0.517   3.435   0.029  0.00  0.00    -0.097 S 
ENDBRANCH  24  28
ENDBRANCH  19  20
ENDBRANCH   2  19
TORSDOF 8
