REMARK  Name = ZINC12348488
REMARK  8 active torsions:
REMARK  status: ('A' for Active; 'I' for Inactive)
REMARK    1  A    between atoms: C_1  and  O_2
REMARK    2  A    between atoms: O_2  and  C_3
REMARK    3  A    between atoms: C_6  and  C_13
REMARK    4  A    between atoms: C_7  and  O_11
REMARK    5  A    between atoms: C_8  and  O_9
REMARK    6  A    between atoms: O_9  and  C_10
REMARK    7  A    between atoms: O_11  and  C_12
REMARK    8  A    between atoms: N_19  and  C_22
REMARK                            x       y       z     vdW  Elec       q    Type
REMARK                         _______ _______ _______ _____ _____    ______ ____
ROOT
ATOM      1  C   UNL     1       2.435  -2.466   4.567  0.00  0.00    +0.096 C 
ATOM      2  C   UNL     1       3.914  -2.198   4.587  0.00  0.00    +0.070 A 
ATOM      3  C   UNL     1       4.481  -1.259   5.413  0.00  0.00    +0.125 A 
ATOM      4  N   UNL     1       5.823  -1.254   5.192  0.00  0.00    -0.277 N 
ATOM      5  H   UNL     1       6.473  -0.687   5.636  0.00  0.00    +0.189 HD
ATOM      6  N   UNL     1       6.101  -2.216   4.206  0.00  0.00    -0.218 N 
ATOM      7  C   UNL     1       4.934  -2.789   3.841  0.00  0.00    +0.278 A 
ATOM      8  O   UNL     1       4.796  -3.668   3.007  0.00  0.00    -0.265 OA
ATOM      9  N   UNL     1       3.719  -0.512   6.278  0.00  0.00    -0.303 N 
ATOM     10  C   UNL     1       2.427  -0.909   6.534  0.00  0.00    +0.017 C 
ATOM     11  C   UNL     1       1.788  -1.821   5.774  0.00  0.00    +0.024 C 
ATOM     12  C   UNL     1       0.471  -2.220   6.077  0.00  0.00    +0.162 C 
ATOM     13  O   UNL     1      -0.080  -3.035   5.364  0.00  0.00    -0.292 OA
ATOM     14  C   UNL     1      -0.267  -1.662   7.261  0.00  0.00    +0.080 C 
ATOM     15  C   UNL     1       0.750  -1.261   8.335  0.00  0.00    +0.014 C 
ATOM     16  C   UNL     1       1.736  -0.270   7.717  0.00  0.00    +0.051 C 
ATOM     17  H   UNL     1       4.085   0.280   6.702  0.00  0.00    +0.153 HD
ENDROOT
BRANCH   1  21
ATOM     18  C   UNL     1       0.737  -0.834   0.994  0.00  0.00    +0.165 A 
ATOM     19  C   UNL     1       0.902  -2.205   1.126  0.00  0.00    +0.050 A 
ATOM     20  C   UNL     1       1.451  -2.728   2.281  0.00  0.00    +0.012 A 
ATOM     21  C   UNL     1       1.838  -1.889   3.309  0.00  0.00    +0.010 A 
ATOM     22  C   UNL     1       1.676  -0.518   3.185  0.00  0.00    +0.169 A 
ATOM     23  C   UNL     1       1.129   0.013   2.023  0.00  0.00    +0.204 A 
BRANCH  18  25
ATOM     24  C   UNL     1      -0.185  -1.250  -1.159  0.00  0.00    +0.277 C 
ATOM     25  O   UNL     1       0.196  -0.320  -0.143  0.00  0.00    -0.491 OA
ENDBRANCH  18  25
BRANCH  23  26
ATOM     26  O   UNL     1       0.974   1.359   1.895  0.00  0.00    -0.488 OA
ATOM     27  C   UNL     1      -0.262   1.915   2.348  0.00  0.00    +0.277 C 
ENDBRANCH  23  26
BRANCH  22  28
ATOM     28  O   UNL     1       2.055   0.307   4.198  0.00  0.00    -0.491 OA
ATOM     29  C   UNL     1       3.314   0.968   4.059  0.00  0.00    +0.277 C 
ENDBRANCH  22  28
ENDBRANCH   1  21
BRANCH   6  30
ATOM     30  C   UNL     1       7.365  -2.525   3.693  0.00  0.00    +0.067 A 
ATOM     31  C   UNL     1       7.498  -3.498   2.711  0.00  0.00    +0.028 A 
ATOM     32  C   UNL     1       8.747  -3.801   2.207  0.00  0.00    +0.002 A 
ATOM     33  C   UNL     1       9.865  -3.137   2.678  0.00  0.00    +0.000 A 
ATOM     34  C   UNL     1       9.736  -2.167   3.655  0.00  0.00    +0.002 A 
ATOM     35  C   UNL     1       8.488  -1.855   4.160  0.00  0.00    +0.028 A 
ENDBRANCH   6  30
TORSDOF 5
