REMARK  Name = ZINC11632540
REMARK  3 active torsions:
REMARK  status: ('A' for Active; 'I' for Inactive)
REMARK    1  A    between atoms: C_3  and  N_20
REMARK    2  A    between atoms: N_7  and  C_11
REMARK    3  A    between atoms: C_11  and  C_12
REMARK                            x       y       z     vdW  Elec       q    Type
REMARK                         _______ _______ _______ _____ _____    ______ ____
ROOT
ATOM      1  C   UNL     1       1.169   2.096   0.002  0.00  0.00    +0.004 A 
ATOM      2  C   UNL     1      -0.017   1.383   0.010  0.00  0.00    +0.026 A 
ATOM      3  C   UNL     1       0.002  -0.004   0.002  0.00  0.00    +0.070 A 
ATOM      4  C   UNL     1       1.220  -0.679  -0.013  0.00  0.00    +0.177 A 
ATOM      5  C   UNL     1       2.409   0.044  -0.021  0.00  0.00    +0.092 A 
ATOM      6  C   UNL     1       2.380   1.431  -0.013  0.00  0.00    +0.030 A 
ATOM      7  N   UNL     1       3.444  -0.891  -0.036  0.00  0.00    -0.270 N 
ATOM      8  C   UNL     1       2.884  -2.116  -0.037  0.00  0.00    +0.422 A 
ATOM      9  O   UNL     1       3.494  -3.168  -0.049  0.00  0.00    -0.223 OA
ATOM     10  O   UNL     1       1.547  -1.995  -0.024  0.00  0.00    -0.406 OA
ENDROOT
BRANCH   3  11
ATOM     11  N   UNL     1      -1.198  -0.722   0.010  0.00  0.00    -0.355 N 
ATOM     12  H   UNL     1      -2.046  -0.250   0.021  0.00  0.00    +0.142 HD
ATOM     13  H   UNL     1      -1.183  -1.692   0.005  0.00  0.00    +0.142 HD
ENDBRANCH   3  11
BRANCH   7  14
ATOM     14  C   UNL     1       4.879  -0.595  -0.048  0.00  0.00    +0.168 C 
BRANCH  14  15
ATOM     15  C   UNL     1       5.385  -0.501   1.369  0.00  0.00    +0.026 A 
ATOM     16  C   UNL     1       5.380   0.718   2.026  0.00  0.00    +0.130 A 
ATOM     17  C   UNL     1       5.839   0.801   3.330  0.00  0.00    +0.039 A 
ATOM     18  C   UNL     1       6.312  -0.329   3.970  0.00  0.00    +0.004 A 
ATOM     19  C   UNL     1       6.323  -1.544   3.311  0.00  0.00    +0.020 A 
ATOM     20  C   UNL     1       5.859  -1.630   2.010  0.00  0.00    +0.049 A 
ATOM     21 CL   UNL     1       5.872  -3.157   1.184  0.00  0.00    -0.083 Cl
ATOM     22  F   UNL     1       4.922   1.823   1.399  0.00  0.00    -0.205 F 
ENDBRANCH  14  15
ENDBRANCH   7  14
TORSDOF 3
