REMARK  Name = ZINC04858734
REMARK  4 active torsions:
REMARK  status: ('A' for Active; 'I' for Inactive)
REMARK    1  A    between atoms: C_4  and  N_22
REMARK    2  A    between atoms: C_5  and  C_7
REMARK    3  A    between atoms: N_9  and  C_10
REMARK    4  A    between atoms: C_10  and  C_11
REMARK                            x       y       z     vdW  Elec       q    Type
REMARK                         _______ _______ _______ _____ _____    ______ ____
ROOT
ATOM      1  C   UNL     1       0.381   9.303  -0.194  0.00  0.00    +0.246 C 
ATOM      2  O   UNL     1      -0.396   9.932   0.498  0.00  0.00    -0.270 OA
ATOM      3  N   UNL     1       0.467   7.964  -0.065  0.00  0.00    -0.308 N 
ATOM      4  H   UNL     1       1.087   7.463  -0.617  0.00  0.00    +0.149 HD
ENDROOT
BRANCH   1   9
ATOM      5  C   UNL     1       2.823   9.940  -2.970  0.00  0.00    +0.001 A 
ATOM      6  C   UNL     1       2.827  11.325  -3.020  0.00  0.00    +0.002 A 
ATOM      7  C   UNL     1       2.040  12.057  -2.155  0.00  0.00    +0.023 A 
ATOM      8  C   UNL     1       1.232  11.407  -1.230  0.00  0.00    +0.037 A 
ATOM      9  C   UNL     1       1.230  10.005  -1.174  0.00  0.00    +0.057 A 
ATOM     10  C   UNL     1       2.033   9.278  -2.057  0.00  0.00    +0.015 A 
BRANCH   8  11
ATOM     11  N   UNL     1       0.435  12.142  -0.362  0.00  0.00    -0.357 N 
ATOM     12  H   UNL     1       0.153  11.756   0.482  0.00  0.00    +0.142 HD
ATOM     13  H   UNL     1       0.159  13.041  -0.600  0.00  0.00    +0.142 HD
ENDBRANCH   8  11
ENDBRANCH   1   9
BRANCH   3  14
ATOM     14  C   UNL     1      -0.376   7.266   0.909  0.00  0.00    +0.152 C 
BRANCH  14  15
ATOM     15  C   UNL     1      -0.085   5.766   0.854  0.00  0.00    +0.228 C 
ATOM     16  C   UNL     1      -1.051   5.016   1.781  0.00  0.00    +0.275 C 
ATOM     17  O   UNL     1      -0.742   3.620   1.716  0.00  0.00    -0.485 OA
ATOM     18  C   UNL     1       0.573   3.280   1.807  0.00  0.00    +0.162 A 
ATOM     19  C   UNL     1       0.918   1.970   2.108  0.00  0.00    +0.049 A 
ATOM     20  C   UNL     1       2.249   1.611   2.207  0.00  0.00    +0.004 A 
ATOM     21  C   UNL     1       3.239   2.551   1.995  0.00  0.00    +0.004 A 
ATOM     22  C   UNL     1       2.902   3.857   1.690  0.00  0.00    +0.049 A 
ATOM     23  C   UNL     1       1.569   4.226   1.597  0.00  0.00    +0.163 A 
ATOM     24  O   UNL     1       1.252   5.517   1.304  0.00  0.00    -0.480 OA
ENDBRANCH  14  15
ENDBRANCH   3  14
TORSDOF 4
