REMARK  Name = ZINC09610219
REMARK  13 active torsions:
REMARK  status: ('A' for Active; 'I' for Inactive)
REMARK    1  A    between atoms: C_1  and  C_2
REMARK    2  A    between atoms: C_3  and  C_19
REMARK    3  A    between atoms: C_4  and  C_18
REMARK    4  A    between atoms: C_8  and  C_17
REMARK    5  A    between atoms: N_10  and  C_11
REMARK    6  A    between atoms: C_19  and  C_20
REMARK    7  A    between atoms: C_20  and  C_21
REMARK    8  A    between atoms: N_23  and  C_24
REMARK    9  A    between atoms: C_24  and  C_25
REMARK   10  A    between atoms: C_30  and  C_31
REMARK   11  A    between atoms: C_30  and  N_70
REMARK   12  A    between atoms: C_31  and  C_32
REMARK   13  A    between atoms: C_31  and  C_33
REMARK                            x       y       z     vdW  Elec       q    Type
REMARK                         _______ _______ _______ _____ _____    ______ ____
ROOT
ATOM      1  C   UNL     1      -1.742  -3.378  -2.323  0.00  0.00    +0.045 C 
ATOM      2  C   UNL     1      -2.449  -3.694  -1.031  0.00  0.00    -0.033 A 
ATOM      3  C   UNL     1      -1.918  -3.314   0.174  0.00  0.00    -0.022 A 
ATOM      4  C   UNL     1      -2.589  -3.623   1.349  0.00  0.00    +0.044 A 
ATOM      5  N   UNL     1      -3.737  -4.266   1.337  0.00  0.00    -0.232 NA
ATOM      6  C   UNL     1      -4.300  -4.659   0.202  0.00  0.00    +0.164 A 
ATOM      7  C   UNL     1      -3.668  -4.382  -1.027  0.00  0.00    +0.045 A 
ATOM      8  C   UNL     1      -4.527  -4.936  -2.068  0.00  0.00    +0.070 A 
ATOM      9  N   UNL     1      -5.557  -5.479  -1.484  0.00  0.00    -0.169 NA
ATOM     10  N   UNL     1      -5.456  -5.332  -0.097  0.00  0.00    -0.214 N 
ATOM     11  C   UNL     1      -4.271  -4.888  -3.552  0.00  0.00    +0.068 C 
ATOM     12  C   UNL     1      -1.992  -3.207   2.668  0.00  0.00    +0.066 C 
ENDROOT
BRANCH  10  13
ATOM     13  C   UNL     1      -6.389  -5.797   0.839  0.00  0.00    +0.068 A 
ATOM     14  C   UNL     1      -5.961  -6.272   2.071  0.00  0.00    +0.028 A 
ATOM     15  C   UNL     1      -6.883  -6.724   2.994  0.00  0.00    +0.002 A 
ATOM     16  C   UNL     1      -8.232  -6.715   2.687  0.00  0.00    +0.000 A 
ATOM     17  C   UNL     1      -8.661  -6.248   1.458  0.00  0.00    +0.002 A 
ATOM     18  C   UNL     1      -7.744  -5.789   0.534  0.00  0.00    +0.028 A 
ENDBRANCH  10  13
BRANCH   3  19
ATOM     19  C   UNL     1      -0.608  -2.571   0.224  0.00  0.00    +0.046 C 
BRANCH  19  20
ATOM     20  C   UNL     1      -0.873  -1.065   0.158  0.00  0.00    +0.100 C 
BRANCH  20  21
ATOM     21  C   UNL     1       0.437  -0.322   0.208  0.00  0.00    +0.213 C 
ATOM     22  O   UNL     1       1.480  -0.935   0.287  0.00  0.00    -0.276 OA
ATOM     23  N   UNL     1       0.449   1.026   0.163  0.00  0.00    -0.315 N 
ATOM     24  H   UNL     1      -0.385   1.516   0.096  0.00  0.00    +0.149 HD
BRANCH  23  25
ATOM     25  C   UNL     1       1.722   1.748   0.211  0.00  0.00    +0.105 C 
BRANCH  25  26
ATOM     26  C   UNL     1       1.457   3.254   0.146  0.00  0.00    -0.012 C 
ATOM     27  C   UNL     1       0.829   3.758   1.472  0.00  0.00    -0.016 C 
ATOM     28  C   UNL     1       1.265   5.245   1.479  0.00  0.00    -0.079 C 
ATOM     29  C   UNL     1       2.783   4.039   0.069  0.00  0.00    -0.074 C 
ATOM     30  N   UNL     1       2.631   5.229   0.924  0.00  0.00    +0.380 N 
ATOM     31  H   UNL     1       3.309   5.184   1.694  0.00  0.00    -0.082 HD
BRANCH  30  32
ATOM     32  C   UNL     1       2.878   6.462   0.132  0.00  0.00    -0.076 C 
BRANCH  32  33
ATOM     33  C   UNL     1       2.956   7.662   1.078  0.00  0.00    -0.034 C 
ATOM     34  C   UNL     1       4.172   7.510   1.995  0.00  0.00    +0.005 C 
ATOM     35  C   UNL     1       3.091   8.948   0.260  0.00  0.00    +0.005 C 
ENDBRANCH  32  33
ENDBRANCH  30  32
ENDBRANCH  25  26
ENDBRANCH  23  25
ENDBRANCH  20  21
ENDBRANCH  19  20
ENDBRANCH   3  19
TORSDOF 8
