REMARK  Name = ZINC02421745
REMARK  2 active torsions:
REMARK  status: ('A' for Active; 'I' for Inactive)
REMARK    1  A    between atoms: C_1  and  C_2
REMARK    2  A    between atoms: N_20  and  C_23
REMARK                            x       y       z     vdW  Elec       q    Type
REMARK                         _______ _______ _______ _____ _____    ______ ____
ROOT
ATOM      1  C   UNL     1       3.448  11.365  -0.667  0.00  0.00    +0.044 C 
ATOM      2  C   UNL     1       3.011  10.166  -1.469  0.00  0.00    -0.050 A 
ATOM      3  C   UNL     1       2.683  10.308  -2.805  0.00  0.00    +0.005 A 
ATOM      4  C   UNL     1       2.284   9.214  -3.544  0.00  0.00    +0.024 A 
ATOM      5  C   UNL     1       2.207   7.957  -2.949  0.00  0.00    +0.036 A 
ATOM      6  C   UNL     1       2.539   7.827  -1.604  0.00  0.00    -0.027 A 
ATOM      7  C   UNL     1       2.938   8.921  -0.870  0.00  0.00    +0.008 A 
ATOM      8  C   UNL     1       2.355   6.372  -1.274  0.00  0.00    +0.053 C 
ATOM      9  C   UNL     1       3.660   5.741  -0.775  0.00  0.00    +0.089 C 
ATOM     10  C   UNL     1       3.544   5.732   0.774  0.00  0.00    +0.074 C 
ATOM     11  C   UNL     1       2.169   6.356   1.079  0.00  0.00    -0.054 C 
ATOM     12  C   UNL     1       0.930   4.763  -0.136  0.00  0.00    -0.076 C 
ATOM     13  C   UNL     1       0.621   4.473   1.347  0.00  0.00    -0.020 C 
ATOM     14  C   UNL     1       1.447   5.505   2.139  0.00  0.00    -0.016 C 
ATOM     15  C   UNL     1       3.507   4.259   1.113  0.00  0.00    +0.228 C 
ATOM     16  O   UNL     1       3.413   3.799   2.230  0.00  0.00    -0.275 OA
ATOM     17  N   UNL     1       3.597   3.542  -0.013  0.00  0.00    -0.209 N 
ATOM     18  C   UNL     1       3.685   4.271  -1.131  0.00  0.00    +0.229 C 
ATOM     19  O   UNL     1       3.771   3.824  -2.255  0.00  0.00    -0.275 OA
ATOM     20  C   UNL     1       1.896   5.736  -2.558  0.00  0.00    +0.212 C 
ATOM     21  O   UNL     1       1.631   4.565  -2.732  0.00  0.00    -0.277 OA
ATOM     22  N   UNL     1       1.836   6.718  -3.477  0.00  0.00    -0.286 N 
ATOM     23  H   UNL     1       1.566   6.582  -4.398  0.00  0.00    +0.155 HD
ATOM     24  N   UNL     1       1.421   6.154  -0.145  0.00  0.00    +0.395 N 
ATOM     25  H   UNL     1       0.632   6.809  -0.206  0.00  0.00    -0.079 HD
ENDROOT
BRANCH  17  26
ATOM     26  C   UNL     1       3.593   2.142  -0.021  0.00  0.00    +0.052 A 
ATOM     27  C   UNL     1       2.409   1.451  -0.149  0.00  0.00    +0.024 A 
ATOM     28  C   UNL     1       2.394   0.059  -0.159  0.00  0.00    +0.002 A 
ATOM     29  C   UNL     1       3.546  -0.656  -0.042  0.00  0.00    +0.008 A 
ATOM     30  C   UNL     1       4.776   0.011   0.091  0.00  0.00    -0.016 A 
ATOM     31  C   UNL     1       4.803   1.427   0.102  0.00  0.00    +0.004 A 
ATOM     32  C   UNL     1       6.032   2.092   0.235  0.00  0.00    +0.010 A 
ATOM     33  C   UNL     1       7.180   1.370   0.352  0.00  0.00    +0.001 A 
ATOM     34  C   UNL     1       7.154  -0.024   0.341  0.00  0.00    +0.001 A 
ATOM     35  C   UNL     1       5.981  -0.702   0.214  0.00  0.00    +0.008 A 
ENDBRANCH  17  26
TORSDOF 1
