REMARK  Name = ZINC53285485
REMARK  9 active torsions:
REMARK  status: ('A' for Active; 'I' for Inactive)
REMARK    1  A    between atoms: C_1  and  C_2
REMARK    2  A    between atoms: C_2  and  C_3
REMARK    3  A    between atoms: N_11  and  C_15
REMARK    4  A    between atoms: C_15  and  C_16
REMARK    5  A    between atoms: N_18  and  C_19
REMARK    6  A    between atoms: C_19  and  C_20
REMARK    7  A    between atoms: C_20  and  C_21
REMARK    8  A    between atoms: C_21  and  N_22
REMARK    9  A    between atoms: C_27  and  C_29
REMARK                            x       y       z     vdW  Elec       q    Type
REMARK                         _______ _______ _______ _____ _____    ______ ____
ROOT
ATOM      1  C   UNL     1      -1.689  -4.357  -5.270  0.00  0.00    +0.213 C 
ENDROOT
BRANCH   1  10
ATOM      2  C   UNL     1       0.718  -0.497  -1.257  0.00  0.00    -0.011 C 
ATOM      3  C   UNL     1      -0.089  -0.096  -2.493  0.00  0.00    +0.006 C 
ATOM      4  C   UNL     1       0.635  -0.580  -3.752  0.00  0.00    +0.035 C 
ATOM      5  C   UNL     1       0.795  -2.095  -3.700  0.00  0.00    +0.113 C 
ATOM      6  C   UNL     1       1.577  -2.512  -2.459  0.00  0.00    +0.035 C 
ATOM      7  C   UNL     1       0.849  -2.021  -1.205  0.00  0.00    +0.006 C 
ATOM      8  C   UNL     1      -0.556  -2.771  -3.725  0.00  0.00    +0.247 C 
ATOM      9  O   UNL     1      -1.447  -2.660  -2.910  0.00  0.00    -0.273 OA
ATOM     10  N   UNL     1      -0.562  -3.523  -4.845  0.00  0.00    -0.215 N 
ATOM     11  C   UNL     1       0.589  -3.413  -5.519  0.00  0.00    +0.310 C 
ATOM     12  O   UNL     1       0.821  -3.996  -6.559  0.00  0.00    -0.252 OA
ATOM     13  N   UNL     1       1.461  -2.583  -4.914  0.00  0.00    -0.285 N 
ATOM     14  H   UNL     1       2.352  -2.354  -5.221  0.00  0.00    +0.151 HD
BRANCH   2  16
ATOM     15  C   UNL     1      -0.019   1.526   0.010  0.00  0.00    +0.004 C 
ATOM     16  C   UNL     1       0.002  -0.004   0.002  0.00  0.00    -0.000 C 
ENDBRANCH   2  16
ENDBRANCH   1  10
BRANCH   1  17
ATOM     17  C   UNL     1      -2.610  -3.550  -6.148  0.00  0.00    +0.231 C 
ATOM     18  O   UNL     1      -2.350  -2.391  -6.394  0.00  0.00    -0.274 OA
ATOM     19  N   UNL     1      -3.721  -4.115  -6.659  0.00  0.00    -0.314 N 
ATOM     20  H   UNL     1      -3.929  -5.042  -6.462  0.00  0.00    +0.149 HD
BRANCH  19  21
ATOM     21  C   UNL     1      -4.616  -3.329  -7.512  0.00  0.00    +0.102 C 
BRANCH  21  22
ATOM     22  C   UNL     1      -5.793  -4.201  -7.956  0.00  0.00    +0.000 C 
BRANCH  22  23
ATOM     23  C   UNL     1      -6.727  -3.381  -8.848  0.00  0.00    -0.077 C 
BRANCH  23  24
ATOM     24  N   UNL     1      -7.857  -4.217  -9.274  0.00  0.00    +0.381 N 
ATOM     25  C   UNL     1      -7.362  -5.311 -10.118  0.00  0.00    -0.078 C 
ATOM     26  C   UNL     1      -8.523  -6.232 -10.498  0.00  0.00    -0.019 C 
ATOM     27  C   UNL     1      -9.575  -5.428 -11.267  0.00  0.00    -0.003 C 
ATOM     28  C   UNL     1     -10.030  -4.246 -10.405  0.00  0.00    -0.016 C 
ATOM     29  C   UNL     1      -8.813  -3.399 -10.029  0.00  0.00    -0.072 C 
ATOM     30  C   UNL     1      -9.262  -2.216  -9.168  0.00  0.00    -0.013 C 
ATOM     31  H   UNL     1      -8.314  -4.603  -8.461  0.00  0.00    -0.081 HD
ENDBRANCH  23  24
ENDBRANCH  22  23
ENDBRANCH  21  22
ENDBRANCH  19  21
ENDBRANCH   1  17
TORSDOF 7
