REMARK  Name = ZINC41585155
REMARK  6 active torsions:
REMARK  status: ('A' for Active; 'I' for Inactive)
REMARK    1  A    between atoms: C_1  and  C_2
REMARK    2  A    between atoms: C_7  and  C_8
REMARK    3  A    between atoms: C_15  and  O_32
REMARK    4  A    between atoms: C_16  and  C_19
REMARK    5  A    between atoms: C_19  and  N_20
REMARK    6  A    between atoms: N_23  and  C_26
REMARK                            x       y       z     vdW  Elec       q    Type
REMARK                         _______ _______ _______ _____ _____    ______ ____
ROOT
ATOM      1  C   UNL     1       1.001  -0.719   2.094  0.00  0.00    +0.058 C 
ATOM      2  C   UNL     1       0.762  -1.258   3.316  0.00  0.00    +0.176 C 
ATOM      3  C   UNL     1       0.691  -0.527   4.591  0.00  0.00    +0.231 C 
ATOM      4  O   UNL     1       0.832   0.670   4.773  0.00  0.00    -0.283 OA
ATOM      5  C   UNL     1       0.412  -1.566   5.598  0.00  0.00    +0.068 A 
ATOM      6  C   UNL     1       0.231  -1.531   6.981  0.00  0.00    +0.019 A 
ATOM      7  C   UNL     1      -0.021  -2.687   7.665  0.00  0.00    +0.046 A 
ATOM      8  C   UNL     1      -0.097  -3.899   6.984  0.00  0.00    +0.125 A 
ATOM      9  C   UNL     1       0.081  -3.949   5.611  0.00  0.00    +0.051 A 
ATOM     10  C   UNL     1       0.337  -2.783   4.901  0.00  0.00    +0.147 A 
ATOM     11  O   UNL     1       0.538  -2.566   3.583  0.00  0.00    -0.451 OA
ENDROOT
BRANCH   1  18
ATOM     12  C   UNL     1       2.000   0.311  -0.419  0.00  0.00    +0.044 C 
ATOM     13  C   UNL     1       1.435  -1.084  -0.327  0.00  0.00    -0.043 A 
ATOM     14  C   UNL     1       1.395  -1.888  -1.446  0.00  0.00    +0.004 A 
ATOM     15  C   UNL     1       0.876  -3.168  -1.365  0.00  0.00    +0.000 A 
ATOM     16  C   UNL     1       0.394  -3.653  -0.161  0.00  0.00    +0.001 A 
ATOM     17  C   UNL     1       0.427  -2.861   0.968  0.00  0.00    +0.008 A 
ATOM     18  C   UNL     1       0.956  -1.567   0.895  0.00  0.00    -0.019 A 
ENDBRANCH   1  18
BRANCH   8  19
ATOM     19  O   UNL     1      -0.348  -5.042   7.672  0.00  0.00    -0.506 OA
ATOM     20  H   UNL     1      -1.288  -5.253   7.755  0.00  0.00    +0.292 HD
ENDBRANCH   8  19
BRANCH   9  21
ATOM     21  C   UNL     1      -0.003  -5.269   4.888  0.00  0.00    +0.127 C 
BRANCH  21  22
ATOM     22  N   UNL     1      -1.391  -5.510   4.470  0.00  0.00    -0.295 NA
ATOM     23  C   UNL     1      -1.817  -4.526   3.466  0.00  0.00    +0.103 C 
ATOM     24  C   UNL     1      -3.315  -4.697   3.192  0.00  0.00    +0.120 C 
ATOM     25  N   UNL     1      -3.566  -6.101   2.832  0.00  0.00    -0.327 N 
ATOM     26  C   UNL     1      -3.047  -7.151   3.721  0.00  0.00    +0.120 C 
ATOM     27  C   UNL     1      -1.560  -6.883   3.975  0.00  0.00    +0.103 C 
BRANCH  25  28
ATOM     28  C   UNL     1      -4.279  -6.428   1.676  0.00  0.00    +0.030 A 
ATOM     29  C   UNL     1      -4.398  -7.755   1.284  0.00  0.00    +0.023 A 
ATOM     30  C   UNL     1      -5.104  -8.075   0.141  0.00  0.00    +0.002 A 
ATOM     31  C   UNL     1      -5.691  -7.076  -0.613  0.00  0.00    +0.000 A 
ATOM     32  C   UNL     1      -5.575  -5.754  -0.226  0.00  0.00    +0.002 A 
ATOM     33  C   UNL     1      -4.875  -5.428   0.919  0.00  0.00    +0.023 A 
ENDBRANCH  25  28
ENDBRANCH  21  22
ENDBRANCH   9  21
TORSDOF 5
