REMARK  Name = ZINC04350845
REMARK  4 active torsions:
REMARK  status: ('A' for Active; 'I' for Inactive)
REMARK    1  A    between atoms: C_1  and  C_2
REMARK    2  A    between atoms: C_14  and  C_18
REMARK    3  A    between atoms: N_19  and  N_20
REMARK    4  A    between atoms: C_21  and  C_23
REMARK                            x       y       z     vdW  Elec       q    Type
REMARK                         _______ _______ _______ _____ _____    ______ ____
ROOT
ATOM      1  C   UNL     1     -14.993   5.471  -0.584  0.00  0.00    +0.044 C 
ATOM      2  C   UNL     1     -13.802   5.037   0.232  0.00  0.00    -0.050 A 
ATOM      3  C   UNL     1     -13.973   4.783   1.584  0.00  0.00    +0.005 A 
ATOM      4  C   UNL     1     -12.928   4.382   2.397  0.00  0.00    +0.026 A 
ATOM      5  C   UNL     1     -11.678   4.240   1.796  0.00  0.00    +0.047 A 
ATOM      6  C   UNL     1     -11.504   4.502   0.409  0.00  0.00    +0.004 A 
ATOM      7  C   UNL     1     -12.586   4.908  -0.389  0.00  0.00    +0.013 A 
ATOM      8  C   UNL     1     -10.158   4.276   0.115  0.00  0.00    -0.011 A 
ATOM      9  C   UNL     1      -9.543   3.891   1.283  0.00  0.00    +0.087 A 
ATOM     10  N   UNL     1     -10.466   3.868   2.303  0.00  0.00    -0.352 N 
ATOM     11  H   UNL     1     -10.286   3.629   3.226  0.00  0.00    +0.166 HD
ATOM     12  C   UNL     1      -8.109   3.576   1.327  0.00  0.00    +0.188 C 
ATOM     13  O   UNL     1      -7.592   3.042   2.286  0.00  0.00    -0.290 OA
ATOM     14  C   UNL     1      -7.317   3.963   0.089  0.00  0.00    +0.105 C 
ATOM     15  C   UNL     1      -8.138   3.584  -1.148  0.00  0.00    +0.022 C 
ATOM     16  C   UNL     1      -9.432   4.402  -1.200  0.00  0.00    +0.039 C 
ENDROOT
BRANCH  14  17
ATOM     17  C   UNL     1      -6.004   3.223   0.073  0.00  0.00    +0.114 C 
ATOM     18  N   UNL     1      -4.902   3.873   0.066  0.00  0.00    -0.192 NA
BRANCH  18  19
ATOM     19  N   UNL     1      -3.682   3.185   0.052  0.00  0.00    -0.203 N 
ATOM     20  C   UNL     1      -2.521   3.870   0.044  0.00  0.00    +0.263 C 
ATOM     21  O   UNL     1      -2.533   5.086   0.050  0.00  0.00    -0.268 OA
ATOM     22  H   UNL     1      -3.673   2.215   0.047  0.00  0.00    +0.178 HD
BRANCH  20  23
ATOM     23  C   UNL     1      -1.234   3.143   0.029  0.00  0.00    +0.038 A 
ATOM     24  C   UNL     1      -1.217   1.748   0.017  0.00  0.00    +0.013 A 
ATOM     25  C   UNL     1      -0.013   1.076   0.008  0.00  0.00    +0.001 A 
ATOM     26  C   UNL     1       1.177   1.782   0.000  0.00  0.00    +0.000 A 
ATOM     27  C   UNL     1       1.167   3.166   0.007  0.00  0.00    +0.001 A 
ATOM     28  C   UNL     1      -0.030   3.850   0.022  0.00  0.00    +0.013 A 
ENDBRANCH  20  23
ENDBRANCH  18  19
ENDBRANCH  14  17
TORSDOF 3
