REMARK  Name = ZINC41547367
REMARK  5 active torsions:
REMARK  status: ('A' for Active; 'I' for Inactive)
REMARK    1  A    between atoms: C_1  and  C_2
REMARK    2  A    between atoms: C_11  and  C_13
REMARK    3  A    between atoms: C_11  and  C_14
REMARK    4  A    between atoms: N_20  and  C_22
REMARK    5  A    between atoms: C_22  and  C_23
REMARK                            x       y       z     vdW  Elec       q    Type
REMARK                         _______ _______ _______ _____ _____    ______ ____
ROOT
ATOM      1  C   UNL     1       2.194  -4.685   0.833  0.00  0.00    +0.271 C 
ATOM      2  O   UNL     1       2.938  -4.569   1.784  0.00  0.00    -0.270 OA
ATOM      3  N   UNL     1       2.699  -4.724  -0.416  0.00  0.00    -0.265 N 
ATOM      4  C   UNL     1       4.083  -4.630  -0.616  0.00  0.00    +0.147 A 
ATOM      5  C   UNL     1       5.055  -4.498   0.390  0.00  0.00    +0.065 A 
ATOM      6  C   UNL     1       6.266  -4.440  -0.208  0.00  0.00    +0.110 A 
ATOM      7  N   UNL     1       6.074  -4.531  -1.541  0.00  0.00    -0.265 N 
ATOM      8  N   UNL     1       4.699  -4.655  -1.774  0.00  0.00    -0.156 NA
ATOM      9  H   UNL     1       2.105  -4.818  -1.177  0.00  0.00    +0.156 HD
ENDROOT
BRANCH   1  20
ATOM     10  C   UNL     1      -0.018   1.503   0.010  0.00  0.00    +0.044 C 
ATOM     11  C   UNL     1       0.002  -0.004   0.002  0.00  0.00    -0.048 A 
ATOM     12  C   UNL     1       0.006  -0.687  -1.200  0.00  0.00    +0.007 A 
ATOM     13  C   UNL     1       0.019  -2.070  -1.216  0.00  0.00    +0.048 A 
ATOM     14  C   UNL     1       0.031  -2.773  -0.024  0.00  0.00    +0.144 A 
ATOM     15  C   UNL     1       0.038  -2.085   1.188  0.00  0.00    +0.076 A 
ATOM     16  C   UNL     1       0.023  -0.700   1.197  0.00  0.00    +0.030 A 
ATOM     17  N   UNL     1       0.086  -2.805   2.389  0.00  0.00    -0.279 N 
ATOM     18  C   UNL     1       0.342  -4.129   2.355  0.00  0.00    +0.270 C 
ATOM     19  O   UNL     1       0.279  -4.788   3.371  0.00  0.00    -0.271 OA
ATOM     20  C   UNL     1       0.706  -4.787   1.048  0.00  0.00    +0.258 C 
ATOM     21  O   UNL     1       0.025  -4.133  -0.026  0.00  0.00    -0.465 OA
ATOM     22  C   UNL     1       0.298  -6.261   1.088  0.00  0.00    +0.076 C 
ATOM     23  H   UNL     1      -0.063  -2.356   3.236  0.00  0.00    +0.155 HD
ENDBRANCH   1  20
BRANCH   7  24
ATOM     24  C   UNL     1       7.122  -4.510  -2.565  0.00  0.00    +0.179 C 
BRANCH  24  25
ATOM     25  C   UNL     1       7.004  -5.738  -3.430  0.00  0.00    -0.018 A 
ATOM     26  C   UNL     1       7.745  -6.845  -3.152  0.00  0.00    +0.006 A 
ATOM     27  C   UNL     1       7.649  -7.990  -3.941  0.00  0.00    +0.001 A 
ATOM     28  C   UNL     1       6.811  -8.034  -5.013  0.00  0.00    +0.008 A 
ATOM     29  C   UNL     1       6.030  -6.910  -5.332  0.00  0.00    -0.018 A 
ATOM     30  C   UNL     1       6.123  -5.748  -4.526  0.00  0.00    -0.013 A 
ATOM     31  C   UNL     1       5.338  -4.626  -4.841  0.00  0.00    +0.009 A 
ATOM     32  C   UNL     1       4.496  -4.672  -5.910  0.00  0.00    +0.001 A 
ATOM     33  C   UNL     1       4.400  -5.817  -6.698  0.00  0.00    +0.001 A 
ATOM     34  C   UNL     1       5.155  -6.917  -6.431  0.00  0.00    +0.008 A 
ENDBRANCH  24  25
ENDBRANCH   7  24
TORSDOF 3
