REMARK  Name = ZINC12641625
REMARK  11 active torsions:
REMARK  status: ('A' for Active; 'I' for Inactive)
REMARK    1  A    between atoms: C_1  and  C_2
REMARK    2  A    between atoms: C_5  and  C_7
REMARK    3  A    between atoms: C_7  and  C_9
REMARK    4  A    between atoms: C_7  and  N_16
REMARK    5  A    between atoms: N_11  and  C_12
REMARK    6  A    between atoms: C_12  and  C_13
REMARK    7  A    between atoms: C_13  and  O_14
REMARK    8  A    between atoms: O_14  and  C_15
REMARK    9  A    between atoms: N_16  and  C_17
REMARK   10  A    between atoms: C_26  and  C_28
REMARK   11  A    between atoms: N_30  and  C_31
REMARK                            x       y       z     vdW  Elec       q    Type
REMARK                         _______ _______ _______ _____ _____    ______ ____
ROOT
ATOM      1  N   UNL     1      -3.866  -0.211   4.171  0.00  0.00    -0.244 N 
ATOM      2  C   UNL     1      -5.004   0.263   3.627  0.00  0.00    +0.307 C 
ATOM      3  O   UNL     1      -5.428   1.351   3.959  0.00  0.00    -0.265 OA
ENDROOT
BRANCH   1   4
ATOM      4  C   UNL     1      -3.437  -1.509   3.874  0.00  0.00    +0.042 A 
ATOM      5  C   UNL     1      -3.937  -2.587   4.592  0.00  0.00    +0.027 A 
ATOM      6  C   UNL     1      -3.513  -3.869   4.300  0.00  0.00    +0.051 A 
ATOM      7  C   UNL     1      -2.589  -4.083   3.289  0.00  0.00    +0.166 A 
ATOM      8  C   UNL     1      -2.086  -3.004   2.567  0.00  0.00    +0.168 A 
ATOM      9  C   UNL     1      -2.515  -1.720   2.857  0.00  0.00    +0.073 A 
ATOM     10  O   UNL     1      -1.202  -3.474   1.639  0.00  0.00    -0.453 OA
ATOM     11  C   UNL     1      -1.476  -4.883   1.526  0.00  0.00    +0.466 C 
ATOM     12  O   UNL     1      -2.020  -5.230   2.813  0.00  0.00    -0.453 OA
ENDBRANCH   1   4
BRANCH   2  13
ATOM     13  C   UNL     1      -5.743  -0.549   2.617  0.00  0.00    +0.304 C 
ATOM     14  O   UNL     1      -5.364  -1.669   2.343  0.00  0.00    -0.265 OA
ATOM     15  N   UNL     1      -6.832  -0.038   2.009  0.00  0.00    -0.278 N 
ATOM     16  H   UNL     1      -7.098   0.879   2.179  0.00  0.00    +0.155 HD
BRANCH  15  17
ATOM     17  C   UNL     1      -7.579  -0.831   1.132  0.00  0.00    +0.034 A 
ATOM     18  C   UNL     1      -6.942  -1.768   0.328  0.00  0.00    +0.026 A 
ATOM     19  C   UNL     1      -7.682  -2.553  -0.534  0.00  0.00    +0.040 A 
ATOM     20  C   UNL     1      -9.057  -2.400  -0.605  0.00  0.00    +0.124 A 
ATOM     21  C   UNL     1      -9.693  -1.463   0.192  0.00  0.00    +0.040 A 
ATOM     22  C   UNL     1      -8.958  -0.679   1.059  0.00  0.00    +0.026 A 
ATOM     23  F   UNL     1      -9.778  -3.166  -1.452  0.00  0.00    -0.205 F 
ENDBRANCH  15  17
ENDBRANCH   2  13
BRANCH   1  24
ATOM     24  C   UNL     1      -3.078   0.632   5.073  0.00  0.00    +0.233 C 
BRANCH  24  29
ATOM     25  C   UNL     1       1.509  -0.812   3.550  0.00  0.00    +0.086 C 
ATOM     26  C   UNL     1       0.342   0.065   3.925  0.00  0.00    +0.102 A 
ATOM     27  C   UNL     1       0.329   1.410   3.903  0.00  0.00    +0.045 A 
ATOM     28  C   UNL     1      -0.958   1.814   4.325  0.00  0.00    +0.047 A 
ATOM     29  C   UNL     1      -1.652   0.693   4.588  0.00  0.00    +0.135 A 
ATOM     30  O   UNL     1      -0.860  -0.364   4.344  0.00  0.00    -0.462 OA
ENDBRANCH  24  29
BRANCH  24  31
ATOM     31  C   UNL     1      -3.111   0.049   6.463  0.00  0.00    +0.242 C 
ATOM     32  O   UNL     1      -3.731  -0.970   6.678  0.00  0.00    -0.273 OA
ATOM     33  N   UNL     1      -2.451   0.661   7.466  0.00  0.00    -0.311 N 
ATOM     34  H   UNL     1      -1.954   1.476   7.294  0.00  0.00    +0.149 HD
BRANCH  33  35
ATOM     35  C   UNL     1      -2.483   0.094   8.816  0.00  0.00    +0.132 C 
BRANCH  35  36
ATOM     36  C   UNL     1      -1.660   0.975   9.759  0.00  0.00    +0.178 C 
BRANCH  36  37
ATOM     37  O   UNL     1      -2.278   2.258   9.873  0.00  0.00    -0.381 OA
ATOM     38  C   UNL     1      -1.585   3.163  10.735  0.00  0.00    +0.194 C 
ENDBRANCH  36  37
ENDBRANCH  35  36
ENDBRANCH  33  35
ENDBRANCH  24  31
ENDBRANCH   1  24
TORSDOF 9
