REMARK  Name = ZINC39706768
REMARK  4 active torsions:
REMARK  status: ('A' for Active; 'I' for Inactive)
REMARK    1  A    between atoms: C_3  and  N_24
REMARK    2  A    between atoms: C_6  and  C_7
REMARK    3  A    between atoms: C_18  and  C_20
REMARK    4  A    between atoms: C_25  and  C_27
REMARK                            x       y       z     vdW  Elec       q    Type
REMARK                         _______ _______ _______ _____ _____    ______ ____
ROOT
ATOM      1  C   UNL     1      -1.089  -0.481   0.087  0.00  0.00    +0.218 C 
ATOM      2  N   UNL     1      -0.945  -1.665   0.938  0.00  0.00    -0.360 N 
ATOM      3  C   UNL     1      -1.907  -1.676   1.815  0.00  0.00    +0.060 C 
ATOM      4  C   UNL     1      -2.231  -2.629   2.896  0.00  0.00    +0.029 C 
ATOM      5  C   UNL     1      -3.303  -2.403   3.674  0.00  0.00    +0.025 C 
ATOM      6  C   UNL     1      -4.146  -1.223   3.454  0.00  0.00    +0.036 C 
ATOM      7  C   UNL     1      -3.852  -0.305   2.429  0.00  0.00    +0.050 C 
ATOM      8  C   UNL     1      -2.776  -0.494   1.618  0.00  0.00    +0.075 C 
ATOM      9  N   UNL     1      -2.279   0.238   0.561  0.00  0.00    -0.220 NA
ATOM     10  N   UNL     1      -5.207  -1.016   4.238  0.00  0.00    -0.278 N 
ATOM     11  C   UNL     1      -5.422  -1.805   5.288  0.00  0.00    +0.321 C 
ATOM     12  O   UNL     1      -4.557  -1.946   6.130  0.00  0.00    -0.266 OA
ATOM     13  H   UNL     1      -5.821  -0.292   4.042  0.00  0.00    +0.155 HD
ATOM     14  H   UNL     1      -0.245  -2.332   0.861  0.00  0.00    +0.162 HD
ENDROOT
BRANCH   1  20
ATOM     15  C   UNL     1       0.011   1.766   0.063  0.00  0.00    +0.009 A 
ATOM     16  C   UNL     1       1.126   2.574   0.178  0.00  0.00    +0.024 A 
ATOM     17  C   UNL     1       2.366   2.009   0.445  0.00  0.00    +0.034 A 
ATOM     18  C   UNL     1       2.481   0.633   0.595  0.00  0.00    +0.024 A 
ATOM     19  C   UNL     1       1.363  -0.169   0.478  0.00  0.00    +0.009 A 
ATOM     20  C   UNL     1       0.129   0.397   0.213  0.00  0.00    -0.006 A 
BRANCH  17  21
ATOM     21  N   UNL     1       3.497   2.824   0.561  0.00  0.00    -0.278 N 
ATOM     22  C   UNL     1       3.391   4.048   1.115  0.00  0.00    +0.321 C 
ATOM     23  O   UNL     1       2.303   4.476   1.438  0.00  0.00    -0.266 OA
ATOM     24  H   UNL     1       4.357   2.508   0.244  0.00  0.00    +0.155 HD
BRANCH  22  25
ATOM     25  C   UNL     1       4.625   4.886   1.331  0.00  0.00    +0.470 C 
ATOM     26  F   UNL     1       4.264   6.106   1.914  0.00  0.00    -0.162 F 
ATOM     27  F   UNL     1       5.507   4.208   2.179  0.00  0.00    -0.162 F 
ATOM     28  F   UNL     1       5.249   5.124   0.102  0.00  0.00    -0.162 F 
ENDBRANCH  22  25
ENDBRANCH  17  21
ENDBRANCH   1  20
BRANCH  11  29
ATOM     29  C   UNL     1      -6.739  -2.524   5.433  0.00  0.00    +0.470 C 
ATOM     30  F   UNL     1      -6.727  -3.286   6.606  0.00  0.00    -0.162 F 
ATOM     31  F   UNL     1      -7.777  -1.589   5.495  0.00  0.00    -0.162 F 
ATOM     32  F   UNL     1      -6.934  -3.366   4.332  0.00  0.00    -0.162 F 
ENDBRANCH  11  29
TORSDOF 4
