REMARK  Name = ZINC03841014
REMARK  11 active torsions:
REMARK  status: ('A' for Active; 'I' for Inactive)
REMARK    1  A    between atoms: C_1  and  C_2
REMARK    2  A    between atoms: C_2  and  C_3
REMARK    3  A    between atoms: C_2  and  N_4
REMARK    4  A    between atoms: C_5  and  C_7
REMARK    5  A    between atoms: C_7  and  C_8
REMARK    6  A    between atoms: N_15  and  C_16
REMARK    7  A    between atoms: C_25  and  C_35
REMARK    8  A    between atoms: C_28  and  O_34
REMARK    9  A    between atoms: C_30  and  C_31
REMARK   10  A    between atoms: C_30  and  C_32
REMARK   11  A    between atoms: C_32  and  O_33
REMARK                            x       y       z     vdW  Elec       q    Type
REMARK                         _______ _______ _______ _____ _____    ______ ____
ROOT
ATOM      1  C   UNL     1      -1.714   4.417   0.581  0.00  0.00    +0.054 C 
ATOM      2  C   UNL     1      -0.526   3.507   0.854  0.00  0.00    +0.058 A 
ATOM      3  C   UNL     1       0.715   4.035   1.010  0.00  0.00    +0.015 A 
ATOM      4  S   UNL     1       1.716   2.600   1.293  0.00  0.00    -0.057 S 
ATOM      5  C   UNL     1       0.440   1.425   1.187  0.00  0.00    +0.163 A 
ATOM      6  N   UNL     1      -0.612   2.181   0.947  0.00  0.00    -0.229 NA
ATOM      7  N   UNL     1       0.511   0.046   1.315  0.00  0.00    -0.294 N 
ATOM      8  C   UNL     1       1.107   5.469   0.956  0.00  0.00    +0.049 C 
ATOM      9  C   UNL     1      -0.048   6.283   0.338  0.00  0.00    +0.011 C 
ATOM     10  C   UNL     1      -1.363   5.853   0.992  0.00  0.00    -0.019 C 
ATOM     11  C   UNL     1      -2.506   6.758   0.520  0.00  0.00    +0.010 C 
ATOM     12  C   UNL     1      -2.213   8.211   0.829  0.00  0.00    +0.032 C 
ATOM     13  C   UNL     1      -0.928   8.624   0.105  0.00  0.00    +0.123 C 
ATOM     14  C   UNL     1       0.224   7.764   0.621  0.00  0.00    +0.021 C 
ATOM     15  C   UNL     1       1.520   8.183  -0.077  0.00  0.00    +0.016 C 
ATOM     16  C   UNL     1      -1.230   5.933   2.514  0.00  0.00    +0.012 C 
ATOM     17  H   UNL     1      -0.302  -0.484   1.319  0.00  0.00    +0.154 HD
ENDROOT
BRANCH   7  18
ATOM     18  C   UNL     1       1.754  -0.581   1.439  0.00  0.00    +0.033 A 
ATOM     19  C   UNL     1       2.861  -0.071   0.772  0.00  0.00    +0.023 A 
ATOM     20  C   UNL     1       4.088  -0.690   0.900  0.00  0.00    +0.002 A 
ATOM     21  C   UNL     1       4.215  -1.823   1.683  0.00  0.00    +0.000 A 
ATOM     22  C   UNL     1       3.114  -2.336   2.345  0.00  0.00    +0.002 A 
ATOM     23  C   UNL     1       1.885  -1.719   2.225  0.00  0.00    +0.023 A 
ENDBRANCH   7  18
BRANCH  13  24
ATOM     24  O   UNL     1      -0.652  10.002   0.366  0.00  0.00    -0.391 OA
ATOM     25  H   UNL     1      -1.344  10.605   0.063  0.00  0.00    +0.210 HD
ENDBRANCH  13  24
BRANCH   1  26
ATOM     26  C   UNL     1      -2.921   3.936   1.388  0.00  0.00    +0.106 C 
BRANCH  26  28
ATOM     27  N   UNL     1      -4.475   2.012   1.381  0.00  0.00    -0.313 N 
ATOM     28  C   UNL     1      -3.413   2.628   0.825  0.00  0.00    +0.214 C 
ATOM     29  O   UNL     1      -2.853   2.129  -0.128  0.00  0.00    -0.276 OA
ATOM     30  H   UNL     1      -4.923   2.411   2.143  0.00  0.00    +0.149 HD
BRANCH  27  32
ATOM     31  C   UNL     1      -5.692  -0.039   1.923  0.00  0.00    +0.027 C 
ATOM     32  C   UNL     1      -4.954   0.740   0.833  0.00  0.00    +0.067 C 
ATOM     33  C   UNL     1      -5.907   1.013  -0.332  0.00  0.00    +0.027 C 
ENDBRANCH  27  32
ENDBRANCH  26  28
ENDBRANCH   1  26
BRANCH  14  34
ATOM     34  C   UNL     1       0.371   7.973   2.129  0.00  0.00    +0.165 C 
BRANCH  34  35
ATOM     35  O   UNL     1       0.783   9.317   2.386  0.00  0.00    -0.394 OA
ATOM     36  H   UNL     1       0.896   9.521   3.324  0.00  0.00    +0.209 HD
ENDBRANCH  34  35
ENDBRANCH  14  34
TORSDOF 7
