REMARK  Name = ZINC63572926
REMARK  5 active torsions:
REMARK  status: ('A' for Active; 'I' for Inactive)
REMARK    1  A    between atoms: C_1  and  C_2
REMARK    2  A    between atoms: C_5  and  C_8
REMARK    3  A    between atoms: C_8  and  N_9
REMARK    4  A    between atoms: C_25  and  C_27
REMARK    5  A    between atoms: C_30  and  C_33
REMARK                            x       y       z     vdW  Elec       q    Type
REMARK                         _______ _______ _______ _____ _____    ______ ____
ROOT
ATOM      1  N   UNL     1       1.834  -4.573   0.138  0.00  0.00    -0.295 N 
ATOM      2  C   UNL     1       1.939  -5.913   0.052  0.00  0.00    +0.303 C 
ATOM      3  O   UNL     1       0.938  -6.604   0.075  0.00  0.00    -0.253 OA
ATOM      4  N   UNL     1       3.152  -6.489  -0.061  0.00  0.00    -0.276 N 
ATOM      5  C   UNL     1       4.359  -5.662   0.035  0.00  0.00    +0.114 C 
ATOM      6  C   UNL     1       5.249  -6.183   1.178  0.00  0.00    +0.052 C 
ATOM      7  C   UNL     1       5.305  -7.684   1.033  0.00  0.00    -0.035 C 
ATOM      8  C   UNL     1       6.331  -8.524   0.981  0.00  0.00    +0.001 A 
ATOM      9  C   UNL     1       7.778  -8.314   1.155  0.00  0.00    +0.030 A 
ATOM     10  C   UNL     1       8.564  -9.414   1.014  0.00  0.00    +0.042 A 
ATOM     11  C   UNL     1       8.062 -10.687   0.720  0.00  0.00    +0.022 A 
ATOM     12  C   UNL     1       6.746 -10.971   0.551  0.00  0.00    +0.027 A 
ATOM     13  C   UNL     1       5.819  -9.896   0.684  0.00  0.00    +0.043 A 
ATOM     14  N   UNL     1       4.522  -9.889   0.599  0.00  0.00    -0.375 N 
ATOM     15  C   UNL     1       4.048  -8.535   0.889  0.00  0.00    +0.131 C 
ATOM     16  C   UNL     1       3.252  -7.942  -0.271  0.00  0.00    +0.134 C 
ATOM     17 CL   UNL     1      10.280  -9.231   1.208  0.00  0.00    -0.084 Cl
ATOM     18  H   UNL     1       2.634  -4.026   0.192  0.00  0.00    +0.151 HD
ATOM     19  H   UNL     1       3.963 -10.651   0.379  0.00  0.00    +0.160 HD
ENDROOT
BRANCH  16  20
ATOM     20  C   UNL     1       3.963  -8.222  -1.570  0.00  0.00    -0.025 A 
ATOM     21  C   UNL     1       3.344  -8.976  -2.549  0.00  0.00    +0.006 A 
ATOM     22  C   UNL     1       3.997  -9.233  -3.740  0.00  0.00    +0.004 A 
ATOM     23  C   UNL     1       5.269  -8.735  -3.952  0.00  0.00    -0.050 A 
ATOM     24  C   UNL     1       5.888  -7.979  -2.974  0.00  0.00    +0.004 A 
ATOM     25  C   UNL     1       5.233  -7.719  -1.784  0.00  0.00    +0.006 A 
ATOM     26  C   UNL     1       5.981  -9.015  -5.250  0.00  0.00    +0.044 C 
ENDBRANCH  16  20
BRANCH   1  27
ATOM     27  C   UNL     1       0.513  -3.940   0.150  0.00  0.00    +0.141 C 
BRANCH  27  32
ATOM     28  C   UNL     1       1.123   1.793   0.542  0.00  0.00    +0.044 C 
ATOM     29  C   UNL     1       0.964   0.298   0.440  0.00  0.00    -0.050 A 
ATOM     30  C   UNL     1       0.919  -0.309  -0.801  0.00  0.00    +0.003 A 
ATOM     31  C   UNL     1       0.773  -1.680  -0.895  0.00  0.00    +0.005 A 
ATOM     32  C   UNL     1       0.673  -2.445   0.252  0.00  0.00    -0.030 A 
ATOM     33  C   UNL     1       0.719  -1.838   1.493  0.00  0.00    +0.005 A 
ATOM     34  C   UNL     1       0.869  -0.467   1.587  0.00  0.00    +0.003 A 
ENDBRANCH  27  32
ENDBRANCH   1  27
TORSDOF 3
