REMARK  Name = ZINC65712946
REMARK  7 active torsions:
REMARK  status: ('A' for Active; 'I' for Inactive)
REMARK    1  A    between atoms: C_1  and  C_2
REMARK    2  A    between atoms: C_3  and  C_30
REMARK    3  A    between atoms: C_9  and  C_12
REMARK    4  A    between atoms: C_12  and  N_13
REMARK    5  A    between atoms: C_14  and  C_16
REMARK    6  A    between atoms: N_18  and  C_19
REMARK    7  A    between atoms: C_24  and  N_25
REMARK                            x       y       z     vdW  Elec       q    Type
REMARK                         _______ _______ _______ _____ _____    ______ ____
ROOT
ATOM      1  N   UNL     1      -1.310  -1.404   5.391  0.00  0.00    -0.303 N 
ATOM      2  C   UNL     1      -1.547  -1.199   6.702  0.00  0.00    +0.300 C 
ATOM      3  O   UNL     1      -0.620  -1.054   7.471  0.00  0.00    -0.265 OA
ATOM      4  H   UNL     1      -2.051  -1.520   4.776  0.00  0.00    +0.149 HD
ENDROOT
BRANCH   2   5
ATOM      5  C   UNL     1      -2.951  -1.151   7.208  0.00  0.00    +0.303 C 
ATOM      6  O   UNL     1      -3.879  -1.295   6.438  0.00  0.00    -0.265 OA
ATOM      7  N   UNL     1      -3.188  -0.946   8.519  0.00  0.00    -0.276 N 
ATOM      8  H   UNL     1      -2.449  -0.910   9.146  0.00  0.00    +0.155 HD
BRANCH   7   9
ATOM      9  C   UNL     1      -4.501  -0.785   8.975  0.00  0.00    +0.055 A 
ATOM     10  C   UNL     1      -5.486  -0.326   8.113  0.00  0.00    +0.025 A 
ATOM     11  C   UNL     1      -6.782  -0.168   8.566  0.00  0.00    +0.002 A 
ATOM     12  C   UNL     1      -7.102  -0.465   9.878  0.00  0.00    +0.002 A 
ATOM     13  C   UNL     1      -6.127  -0.923  10.745  0.00  0.00    +0.025 A 
ATOM     14  C   UNL     1      -4.825  -1.091  10.297  0.00  0.00    +0.051 A 
BRANCH  14  15
ATOM     15  N   UNL     1      -3.838  -1.560  11.170  0.00  0.00    -0.328 N 
ATOM     16  C   UNL     1      -2.988  -0.724  12.031  0.00  0.00    +0.105 C 
ATOM     17  C   UNL     1      -2.037  -1.671  12.793  0.00  0.00    +0.020 C 
ATOM     18  C   UNL     1      -2.020  -2.939  11.900  0.00  0.00    +0.020 C 
ATOM     19  C   UNL     1      -3.483  -2.974  11.385  0.00  0.00    +0.105 C 
ENDBRANCH  14  15
ENDBRANCH   7   9
ENDBRANCH   2   5
BRANCH   1  20
ATOM     20  C   UNL     1       0.068  -1.451   4.895  0.00  0.00    +0.140 C 
BRANCH  20  29
ATOM     21  C   UNL     1      -0.047   1.539   0.010  0.00  0.00    +0.046 C 
ATOM     22  C   UNL     1      -0.015   0.032  -0.000  0.00  0.00    -0.022 A 
ATOM     23  C   UNL     1      -0.003  -0.759  -1.085  0.00  0.00    +0.017 A 
ATOM     24  N   UNL     1       0.027  -2.073  -0.704  0.00  0.00    -0.358 N 
ATOM     25  H   UNL     1       0.040  -2.829  -1.311  0.00  0.00    +0.166 HD
ATOM     26  C   UNL     1       0.036  -2.161   0.671  0.00  0.00    +0.047 A 
ATOM     27  C   UNL     1       0.017  -0.847   1.171  0.00  0.00    +0.003 A 
ATOM     28  C   UNL     1       0.026  -0.626   2.550  0.00  0.00    +0.015 A 
ATOM     29  C   UNL     1       0.058  -1.690   3.407  0.00  0.00    -0.030 A 
ATOM     30  C   UNL     1       0.081  -2.989   2.918  0.00  0.00    +0.007 A 
ATOM     31  C   UNL     1       0.063  -3.229   1.561  0.00  0.00    +0.026 A 
ATOM     32  C   UNL     1      -0.021  -0.272  -2.511  0.00  0.00    +0.063 C 
ENDBRANCH  20  29
ENDBRANCH   1  20
TORSDOF 5
