REMARK  Name = ZINC39687219
REMARK  8 active torsions:
REMARK  status: ('A' for Active; 'I' for Inactive)
REMARK    1  A    between atoms: C_1  and  C_2
REMARK    2  A    between atoms: C_4  and  C_8
REMARK    3  A    between atoms: N_6  and  C_7
REMARK    4  A    between atoms: C_12  and  C_21
REMARK    5  A    between atoms: N_23  and  C_24
REMARK    6  A    between atoms: C_24  and  C_26
REMARK    7  A    between atoms: C_24  and  C_27
REMARK    8  A    between atoms: C_27  and  C_28
REMARK                            x       y       z     vdW  Elec       q    Type
REMARK                         _______ _______ _______ _____ _____    ______ ____
ROOT
ATOM      1  C   UNL     1      -0.864  -2.586  -1.437  0.00  0.00    +0.267 C 
ATOM      2  O   UNL     1      -0.939  -2.561  -2.650  0.00  0.00    -0.268 OA
ATOM      3  N   UNL     1      -0.639  -3.752  -0.800  0.00  0.00    -0.295 N 
ATOM      4  C   UNL     1      -0.431  -3.969   0.651  0.00  0.00    +0.121 C 
ATOM      5  C   UNL     1      -1.191  -5.277   0.964  0.00  0.00    +0.100 C 
ATOM      6  C   UNL     1      -1.261  -6.021  -0.380  0.00  0.00    -0.004 C 
ATOM      7  C   UNL     1      -0.552  -5.109  -1.391  0.00  0.00    +0.115 C 
ATOM      8  C   UNL     1      -2.715  -6.228  -0.794  0.00  0.00    -0.010 C 
ATOM      9  C   UNL     1      -2.760  -7.019  -2.105  0.00  0.00    -0.082 C 
ATOM     10  N   UNL     1      -2.094  -8.314  -1.919  0.00  0.00    +0.379 N 
ATOM     11  C   UNL     1      -0.674  -8.108  -1.612  0.00  0.00    -0.082 C 
ATOM     12  C   UNL     1      -0.541  -7.362  -0.281  0.00  0.00    -0.010 C 
ATOM     13  H   UNL     1      -2.533  -8.810  -1.158  0.00  0.00    -0.086 HD
ATOM     14  H   UNL     1      -2.178  -8.858  -2.765  0.00  0.00    -0.086 HD
ENDROOT
BRANCH   1  18
ATOM     15  C   UNL     1      -1.709   2.234  -0.117  0.00  0.00    +0.065 C 
ATOM     16  C   UNL     1      -1.391   0.761  -0.102  0.00  0.00    +0.037 A 
ATOM     17  C   UNL     1      -1.367  -0.066  -1.174  0.00  0.00    +0.057 A 
ATOM     18  C   UNL     1      -1.020  -1.339  -0.661  0.00  0.00    +0.147 A 
ATOM     19  N   UNL     1      -0.863  -1.199   0.640  0.00  0.00    -0.167 NA
ATOM     20  N   UNL     1      -1.071   0.022   0.981  0.00  0.00    -0.271 N 
ATOM     21  C   UNL     1      -0.978   0.537   2.349  0.00  0.00    +0.172 C 
ENDBRANCH   1  18
BRANCH   5  22
ATOM     22  C   UNL     1      -2.577  -4.971   1.470  0.00  0.00    +0.218 C 
ATOM     23  O   UNL     1      -3.177  -4.005   1.048  0.00  0.00    -0.275 OA
ATOM     24  N   UNL     1      -3.150  -5.770   2.392  0.00  0.00    -0.312 N 
ATOM     25  H   UNL     1      -2.644  -6.500   2.782  0.00  0.00    +0.149 HD
BRANCH  24  26
ATOM     26  C   UNL     1      -4.536  -5.537   2.804  0.00  0.00    +0.074 C 
ATOM     27  C   UNL     1      -5.480  -6.304   1.875  0.00  0.00    +0.028 C 
BRANCH  26  28
ATOM     28  C   UNL     1      -4.729  -6.022   4.242  0.00  0.00    +0.060 C 
BRANCH  28  29
ATOM     29  C   UNL     1      -3.861  -5.208   5.167  0.00  0.00    -0.010 A 
ATOM     30  C   UNL     1      -2.619  -5.682   5.544  0.00  0.00    +0.006 A 
ATOM     31  C   UNL     1      -1.822  -4.937   6.392  0.00  0.00    +0.000 A 
ATOM     32  C   UNL     1      -2.267  -3.716   6.866  0.00  0.00    +0.003 A 
ATOM     33  C   UNL     1      -3.509  -3.240   6.490  0.00  0.00    +0.038 A 
ATOM     34  C   UNL     1      -4.306  -3.984   5.636  0.00  0.00    +0.127 A 
ATOM     35  F   UNL     1      -5.518  -3.518   5.264  0.00  0.00    -0.205 F 
ENDBRANCH  28  29
ENDBRANCH  26  28
ENDBRANCH  24  26
ENDBRANCH   5  22
TORSDOF 5
