REMARK  Name = ZINC45714914
REMARK  10 active torsions:
REMARK  status: ('A' for Active; 'I' for Inactive)
REMARK    1  A    between atoms: C_1  and  C_2
REMARK    2  A    between atoms: C_2  and  O_3
REMARK    3  A    between atoms: O_3  and  C_4
REMARK    4  A    between atoms: C_4  and  C_6
REMARK    5  A    between atoms: C_7  and  C_30
REMARK    6  A    between atoms: C_8  and  C_26
REMARK    7  A    between atoms: C_10  and  N_11
REMARK    8  A    between atoms: C_12  and  C_14
REMARK    9  A    between atoms: C_16  and  C_25
REMARK   10  A    between atoms: N_28  and  C_29
REMARK                            x       y       z     vdW  Elec       q    Type
REMARK                         _______ _______ _______ _____ _____    ______ ____
ROOT
ATOM      1  C   UNL     1       1.504  -2.340   2.481  0.00  0.00    +0.091 A 
ATOM      2  C   UNL     1       0.821  -2.639   3.652  0.00  0.00    -0.015 A 
ATOM      3  C   UNL     1       1.565  -3.174   4.669  0.00  0.00    +0.079 A 
ATOM      4  S   UNL     1       3.200  -3.245   3.964  0.00  0.00    -0.068 S 
ATOM      5  C   UNL     1       2.873  -2.613   2.442  0.00  0.00    +0.087 A 
ATOM      6  C   UNL     1      -0.657  -2.388   3.796  0.00  0.00    +0.046 C 
ENDROOT
BRANCH   3   7
ATOM      7  C   UNL     1       1.127  -3.584   6.004  0.00  0.00    +0.251 C 
ATOM      8  O   UNL     1      -0.041  -3.464   6.325  0.00  0.00    -0.270 OA
ATOM      9  N   UNL     1       2.017  -4.095   6.878  0.00  0.00    -0.314 N 
ATOM     10  C   UNL     1       1.578  -4.506   8.214  0.00  0.00    +0.128 C 
ATOM     11  H   UNL     1       2.948  -4.191   6.622  0.00  0.00    +0.149 HD
ENDBRANCH   3   7
BRANCH   5  12
ATOM     12  N   UNL     1       3.752  -2.410   1.399  0.00  0.00    -0.275 N 
ATOM     13  C   UNL     1       5.053  -2.736   1.540  0.00  0.00    +0.249 C 
ATOM     14  O   UNL     1       5.450  -3.209   2.586  0.00  0.00    -0.270 OA
ATOM     15  H   UNL     1       3.435  -2.032   0.563  0.00  0.00    +0.156 HD
BRANCH  13  16
ATOM     16  C   UNL     1       5.995  -2.518   0.421  0.00  0.00    +0.048 A 
ATOM     17  C   UNL     1       5.546  -2.093  -0.823  0.00  0.00    +0.036 A 
ATOM     18  C   UNL     1       6.461  -1.898  -1.854  0.00  0.00    +0.040 A 
ATOM     19  N   UNL     1       7.745  -2.103  -1.688  0.00  0.00    -0.252 NA
ATOM     20  C   UNL     1       8.247  -2.512  -0.520  0.00  0.00    +0.075 A 
ATOM     21  C   UNL     1       7.387  -2.731   0.585  0.00  0.00    +0.013 A 
ATOM     22  C   UNL     1       7.921  -3.155   1.809  0.00  0.00    +0.013 A 
ATOM     23  C   UNL     1       9.264  -3.348   1.927  0.00  0.00    +0.039 A 
ATOM     24  C   UNL     1      10.117  -3.130   0.844  0.00  0.00    +0.125 A 
ATOM     25  C   UNL     1       9.628  -2.728  -0.363  0.00  0.00    +0.066 A 
ATOM     26  F   UNL     1      11.445  -3.330   0.991  0.00  0.00    -0.205 F 
ATOM     27  C   UNL     1       5.962  -1.436  -3.199  0.00  0.00    +0.065 C 
ENDBRANCH  13  16
ENDBRANCH   5  12
BRANCH   1  28
ATOM     28  C   UNL     1       0.812  -1.762   1.323  0.00  0.00    +0.342 C 
ATOM     29  O   UNL     1       0.321  -2.491   0.483  0.00  0.00    -0.245 OA
BRANCH  28  30
ATOM     30  O   UNL     1       0.719  -0.424   1.192  0.00  0.00    -0.461 OA
BRANCH  30  32
ATOM     31  C   UNL     1       0.028   1.599   0.064  0.00  0.00    +0.048 C 
ATOM     32  C   UNL     1       0.031   0.069   0.040  0.00  0.00    +0.229 C 
ENDBRANCH  30  32
ENDBRANCH  28  30
ENDBRANCH   1  28
TORSDOF 6
