REMARK  Name = ZINC65918778
REMARK  7 active torsions:
REMARK  status: ('A' for Active; 'I' for Inactive)
REMARK    1  A    between atoms: C_1  and  C_2
REMARK    2  A    between atoms: C_2  and  C_3
REMARK    3  A    between atoms: C_6  and  C_9
REMARK    4  A    between atoms: C_9  and  C_10
REMARK    5  A    between atoms: C_10  and  C_11
REMARK    6  A    between atoms: N_13  and  N_14
REMARK    7  A    between atoms: N_17  and  C_18
REMARK                            x       y       z     vdW  Elec       q    Type
REMARK                         _______ _______ _______ _____ _____    ______ ____
ROOT
ATOM      1  C   UNL     1      -7.811  -1.351   0.064  0.00  0.00    +0.229 C 
ATOM      2  O   UNL     1      -8.016  -2.547   0.063  0.00  0.00    -0.274 OA
ATOM      3  N   UNL     1      -8.848  -0.490   0.073  0.00  0.00    -0.233 N 
ATOM      4  H   UNL     1      -8.684   0.466   0.074  0.00  0.00    +0.173 HD
ENDROOT
BRANCH   3   5
ATOM      5  N   UNL     1     -10.162  -0.976   0.084  0.00  0.00    -0.218 N 
ATOM      6  C   UNL     1     -11.199  -0.115   0.093  0.00  0.00    +0.316 C 
ATOM      7  O   UNL     1     -12.339  -0.536   0.102  0.00  0.00    -0.251 OA
ATOM      8  N   UNL     1     -10.971   1.214   0.094  0.00  0.00    -0.295 N 
ATOM      9  H   UNL     1     -10.325  -1.932   0.083  0.00  0.00    +0.174 HD
ATOM     10  H   UNL     1     -10.061   1.550   0.087  0.00  0.00    +0.151 HD
BRANCH   8  11
ATOM     11  C   UNL     1     -12.098   2.150   0.104  0.00  0.00    +0.074 C 
ATOM     12  C   UNL     1     -12.552   2.447  -1.340  0.00  0.00    +0.022 C 
ATOM     13  C   UNL     1     -12.937   3.947  -1.315  0.00  0.00    +0.002 C 
ATOM     14  C   UNL     1     -11.865   4.561  -0.381  0.00  0.00    +0.002 C 
ATOM     15  C   UNL     1     -11.662   3.493   0.714  0.00  0.00    +0.022 C 
ENDBRANCH   8  11
ENDBRANCH   3   5
BRANCH   1  16
ATOM     16  C   UNL     1      -6.398  -0.829   0.053  0.00  0.00    +0.102 C 
BRANCH  16  17
ATOM     17  C   UNL     1      -5.419  -2.005   0.043  0.00  0.00    +0.044 C 
BRANCH  17  21
ATOM     18  C   UNL     1      -1.412  -0.526   0.013  0.00  0.00    -0.048 A 
ATOM     19  C   UNL     1      -2.051  -0.766   1.215  0.00  0.00    +0.004 A 
ATOM     20  C   UNL     1      -3.348  -1.244   1.225  0.00  0.00    +0.004 A 
ATOM     21  C   UNL     1      -4.006  -1.482   0.032  0.00  0.00    -0.047 A 
ATOM     22  C   UNL     1      -3.367  -1.241  -1.170  0.00  0.00    +0.004 A 
ATOM     23  C   UNL     1      -2.072  -0.758  -1.179  0.00  0.00    +0.004 A 
BRANCH  18  25
ATOM     24  C   UNL     1      -0.019   1.526   0.010  0.00  0.00    +0.009 C 
ATOM     25  C   UNL     1       0.002  -0.004   0.002  0.00  0.00    +0.032 C 
ENDBRANCH  18  25
ENDBRANCH  17  21
ENDBRANCH  16  17
ENDBRANCH   1  16
TORSDOF 6
