REMARK  Name = ZINC40170583
REMARK  9 active torsions:
REMARK  status: ('A' for Active; 'I' for Inactive)
REMARK    1  A    between atoms: C_1  and  C_2
REMARK    2  A    between atoms: C_4  and  C_30
REMARK    3  A    between atoms: C_8  and  C_29
REMARK    4  A    between atoms: C_12  and  S_15
REMARK    5  A    between atoms: S_15  and  C_16
REMARK    6  A    between atoms: C_16  and  C_18
REMARK    7  A    between atoms: C_16  and  C_19
REMARK    8  A    between atoms: N_21  and  C_22
REMARK    9  A    between atoms: C_25  and  O_28
REMARK                            x       y       z     vdW  Elec       q    Type
REMARK                         _______ _______ _______ _____ _____    ______ ____
ROOT
ATOM      1  C   UNL     1      -0.044   1.486   0.021  0.00  0.00    +0.044 C 
ATOM      2  C   UNL     1      -0.015  -0.019   0.013  0.00  0.00    -0.050 A 
ATOM      3  C   UNL     1      -0.058  -0.712  -1.185  0.00  0.00    +0.008 A 
ATOM      4  C   UNL     1       0.016  -2.092  -1.205  0.00  0.00    -0.026 A 
ATOM      5  C   UNL     1       0.209  -2.803  -0.033  0.00  0.00    +0.061 A 
ATOM      6  C   UNL     1       0.070  -2.108   1.193  0.00  0.00    +0.002 A 
ATOM      7  C   UNL     1       0.016  -0.713   1.203  0.00  0.00    +0.013 A 
ATOM      8  C   UNL     1      -0.083  -2.876   2.432  0.00  0.00    -0.038 A 
ATOM      9  C   UNL     1      -0.023  -4.226   2.379  0.00  0.00    +0.052 A 
ATOM     10  C   UNL     1       0.267  -4.876   1.161  0.00  0.00    +0.162 A 
ATOM     11  N   UNL     1       0.509  -4.151   0.008  0.00  0.00    -0.270 N 
ATOM     12  C   UNL     1       1.090  -5.053  -0.832  0.00  0.00    +0.197 A 
ATOM     13  N   UNL     1       0.853  -6.254  -0.341  0.00  0.00    -0.122 NA
ATOM     14  N   UNL     1       0.331  -6.151   0.826  0.00  0.00    -0.129 NA
ATOM     15  C   UNL     1      -0.308  -2.189   3.754  0.00  0.00    +0.044 C 
ATOM     16  C   UNL     1      -0.202  -2.787  -2.526  0.00  0.00    +0.046 C 
ENDROOT
BRANCH  12  17
ATOM     17  S   UNL     1       2.049  -4.726  -2.274  0.00  0.00    -0.073 S 
BRANCH  17  18
ATOM     18  C   UNL     1       2.494  -6.374  -2.888  0.00  0.00    +0.137 C 
ATOM     19  C   UNL     1       3.401  -7.070  -1.870  0.00  0.00    +0.029 C 
BRANCH  18  20
ATOM     20  C   UNL     1       3.221  -6.242  -4.201  0.00  0.00    +0.230 C 
ATOM     21  O   UNL     1       3.816  -5.218  -4.464  0.00  0.00    -0.274 OA
ATOM     22  N   UNL     1       3.212  -7.261  -5.082  0.00  0.00    -0.285 N 
ATOM     23  H   UNL     1       2.795  -8.104  -4.845  0.00  0.00    +0.155 HD
BRANCH  22  24
ATOM     24  C   UNL     1       3.805  -7.103  -6.342  0.00  0.00    +0.034 A 
ATOM     25  C   UNL     1       3.246  -7.718  -7.455  0.00  0.00    +0.027 A 
ATOM     26  C   UNL     1       3.831  -7.561  -8.696  0.00  0.00    +0.047 A 
ATOM     27  C   UNL     1       4.977  -6.792  -8.831  0.00  0.00    +0.117 A 
ATOM     28  C   UNL     1       5.537  -6.178  -7.720  0.00  0.00    +0.047 A 
ATOM     29  C   UNL     1       4.949  -6.328  -6.479  0.00  0.00    +0.027 A 
BRANCH  27  30
ATOM     30  O   UNL     1       5.553  -6.639 -10.053  0.00  0.00    -0.507 OA
ATOM     31  H   UNL     1       5.222  -5.879 -10.552  0.00  0.00    +0.292 HD
ENDBRANCH  27  30
ENDBRANCH  22  24
ENDBRANCH  18  20
ENDBRANCH  17  18
ENDBRANCH  12  17
TORSDOF 5
