REMARK  Name = ZINC41545015
REMARK  4 active torsions:
REMARK  status: ('A' for Active; 'I' for Inactive)
REMARK    1  A    between atoms: C_6  and  C_7
REMARK    2  A    between atoms: C_7  and  C_8
REMARK    3  A    between atoms: C_8  and  C_9
REMARK    4  A    between atoms: C_18  and  N_20
REMARK                            x       y       z     vdW  Elec       q    Type
REMARK                         _______ _______ _______ _____ _____    ______ ____
ROOT
ATOM      1  C   UNL     1      -3.042  -1.796  -1.421  0.00  0.00    +0.220 C 
ATOM      2  O   UNL     1      -3.553  -2.111  -0.367  0.00  0.00    -0.275 OA
ATOM      3  N   UNL     1      -3.632  -2.134  -2.585  0.00  0.00    -0.271 N 
ATOM      4  C   UNL     1      -4.891  -2.873  -2.704  0.00  0.00    +0.118 C 
ATOM      5  C   UNL     1      -5.139  -3.007  -4.215  0.00  0.00    +0.056 C 
ATOM      6  C   UNL     1      -3.962  -2.309  -4.859  0.00  0.00    -0.023 A 
ATOM      7  C   UNL     1      -3.135  -1.824  -3.857  0.00  0.00    +0.040 A 
ATOM      8  C   UNL     1      -1.976  -1.131  -4.208  0.00  0.00    +0.025 A 
ATOM      9  C   UNL     1      -1.660  -0.927  -5.535  0.00  0.00    +0.024 A 
ATOM     10  C   UNL     1      -2.495  -1.412  -6.533  0.00  0.00    +0.025 A 
ATOM     11  C   UNL     1      -3.644  -2.111  -6.188  0.00  0.00    +0.028 A 
ENDROOT
BRANCH  10  12
ATOM     12  N   UNL     1      -2.175  -1.206  -7.879  0.00  0.00    -0.358 N 
ATOM     13  H   UNL     1      -1.368  -0.723  -8.117  0.00  0.00    +0.142 HD
ATOM     14  H   UNL     1      -2.760  -1.545  -8.574  0.00  0.00    +0.142 HD
ENDBRANCH  10  12
BRANCH   1  15
ATOM     15  C   UNL     1      -1.746  -1.026  -1.429  0.00  0.00    +0.101 C 
BRANCH  15  16
ATOM     16  C   UNL     1      -1.294  -0.774   0.010  0.00  0.00    +0.044 C 
BRANCH  16  22
ATOM     17  C   UNL     1      -0.017   1.378   0.010  0.00  0.00    +0.007 A 
ATOM     18  C   UNL     1       1.170   2.088   0.002  0.00  0.00    +0.050 A 
ATOM     19  C   UNL     1       2.380   1.416  -0.013  0.00  0.00    +0.166 A 
ATOM     20  C   UNL     1       2.399   0.023  -0.021  0.00  0.00    +0.166 A 
ATOM     21  C   UNL     1       1.207  -0.682  -0.014  0.00  0.00    +0.053 A 
ATOM     22  C   UNL     1       0.002  -0.004   0.002  0.00  0.00    -0.043 A 
ATOM     23  O   UNL     1       3.698  -0.395  -0.036  0.00  0.00    -0.453 OA
ATOM     24  C   UNL     1       4.466   0.750  -0.450  0.00  0.00    +0.466 C 
ATOM     25  O   UNL     1       3.668   1.870  -0.024  0.00  0.00    -0.453 OA
ENDBRANCH  16  22
ENDBRANCH  15  16
ENDBRANCH   1  15
TORSDOF 4
