REMARK  Name = ZINC06077629
REMARK  13 active torsions:
REMARK  status: ('A' for Active; 'I' for Inactive)
REMARK    1  A    between atoms: C_1  and  C_2
REMARK    2  A    between atoms: C_2  and  C_3
REMARK    3  A    between atoms: C_3  and  C_4
REMARK    4  A    between atoms: C_3  and  C_5
REMARK    5  A    between atoms: C_3  and  N_6
REMARK    6  A    between atoms: C_7  and  C_11
REMARK    7  A    between atoms: C_11  and  C_13
REMARK    8  A    between atoms: C_11  and  N_73
REMARK    9  A    between atoms: C_18  and  O_25
REMARK   10  A    between atoms: O_25  and  C_26
REMARK   11  A    between atoms: N_29  and  C_32
REMARK   12  A    between atoms: C_37  and  O_38
REMARK   13  A    between atoms: O_38  and  C_39
REMARK                            x       y       z     vdW  Elec       q    Type
REMARK                         _______ _______ _______ _____ _____    ______ ____
ROOT
ATOM      1  C   UNL     1       4.603   1.289   0.152  0.00  0.00    +0.039 C 
ENDROOT
BRANCH   1   2
ATOM      2  C   UNL     1       3.284   1.979   0.387  0.00  0.00    +0.011 A 
ATOM      3  C   UNL     1       2.172   1.243   0.640  0.00  0.00    +0.017 A 
ATOM      4  C   UNL     1       0.907   1.942   0.864  0.00  0.00    -0.001 A 
ATOM      5  C   UNL     1      -0.272   1.236   1.129  0.00  0.00    +0.013 A 
ATOM      6  C   UNL     1      -1.439   1.915   1.327  0.00  0.00    +0.046 A 
ATOM      7  C   UNL     1      -1.464   3.308   1.280  0.00  0.00    +0.122 A 
ATOM      8  C   UNL     1      -0.309   4.024   1.019  0.00  0.00    +0.072 A 
ATOM      9  C   UNL     1       0.887   3.350   0.808  0.00  0.00    +0.053 A 
ATOM     10  N   UNL     1       2.052   4.039   0.546  0.00  0.00    -0.322 N 
ATOM     11  H   UNL     1       2.036   5.038   0.507  0.00  0.00    +0.169 HD
ATOM     12  C   UNL     1       3.210   3.386   0.342  0.00  0.00    +0.251 A 
ATOM     13  O   UNL     1       4.221   4.028   0.113  0.00  0.00    -0.268 OA
BRANCH   7  14
ATOM     14  O   UNL     1      -2.633   3.967   1.486  0.00  0.00    -0.495 OA
ATOM     15  C   UNL     1      -3.789   3.170   1.750  0.00  0.00    +0.277 C 
ENDBRANCH   7  14
ENDBRANCH   1   2
BRANCH   1  21
ATOM     16  C   UNL     1       4.178   1.544  -2.219  0.00  0.00    -0.058 C 
ATOM     17  C   UNL     1       4.764   2.077  -3.528  0.00  0.00    +0.086 C 
ATOM     18  N   UNL     1       6.011   1.360  -3.830  0.00  0.00    -0.331 N 
ATOM     19  C   UNL     1       6.992   1.536  -2.750  0.00  0.00    +0.086 C 
ATOM     20  C   UNL     1       6.405   1.003  -1.441  0.00  0.00    -0.058 C 
ATOM     21  N   UNL     1       5.165   1.747  -1.137  0.00  0.00    +0.391 N 
ATOM     22  H   UNL     1       5.384   2.748  -1.069  0.00  0.00    -0.080 HD
BRANCH  18  23
ATOM     23  C   UNL     1       6.540   1.771  -5.060  0.00  0.00    +0.072 A 
ATOM     24  C   UNL     1       6.015   2.879  -5.708  0.00  0.00    +0.027 A 
ATOM     25  C   UNL     1       6.542   3.285  -6.919  0.00  0.00    +0.002 A 
ATOM     26  C   UNL     1       7.586   2.583  -7.492  0.00  0.00    +0.004 A 
ATOM     27  C   UNL     1       8.111   1.474  -6.855  0.00  0.00    +0.047 A 
ATOM     28  C   UNL     1       7.592   1.064  -5.638  0.00  0.00    +0.141 A 
BRANCH  28  29
ATOM     29  O   UNL     1       8.107  -0.027  -5.011  0.00  0.00    -0.493 OA
ATOM     30  C   UNL     1       9.184  -0.703  -5.663  0.00  0.00    +0.277 C 
ENDBRANCH  28  29
ENDBRANCH  18  23
ENDBRANCH   1  21
BRANCH   1  32
ATOM     31  N   UNL     1       6.022   0.831   2.221  0.00  0.00    -0.225 N 
ATOM     32  C   UNL     1       5.562   1.650   1.257  0.00  0.00    +0.143 A 
ATOM     33  N   UNL     1       6.115   2.821   1.462  0.00  0.00    -0.115 NA
ATOM     34  N   UNL     1       6.869   2.728   2.503  0.00  0.00    -0.023 NA
ATOM     35  N   UNL     1       6.817   1.526   2.962  0.00  0.00    -0.043 NA
BRANCH  31  36
ATOM     36  C   UNL     1       5.683  -0.583   2.396  0.00  0.00    +0.061 C 
ATOM     37  C   UNL     1       4.167  -0.731   2.538  0.00  0.00    +0.036 C 
ATOM     38  C   UNL     1       6.161  -1.377   1.178  0.00  0.00    +0.036 C 
BRANCH  36  40
ATOM     39  C   UNL     1       6.013  -2.597   3.837  0.00  0.00    +0.006 C 
ATOM     40  C   UNL     1       6.367  -1.120   3.655  0.00  0.00    +0.026 C 
ENDBRANCH  36  40
ENDBRANCH  31  36
ENDBRANCH   1  32
TORSDOF 8
