REMARK  Name = ZINC45629590
REMARK  7 active torsions:
REMARK  status: ('A' for Active; 'I' for Inactive)
REMARK    1  A    between atoms: C_1  and  C_2
REMARK    2  A    between atoms: C_2  and  C_3
REMARK    3  A    between atoms: C_13  and  C_15
REMARK    4  A    between atoms: C_15  and  C_17
REMARK    5  A    between atoms: C_15  and  N_20
REMARK    6  A    between atoms: C_17  and  C_18
REMARK    7  A    between atoms: C_17  and  C_19
REMARK                            x       y       z     vdW  Elec       q    Type
REMARK                         _______ _______ _______ _____ _____    ______ ____
ROOT
ATOM      1  C   UNL     1       5.548  -3.129  -7.763  0.00  0.00    +0.161 C 
ENDROOT
BRANCH   1  12
ATOM      2  C   UNL     1       0.828  -1.416  -0.874  0.00  0.00    -0.046 A 
ATOM      3  C   UNL     1       0.310  -0.905  -2.055  0.00  0.00    +0.006 A 
ATOM      4  C   UNL     1       0.937  -1.104  -3.257  0.00  0.00    +0.029 A 
ATOM      5  C   UNL     1       2.142  -1.842  -3.330  0.00  0.00    +0.080 A 
ATOM      6  C   UNL     1       2.639  -2.347  -2.107  0.00  0.00    +0.041 A 
ATOM      7  C   UNL     1       2.006  -2.138  -0.907  0.00  0.00    +0.021 A 
ATOM      8  S   UNL     1       4.119  -3.186  -2.619  0.00  0.00    -0.052 S 
ATOM      9  C   UNL     1       3.989  -2.826  -4.365  0.00  0.00    +0.165 A 
ATOM     10  N   UNL     1       2.880  -2.126  -4.424  0.00  0.00    -0.225 NA
ATOM     11  N   UNL     1       4.842  -3.192  -5.393  0.00  0.00    -0.263 N 
ATOM     12  C   UNL     1       4.569  -2.820  -6.660  0.00  0.00    +0.239 C 
ATOM     13  O   UNL     1       3.536  -2.236  -6.911  0.00  0.00    -0.273 OA
ATOM     14  H   UNL     1       5.635  -3.717  -5.202  0.00  0.00    +0.157 HD
BRANCH   2  16
ATOM     15  C   UNL     1       0.625   0.115   1.067  0.00  0.00    +0.009 C 
ATOM     16  C   UNL     1       0.116  -1.182   0.434  0.00  0.00    +0.032 C 
ENDBRANCH   2  16
ENDBRANCH   1  12
BRANCH   1  17
ATOM     17  N   UNL     1       4.828  -3.256  -9.033  0.00  0.00    -0.316 N 
ATOM     18  C   UNL     1       5.361  -4.011 -10.055  0.00  0.00    +0.150 C 
ATOM     19  N   UNL     1       6.495  -4.617  -9.899  0.00  0.00    -0.113 NA
ATOM     20  S   UNL     1       6.790  -5.412 -11.341  0.00  0.00    +0.101 S 
ATOM     21  O   UNL     1       7.908  -4.790 -11.958  0.00  0.00    -0.146 OA
ATOM     22  O   UNL     1       6.711  -6.809 -11.089  0.00  0.00    -0.146 OA
ATOM     23  C   UNL     1       5.342  -4.944 -12.249  0.00  0.00    +0.123 A 
ATOM     24  C   UNL     1       4.645  -4.143 -11.333  0.00  0.00    +0.043 A 
ATOM     25  C   UNL     1       3.419  -3.603 -11.751  0.00  0.00    +0.013 A 
ATOM     26  C   UNL     1       2.938  -3.867 -13.014  0.00  0.00    +0.001 A 
ATOM     27  C   UNL     1       3.647  -4.665 -13.894  0.00  0.00    +0.002 A 
ATOM     28  C   UNL     1       4.865  -5.200 -13.501  0.00  0.00    +0.030 A 
ATOM     29  H   UNL     1       3.976  -2.808  -9.154  0.00  0.00    +0.148 HD
ENDBRANCH   1  17
BRANCH   1  30
ATOM     30  C   UNL     1       6.572  -1.998  -7.868  0.00  0.00    +0.012 C 
ATOM     31  C   UNL     1       7.361  -1.901  -6.561  0.00  0.00    +0.009 C 
ATOM     32  C   UNL     1       7.533  -2.286  -9.023  0.00  0.00    +0.009 C 
ENDBRANCH   1  30
TORSDOF 4
