REMARK  Name = ZINC13064971
REMARK  11 active torsions:
REMARK  status: ('A' for Active; 'I' for Inactive)
REMARK    1  A    between atoms: C_1  and  C_2
REMARK    2  A    between atoms: C_2  and  C_3
REMARK    3  A    between atoms: C_3  and  C_5
REMARK    4  A    between atoms: C_3  and  N_69
REMARK    5  A    between atoms: N_9  and  C_10
REMARK    6  A    between atoms: C_10  and  C_11
REMARK    7  A    between atoms: C_16  and  C_17
REMARK    8  A    between atoms: C_16  and  N_69
REMARK    9  A    between atoms: C_20  and  C_30
REMARK   10  A    between atoms: C_22  and  C_29
REMARK   11  A    between atoms: C_31  and  N_69
REMARK                            x       y       z     vdW  Elec       q    Type
REMARK                         _______ _______ _______ _____ _____    ______ ____
ROOT
ATOM      1  N   UNL     1       5.514   4.364  -1.399  0.00  0.00    +0.391 N 
ATOM      2  H   UNL     1       4.702   4.597  -1.981  0.00  0.00    -0.080 HD
ENDROOT
BRANCH   1   3
ATOM      3  C   UNL     1       6.117   3.110  -1.897  0.00  0.00    -0.067 C 
ATOM      4  C   UNL     1       7.434   2.823  -1.172  0.00  0.00    -0.015 C 
ATOM      5  C   UNL     1       8.038   1.523  -1.708  0.00  0.00    -0.002 C 
ATOM      6  C   UNL     1       8.302   1.664  -3.208  0.00  0.00    -0.000 C 
ATOM      7  C   UNL     1       6.985   1.951  -3.933  0.00  0.00    -0.002 C 
ATOM      8  C   UNL     1       6.381   3.250  -3.397  0.00  0.00    -0.015 C 
ENDBRANCH   1   3
BRANCH   1   9
ATOM      9  C   UNL     1       6.497   5.465  -1.482  0.00  0.00    +0.003 C 
BRANCH   9  10
ATOM     10  C   UNL     1       7.481   5.381  -0.344  0.00  0.00    +0.139 A 
ATOM     11  N   UNL     1       7.197   5.247   0.928  0.00  0.00    -0.115 NA
ATOM     12  N   UNL     1       8.306   5.212   1.583  0.00  0.00    -0.023 NA
ATOM     13  N   UNL     1       9.291   5.328   0.761  0.00  0.00    -0.044 NA
ATOM     14  N   UNL     1       8.823   5.435  -0.436  0.00  0.00    -0.223 N 
BRANCH  14  15
ATOM     15  C   UNL     1       9.605   5.586  -1.666  0.00  0.00    +0.221 C 
BRANCH  15  16
ATOM     16  C   UNL     1       9.827   7.051  -1.943  0.00  0.00    +0.126 A 
ATOM     17  C   UNL     1      10.861   7.788  -1.500  0.00  0.00    +0.046 A 
ATOM     18  C   UNL     1      10.672   9.099  -1.995  0.00  0.00    +0.041 A 
ATOM     19  C   UNL     1       9.529   9.086  -2.704  0.00  0.00    +0.195 A 
ATOM     20  O   UNL     1       9.021   7.843  -2.669  0.00  0.00    -0.466 OA
ENDBRANCH  15  16
ENDBRANCH  14  15
ENDBRANCH   9  10
BRANCH   9  22
ATOM     21  C   UNL     1       4.848   6.942  -2.640  0.00  0.00    +0.002 C 
ATOM     22  C   UNL     1       5.748   6.797  -1.412  0.00  0.00    -0.011 C 
ENDBRANCH   9  22
ENDBRANCH   1   9
BRANCH   1  23
ATOM     23  C   UNL     1       5.069   4.190  -0.000  0.00  0.00    -0.036 C 
BRANCH  23  24
ATOM     24  C   UNL     1       3.821   3.345   0.009  0.00  0.00    +0.001 A 
ATOM     25  C   UNL     1       3.879   2.058   0.432  0.00  0.00    +0.017 A 
ATOM     26  C   UNL     1       2.649   1.264   0.429  0.00  0.00    +0.002 A 
ATOM     27  C   UNL     1       2.647  -0.069   0.854  0.00  0.00    -0.041 A 
ATOM     28  C   UNL     1       1.482  -0.782   0.838  0.00  0.00    +0.007 A 
ATOM     29  C   UNL     1       0.301  -0.197   0.404  0.00  0.00    -0.048 A 
ATOM     30  C   UNL     1       0.279   1.115  -0.019  0.00  0.00    +0.029 A 
ATOM     31  C   UNL     1       1.453   1.862  -0.011  0.00  0.00    +0.050 A 
ATOM     32  N   UNL     1       1.461   3.175  -0.430  0.00  0.00    -0.322 N 
ATOM     33  H   UNL     1       0.636   3.585  -0.733  0.00  0.00    +0.169 HD
ATOM     34  C   UNL     1       2.596   3.896  -0.423  0.00  0.00    +0.251 A 
ATOM     35  O   UNL     1       2.566   5.055  -0.800  0.00  0.00    -0.268 OA
ATOM     36  C   UNL     1      -0.972  -1.004   0.395  0.00  0.00    +0.044 C 
ATOM     37  C   UNL     1       3.924  -0.714   1.327  0.00  0.00    +0.044 C 
ENDBRANCH  23  24
ENDBRANCH   1  23
TORSDOF 8
