REMARK  Name = ZINC33115985
REMARK  8 active torsions:
REMARK  status: ('A' for Active; 'I' for Inactive)
REMARK    1  A    between atoms: C_1  and  C_2
REMARK    2  A    between atoms: N_8  and  C_9
REMARK    3  A    between atoms: C_9  and  C_10
REMARK    4  A    between atoms: C_10  and  N_11
REMARK    5  A    between atoms: N_11  and  C_12
REMARK    6  A    between atoms: C_14  and  C_16
REMARK    7  A    between atoms: C_22  and  C_24
REMARK    8  A    between atoms: C_31  and  C_33
REMARK                            x       y       z     vdW  Elec       q    Type
REMARK                         _______ _______ _______ _____ _____    ______ ____
ROOT
ATOM      1  C   UNL     1      -0.126   0.601   8.532  0.00  0.00    +0.020 C 
ATOM      2  C   UNL     1      -0.786  -0.371   9.513  0.00  0.00    +0.027 C 
ATOM      3  C   UNL     1       0.193  -0.688  10.648  0.00  0.00    +0.108 C 
ATOM      4  N   UNL     1       0.638   0.573  11.255  0.00  0.00    -0.297 N 
ATOM      5  C   UNL     1       1.206   1.614  10.387  0.00  0.00    +0.108 C 
ATOM      6  C   UNL     1       0.215   1.906   9.255  0.00  0.00    +0.027 C 
ATOM      7  C   UNL     1       0.528   0.772  12.584  0.00  0.00    +0.247 C 
ATOM      8  O   UNL     1      -0.039  -0.050  13.277  0.00  0.00    -0.270 OA
ENDROOT
BRANCH   7   9
ATOM      9  C   UNL     1       1.096   1.988  13.197  0.00  0.00    +0.041 A 
ATOM     10  C   UNL     1       0.380   2.670  14.190  0.00  0.00    +0.015 A 
ATOM     11  C   UNL     1       0.894   3.794  14.763  0.00  0.00    +0.032 A 
ATOM     12  C   UNL     1       2.146   4.275  14.362  0.00  0.00    +0.110 A 
ATOM     13  C   UNL     1       2.871   3.596  13.366  0.00  0.00    +0.156 A 
ATOM     14  C   UNL     1       2.347   2.453  12.792  0.00  0.00    +0.061 A 
ATOM     15  O   UNL     1       4.021   4.286  13.194  0.00  0.00    -0.435 OA
ATOM     16  C   UNL     1       4.008   5.335  14.037  0.00  0.00    +0.228 A 
ATOM     17  N   UNL     1       2.900   5.338  14.734  0.00  0.00    -0.209 NA
BRANCH  16  18
ATOM     18  C   UNL     1       5.088   6.338  14.157  0.00  0.00    +0.037 A 
ATOM     19  C   UNL     1       6.227   6.241  13.357  0.00  0.00    +0.013 A 
ATOM     20  C   UNL     1       7.231   7.180  13.474  0.00  0.00    +0.001 A 
ATOM     21  C   UNL     1       7.110   8.216  14.383  0.00  0.00    +0.000 A 
ATOM     22  C   UNL     1       5.983   8.318  15.179  0.00  0.00    +0.001 A 
ATOM     23  C   UNL     1       4.970   7.389  15.068  0.00  0.00    +0.013 A 
ENDBRANCH  16  18
ENDBRANCH   7   9
BRANCH   1  26
ATOM     24  C   UNL     1      -0.725   0.594   6.149  0.00  0.00    +0.233 C 
ATOM     25  O   UNL     1       0.484   0.033   5.898  0.00  0.00    -0.271 OA
ATOM     26  C   UNL     1      -1.074   0.889   7.397  0.00  0.00    +0.044 C 
BRANCH  24  27
ATOM     27  N   UNL     1      -1.599   0.860   5.103  0.00  0.00    -0.314 N 
ATOM     28  H   UNL     1      -2.463   1.261   5.283  0.00  0.00    +0.149 HD
BRANCH  27  29
ATOM     29  C   UNL     1      -1.214   0.534   3.727  0.00  0.00    +0.086 C 
BRANCH  29  30
ATOM     30  C   UNL     1      -2.347   0.924   2.775  0.00  0.00    -0.059 C 
BRANCH  30  37
ATOM     31  C   UNL     1      -3.198   2.584   0.676  0.00  0.00    -0.013 C 
ATOM     32  C   UNL     1      -2.995   1.081   0.473  0.00  0.00    -0.072 C 
ATOM     33  C   UNL     1      -2.560   0.816  -0.970  0.00  0.00    -0.016 C 
ATOM     34  C   UNL     1      -2.360  -0.689  -1.168  0.00  0.00    -0.003 C 
ATOM     35  C   UNL     1      -1.334  -1.196  -0.150  0.00  0.00    -0.019 C 
ATOM     36  C   UNL     1      -1.815  -0.857   1.262  0.00  0.00    -0.078 C 
ATOM     37  N   UNL     1      -1.961   0.598   1.396  0.00  0.00    +0.382 N 
ATOM     38  H   UNL     1      -1.083   1.045   1.179  0.00  0.00    -0.081 HD
ENDBRANCH  30  37
ENDBRANCH  29  30
ENDBRANCH  27  29
ENDBRANCH  24  27
ENDBRANCH   1  26
TORSDOF 7
