REMARK  Name = ZINC36600540
REMARK  12 active torsions:
REMARK  status: ('A' for Active; 'I' for Inactive)
REMARK    1  A    between atoms: C_1  and  C_2
REMARK    2  A    between atoms: C_5  and  S_8
REMARK    3  A    between atoms: S_8  and  C_11
REMARK    4  A    between atoms: C_11  and  N_12
REMARK    5  A    between atoms: C_13  and  C_15
REMARK    6  A    between atoms: C_15  and  C_17
REMARK    7  A    between atoms: C_15  and  N_24
REMARK    8  A    between atoms: N_24  and  C_25
REMARK    9  A    between atoms: C_25  and  C_26
REMARK   10  A    between atoms: C_29  and  C_31
REMARK   11  A    between atoms: C_32  and  C_34
REMARK   12  A    between atoms: C_34  and  O_35
REMARK                            x       y       z     vdW  Elec       q    Type
REMARK                         _______ _______ _______ _____ _____    ______ ____
ROOT
ATOM      1  C   UNL     1       2.449  -4.649   4.441  0.00  0.00    +0.193 C 
ENDROOT
BRANCH   1   2
ATOM      2  C   UNL     1       1.406  -4.482   5.517  0.00  0.00    -0.018 A 
ATOM      3  C   UNL     1       0.788  -5.594   6.059  0.00  0.00    +0.007 A 
ATOM      4  C   UNL     1      -0.168  -5.441   7.045  0.00  0.00    +0.020 A 
ATOM      5  C   UNL     1      -0.507  -4.176   7.490  0.00  0.00    +0.041 A 
ATOM      6  C   UNL     1       0.112  -3.064   6.947  0.00  0.00    +0.020 A 
ATOM      7  C   UNL     1       1.072  -3.218   5.965  0.00  0.00    +0.007 A 
ATOM      8 CL   UNL     1      -1.708  -3.984   8.728  0.00  0.00    -0.084 Cl
ENDBRANCH   1   2
BRANCH   1  10
ATOM      9  N   UNL     1       1.240  -3.970   2.392  0.00  0.00    -0.294 N 
ATOM     10  C   UNL     1       1.773  -4.963   3.131  0.00  0.00    +0.239 C 
ATOM     11  O   UNL     1       1.709  -6.111   2.742  0.00  0.00    -0.273 OA
ATOM     12  H   UNL     1       1.292  -3.053   2.703  0.00  0.00    +0.150 HD
BRANCH   9  13
ATOM     13  C   UNL     1       0.584  -4.276   1.119  0.00  0.00    +0.278 C 
BRANCH  13  14
ATOM     14  S   UNL     1      -1.202  -4.450   1.386  0.00  0.00    +0.013 S 
ATOM     15  O   UNL     1      -1.450  -5.285   2.509  0.00  0.00    -0.168 OA
ATOM     16  O   UNL     1      -1.861  -4.685   0.149  0.00  0.00    -0.168 OA
BRANCH  14  21
ATOM     17  C   UNL     1      -3.057   1.029   3.103  0.00  0.00    +0.044 C 
ATOM     18  C   UNL     1      -2.594  -0.340   2.674  0.00  0.00    -0.050 A 
ATOM     19  C   UNL     1      -2.579  -0.676   1.333  0.00  0.00    +0.005 A 
ATOM     20  C   UNL     1      -2.154  -1.931   0.940  0.00  0.00    +0.027 A 
ATOM     21  C   UNL     1      -1.743  -2.850   1.887  0.00  0.00    +0.090 A 
ATOM     22  C   UNL     1      -1.756  -2.513   3.228  0.00  0.00    +0.027 A 
ATOM     23  C   UNL     1      -2.177  -1.256   3.621  0.00  0.00    +0.005 A 
ENDBRANCH  14  21
ENDBRANCH  13  14
ENDBRANCH   9  13
ENDBRANCH   1  10
BRANCH   1  24
ATOM     24  N   UNL     1       3.351  -5.745   4.801  0.00  0.00    -0.277 N 
ATOM     25  C   UNL     1       4.634  -5.485   5.122  0.00  0.00    +0.242 C 
ATOM     26  O   UNL     1       5.395  -6.397   5.366  0.00  0.00    -0.273 OA
BRANCH  24  27
ATOM     27  C   UNL     1       2.858  -7.125   4.813  0.00  0.00    +0.183 C 
BRANCH  27  28
ATOM     28  C   UNL     1       3.649  -7.949   3.830  0.00  0.00    +0.122 A 
ATOM     29  C   UNL     1       4.775  -8.633   4.103  0.00  0.00    +0.046 A 
ATOM     30  C   UNL     1       5.177  -9.258   2.900  0.00  0.00    +0.045 A 
ATOM     31  C   UNL     1       4.272  -8.918   1.964  0.00  0.00    +0.102 A 
ATOM     32  O   UNL     1       3.346  -8.131   2.534  0.00  0.00    -0.463 OA
ATOM     33  C   UNL     1       4.292  -9.354   0.521  0.00  0.00    +0.086 C 
ENDBRANCH  27  28
ENDBRANCH  24  27
BRANCH  25  34
ATOM     34  C   UNL     1       5.122  -4.061   5.177  0.00  0.00    +0.251 C 
BRANCH  34  35
ATOM     35  O   UNL     1       6.459  -4.035   5.682  0.00  0.00    -0.386 OA
ATOM     36  H   UNL     1       6.838  -3.148   5.745  0.00  0.00    +0.210 HD
ENDBRANCH  34  35
ENDBRANCH  25  34
ENDBRANCH   1  24
TORSDOF 10
