REMARK  Name = ZINC01245698
REMARK  9 active torsions:
REMARK  status: ('A' for Active; 'I' for Inactive)
REMARK    1  A    between atoms: C_1  and  C_2
REMARK    2  A    between atoms: C_2  and  C_38
REMARK    3  A    between atoms: N_11  and  C_28
REMARK    4  A    between atoms: C_14  and  S_17
REMARK    5  A    between atoms: S_17  and  C_18
REMARK    6  A    between atoms: C_18  and  C_19
REMARK    7  A    between atoms: N_21  and  C_22
REMARK    8  A    between atoms: C_28  and  C_29
REMARK    9  A    between atoms: C_29  and  C_30
REMARK                            x       y       z     vdW  Elec       q    Type
REMARK                         _______ _______ _______ _____ _____    ______ ____
ROOT
ATOM      1  C   UNL     1      -0.006   1.516   0.018  0.00  0.00    +0.041 C 
ATOM      2  C   UNL     1       0.004  -0.014   0.005  0.00  0.00    +0.068 C 
ATOM      3  C   UNL     1      -1.438  -0.532  -0.006  0.00  0.00    +0.071 C 
ATOM      4  C   UNL     1      -2.048  -0.245   1.359  0.00  0.00    -0.018 A 
ATOM      5  C   UNL     1      -1.251   0.038   2.413  0.00  0.00    +0.021 A 
ATOM      6  S   UNL     1      -2.366   0.297   3.758  0.00  0.00    -0.072 S 
ATOM      7  C   UNL     1      -3.820   0.043   2.968  0.00  0.00    +0.102 A 
ATOM      8  C   UNL     1      -3.479  -0.247   1.651  0.00  0.00    +0.074 A 
ATOM      9  C   UNL     1      -4.602  -0.517   0.725  0.00  0.00    +0.264 A 
ATOM     10  O   UNL     1      -4.380  -0.779  -0.444  0.00  0.00    -0.267 OA
ATOM     11  N   UNL     1      -5.865  -0.471   1.177  0.00  0.00    -0.276 N 
ATOM     12  C   UNL     1      -6.147  -0.176   2.501  0.00  0.00    +0.240 A 
ATOM     13  N   UNL     1      -5.133   0.079   3.386  0.00  0.00    -0.249 N 
ATOM     14  C   UNL     1      -5.699   0.336   4.607  0.00  0.00    +0.198 A 
ATOM     15  N   UNL     1      -7.000   0.246   4.480  0.00  0.00    -0.120 NA
ATOM     16  N   UNL     1      -7.284  -0.079   3.148  0.00  0.00    -0.109 NA
ATOM     17  C   UNL     1       0.244   0.104   2.391  0.00  0.00    +0.203 C 
ATOM     18  O   UNL     1       0.692  -0.493   1.164  0.00  0.00    -0.368 OA
ATOM     19  C   UNL     1       0.726  -0.505  -1.252  0.00  0.00    +0.041 C 
ENDROOT
BRANCH  14  20
ATOM     20  S   UNL     1      -4.828   0.722   6.090  0.00  0.00    -0.076 S 
BRANCH  20  21
ATOM     21  C   UNL     1      -6.139   0.948   7.323  0.00  0.00    +0.173 C 
BRANCH  21  22
ATOM     22  C   UNL     1      -5.523   1.287   8.655  0.00  0.00    +0.227 C 
ATOM     23  O   UNL     1      -4.318   1.368   8.763  0.00  0.00    -0.275 OA
ATOM     24  N   UNL     1      -6.311   1.500   9.728  0.00  0.00    -0.285 N 
ATOM     25  H   UNL     1      -7.276   1.501   9.628  0.00  0.00    +0.155 HD
BRANCH  24  26
ATOM     26  C   UNL     1      -5.737   1.719  10.985  0.00  0.00    +0.033 A 
ATOM     27  C   UNL     1      -6.360   1.234  12.128  0.00  0.00    +0.023 A 
ATOM     28  C   UNL     1      -5.791   1.452  13.367  0.00  0.00    +0.002 A 
ATOM     29  C   UNL     1      -4.603   2.152  13.471  0.00  0.00    +0.000 A 
ATOM     30  C   UNL     1      -3.981   2.637  12.335  0.00  0.00    +0.002 A 
ATOM     31  C   UNL     1      -4.542   2.417  11.092  0.00  0.00    +0.023 A 
ENDBRANCH  24  26
ENDBRANCH  21  22
ENDBRANCH  20  21
ENDBRANCH  14  20
BRANCH  11  32
ATOM     32  C   UNL     1      -6.969  -0.739   0.252  0.00  0.00    +0.133 C 
BRANCH  32  33
ATOM     33  C   UNL     1      -7.287  -2.236   0.257  0.00  0.00    +0.057 C 
BRANCH  33  34
ATOM     34  C   UNL     1      -8.422  -2.512  -0.696  0.00  0.00    -0.046 A 
ATOM     35  C   UNL     1      -9.728  -2.463  -0.246  0.00  0.00    +0.004 A 
ATOM     36  C   UNL     1     -10.769  -2.716  -1.119  0.00  0.00    +0.000 A 
ATOM     37  C   UNL     1     -10.504  -3.018  -2.442  0.00  0.00    +0.000 A 
ATOM     38  C   UNL     1      -9.198  -3.065  -2.892  0.00  0.00    +0.000 A 
ATOM     39  C   UNL     1      -8.157  -2.808  -2.019  0.00  0.00    +0.004 A 
ENDBRANCH  33  34
ENDBRANCH  32  33
ENDBRANCH  11  32
TORSDOF 7
