REMARK  Name = ZINC40859201
REMARK  8 active torsions:
REMARK  status: ('A' for Active; 'I' for Inactive)
REMARK    1  A    between atoms: C_1  and  C_2
REMARK    2  A    between atoms: C_2  and  C_4
REMARK    3  A    between atoms: C_8  and  C_10
REMARK    4  A    between atoms: C_10  and  C_11
REMARK    5  A    between atoms: C_10  and  C_12
REMARK    6  A    between atoms: C_10  and  N_13
REMARK    7  A    between atoms: N_16  and  N_17
REMARK    8  A    between atoms: C_18  and  C_19
REMARK                            x       y       z     vdW  Elec       q    Type
REMARK                         _______ _______ _______ _____ _____    ______ ____
ROOT
ATOM      1  N   UNL     1      -3.612  -2.237  -3.085  0.00  0.00    -0.289 N 
ATOM      2  C   UNL     1      -4.845  -2.606  -3.486  0.00  0.00    +0.320 C 
ATOM      3  O   UNL     1      -4.976  -3.349  -4.440  0.00  0.00    -0.251 OA
ATOM      4  N   UNL     1      -5.931  -2.152  -2.831  0.00  0.00    -0.191 N 
ATOM      5  H   UNL     1      -3.507  -1.644  -2.324  0.00  0.00    +0.151 HD
ATOM      6  H   UNL     1      -6.818  -2.417  -3.120  0.00  0.00    +0.179 HD
ENDROOT
BRANCH   1   7
ATOM      7  C   UNL     1      -2.431  -2.731  -3.797  0.00  0.00    +0.056 C 
ATOM      8  C   UNL     1      -2.493  -2.283  -5.259  0.00  0.00    +0.036 C 
ATOM      9  C   UNL     1      -2.398  -4.259  -3.732  0.00  0.00    +0.036 C 
BRANCH   7  14
ATOM     10  C   UNL     1      -0.027  -1.371  -1.210  0.00  0.00    -0.022 A 
ATOM     11  C   UNL     1       1.111  -1.149  -1.986  0.00  0.00    +0.008 A 
ATOM     12  C   UNL     1       1.091  -1.441  -3.334  0.00  0.00    +0.001 A 
ATOM     13  C   UNL     1      -0.056  -1.952  -3.917  0.00  0.00    +0.006 A 
ATOM     14  C   UNL     1      -1.187  -2.174  -3.154  0.00  0.00    -0.024 A 
ATOM     15  C   UNL     1      -1.178  -1.892  -1.803  0.00  0.00    +0.014 A 
BRANCH  10  17
ATOM     16  C   UNL     1       0.141   0.364   0.699  0.00  0.00    +0.044 C 
ATOM     17  C   UNL     1      -0.012  -1.062   0.235  0.00  0.00    -0.050 C 
ATOM     18  C   UNL     1      -0.133  -2.038   1.124  0.00  0.00    +0.012 C 
ENDBRANCH  10  17
ENDBRANCH   7  14
ENDBRANCH   1   7
BRANCH   4  19
ATOM     19  N   UNL     1      -5.779  -1.296  -1.732  0.00  0.00    -0.186 NA
ATOM     20  C   UNL     1      -6.816  -0.947  -1.033  0.00  0.00    +0.140 C 
BRANCH  20  21
ATOM     21  C   UNL     1      -8.111  -1.613  -1.253  0.00  0.00    +0.020 A 
ATOM     22  C   UNL     1      -8.311  -2.833  -1.820  0.00  0.00    +0.093 A 
ATOM     23  N   UNL     1      -9.646  -3.111  -1.852  0.00  0.00    -0.360 N 
ATOM     24  H   UNL     1     -10.034  -3.925  -2.211  0.00  0.00    +0.165 HD
ATOM     25  C   UNL     1     -10.364  -2.071  -1.301  0.00  0.00    +0.047 A 
ATOM     26  C   UNL     1      -9.442  -1.091  -0.896  0.00  0.00    +0.008 A 
ATOM     27  C   UNL     1      -9.891   0.083  -0.294  0.00  0.00    +0.010 A 
ATOM     28  C   UNL     1     -11.240   0.274  -0.096  0.00  0.00    +0.001 A 
ATOM     29  C   UNL     1     -12.151  -0.695  -0.492  0.00  0.00    +0.002 A 
ATOM     30  C   UNL     1     -11.723  -1.857  -1.095  0.00  0.00    +0.026 A 
ENDBRANCH  20  21
ENDBRANCH   4  19
TORSDOF 5
