REMARK  Name = ZINC02323494
REMARK  6 active torsions:
REMARK  status: ('A' for Active; 'I' for Inactive)
REMARK    1  A    between atoms: C_1  and  O_2
REMARK    2  A    between atoms: O_2  and  C_3
REMARK    3  A    between atoms: C_6  and  O_35
REMARK    4  A    between atoms: C_7  and  N_9
REMARK    5  A    between atoms: N_22  and  C_23
REMARK    6  A    between atoms: O_35  and  C_36
REMARK                            x       y       z     vdW  Elec       q    Type
REMARK                         _______ _______ _______ _____ _____    ______ ____
ROOT
ATOM      1  N   UNL     1      -2.539  -4.066   0.015  0.00  0.00    -0.236 N 
ATOM      2  C   UNL     1      -2.581  -5.079  -0.917  0.00  0.00    +0.195 C 
ATOM      3  N   UNL     1      -2.082  -6.027  -0.051  0.00  0.00    -0.284 N 
ATOM      4  C   UNL     1      -2.576  -5.144   1.004  0.00  0.00    +0.214 C 
ATOM      5  C   UNL     1      -3.925  -5.479   1.573  0.00  0.00    +0.025 A 
ATOM      6  C   UNL     1      -5.154  -5.742   1.008  0.00  0.00    +0.010 A 
ATOM      7  C   UNL     1      -6.241  -6.024   1.817  0.00  0.00    +0.001 A 
ATOM      8  C   UNL     1      -6.090  -6.042   3.191  0.00  0.00    +0.002 A 
ATOM      9  C   UNL     1      -4.862  -5.778   3.761  0.00  0.00    +0.024 A 
ATOM     10  C   UNL     1      -3.762  -5.493   2.955  0.00  0.00    +0.041 A 
ATOM     11  N   UNL     1      -2.439  -5.196   3.288  0.00  0.00    -0.282 N 
ATOM     12  C   UNL     1      -1.677  -4.978   2.199  0.00  0.00    +0.265 C 
ATOM     13  O   UNL     1      -0.496  -4.702   2.184  0.00  0.00    -0.271 OA
ATOM     14  N   UNL     1      -2.963  -5.124  -2.188  0.00  0.00    -0.182 NA
ATOM     15  H   UNL     1      -2.107  -5.152   4.199  0.00  0.00    +0.155 HD
ATOM     16  H   UNL     1      -1.620  -6.878  -0.112  0.00  0.00    +0.152 HD
ENDROOT
BRANCH  14  17
ATOM     17  C   UNL     1      -2.893  -6.274  -2.867  0.00  0.00    +0.233 C 
ATOM     18  N   UNL     1      -2.450  -7.460  -2.345  0.00  0.00    -0.208 NA
ATOM     19  C   UNL     1      -2.508  -8.377  -3.262  0.00  0.00    +0.119 C 
ATOM     20  C   UNL     1      -2.293  -9.785  -3.672  0.00  0.00    +0.029 A 
ATOM     21  C   UNL     1      -1.826 -10.911  -3.027  0.00  0.00    +0.012 A 
ATOM     22  C   UNL     1      -1.744 -12.122  -3.715  0.00  0.00    +0.001 A 
ATOM     23  C   UNL     1      -2.128 -12.192  -5.035  0.00  0.00    +0.002 A 
ATOM     24  C   UNL     1      -2.601 -11.062  -5.696  0.00  0.00    +0.028 A 
ATOM     25  C   UNL     1      -2.690  -9.847  -5.024  0.00  0.00    +0.076 A 
ATOM     26  N   UNL     1      -3.112  -8.611  -5.434  0.00  0.00    -0.227 NA
ATOM     27  C   UNL     1      -3.042  -7.711  -4.490  0.00  0.00    +0.161 C 
ATOM     28  N   UNL     1      -3.250  -6.424  -4.137  0.00  0.00    -0.307 N 
ATOM     29  H   UNL     1      -3.599  -5.727  -4.715  0.00  0.00    +0.170 HD
ENDBRANCH  14  17
BRANCH   1  34
ATOM     30  C   UNL     1      -1.201  -0.638   0.010  0.00  0.00    +0.122 A 
ATOM     31  C   UNL     1      -2.374   0.103   0.019  0.00  0.00    +0.049 A 
ATOM     32  C   UNL     1      -3.599  -0.538   0.027  0.00  0.00    +0.051 A 
ATOM     33  C   UNL     1      -3.659  -1.922   0.026  0.00  0.00    +0.142 A 
ATOM     34  C   UNL     1      -2.482  -2.668   0.016  0.00  0.00    +0.084 A 
ATOM     35  C   UNL     1      -1.254  -2.023   0.003  0.00  0.00    +0.073 A 
BRANCH  30  37
ATOM     36  C   UNL     1      -0.017   1.425   0.010  0.00  0.00    +0.277 C 
ATOM     37  O   UNL     1       0.002  -0.004   0.002  0.00  0.00    -0.495 OA
ENDBRANCH  30  37
BRANCH  33  38
ATOM     38  O   UNL     1      -4.865  -2.551   0.034  0.00  0.00    -0.493 OA
ATOM     39  C   UNL     1      -6.029  -1.723   0.044  0.00  0.00    +0.277 C 
ENDBRANCH  33  38
ENDBRANCH   1  34
TORSDOF 4
