REMARK  Name = ZINC02739841
REMARK  8 active torsions:
REMARK  status: ('A' for Active; 'I' for Inactive)
REMARK    1  A    between atoms: C_1  and  C_2
REMARK    2  A    between atoms: C_2  and  C_3
REMARK    3  A    between atoms: C_10  and  N_15
REMARK    4  A    between atoms: C_11  and  C_12
REMARK    5  A    between atoms: C_16  and  C_18
REMARK    6  A    between atoms: C_18  and  C_20
REMARK    7  A    between atoms: C_18  and  C_22
REMARK    8  A    between atoms: C_20  and  C_21
REMARK                            x       y       z     vdW  Elec       q    Type
REMARK                         _______ _______ _______ _____ _____    ______ ____
ROOT
ATOM      1  C   UNL     1      -8.592  -0.904  -0.138  0.00  0.00    -0.006 C 
ATOM      2  C   UNL     1      -8.453  -0.929   1.387  0.00  0.00    +0.008 C 
ATOM      3  C   UNL     1      -7.345   0.031   1.824  0.00  0.00    +0.037 C 
ATOM      4  C   UNL     1      -6.080  -0.289   1.036  0.00  0.00    -0.023 A 
ATOM      5  C   UNL     1      -6.135  -1.007  -0.106  0.00  0.00    -0.004 A 
ATOM      6  S   UNL     1      -4.454  -1.120  -0.650  0.00  0.00    -0.077 S 
ATOM      7  C   UNL     1      -3.688  -0.227   0.621  0.00  0.00    +0.084 A 
ATOM      8  C   UNL     1      -4.750   0.133   1.439  0.00  0.00    +0.068 A 
ATOM      9  C   UNL     1      -7.358  -1.574  -0.759  0.00  0.00    +0.046 C 
ENDROOT
BRANCH   8  10
ATOM     10  C   UNL     1      -4.537   0.913   2.662  0.00  0.00    +0.244 C 
ATOM     11  O   UNL     1      -4.569   2.129   2.621  0.00  0.00    -0.270 OA
ATOM     12  N   UNL     1      -4.306   0.284   3.831  0.00  0.00    -0.325 N 
ATOM     13  H   UNL     1      -4.280  -0.685   3.863  0.00  0.00    +0.145 HD
ATOM     14  H   UNL     1      -4.165   0.800   4.640  0.00  0.00    +0.145 HD
ENDBRANCH   8  10
BRANCH   7  15
ATOM     15  N   UNL     1      -2.340   0.055   0.785  0.00  0.00    -0.279 N 
ATOM     16  C   UNL     1      -1.444  -0.388  -0.120  0.00  0.00    +0.225 C 
ATOM     17  O   UNL     1      -1.804  -1.109  -1.026  0.00  0.00    -0.275 OA
ATOM     18  H   UNL     1      -2.042   0.571   1.550  0.00  0.00    +0.155 HD
BRANCH  16  19
ATOM     19  C   UNL     1       0.004   0.014  -0.005  0.00  0.00    +0.105 C 
BRANCH  19  20
ATOM     20  C   UNL     1       0.764  -1.055   0.738  0.00  0.00    -0.036 A 
ATOM     21  C   UNL     1       0.808  -2.344   0.241  0.00  0.00    +0.004 A 
ATOM     22  C   UNL     1       1.509  -3.323   0.920  0.00  0.00    +0.000 A 
ATOM     23  C   UNL     1       2.157  -3.015   2.101  0.00  0.00    +0.000 A 
ATOM     24  C   UNL     1       2.109  -1.727   2.601  0.00  0.00    +0.000 A 
ATOM     25  C   UNL     1       1.412  -0.747   1.919  0.00  0.00    +0.004 A 
ENDBRANCH  19  20
BRANCH  19  26
ATOM     26  C   UNL     1       0.598   0.183  -1.405  0.00  0.00    +0.014 C 
ATOM     27  C   UNL     1      -0.077   1.363  -2.107  0.00  0.00    +0.005 C 
ENDBRANCH  19  26
ENDBRANCH  16  19
ENDBRANCH   7  15
BRANCH   1  29
ATOM     28  C   UNL     1     -10.059  -1.533  -2.061  0.00  0.00    +0.004 C 
ATOM     29  C   UNL     1      -9.854  -1.665  -0.550  0.00  0.00    +0.000 C 
ENDBRANCH   1  29
TORSDOF 6
