REMARK  Name = ZINC15734739
REMARK  3 active torsions:
REMARK  status: ('A' for Active; 'I' for Inactive)
REMARK    1  A    between atoms: C_3  and  C_6
REMARK    2  A    between atoms: C_15  and  C_18
REMARK    3  A    between atoms: N_20  and  C_21
REMARK                            x       y       z     vdW  Elec       q    Type
REMARK                         _______ _______ _______ _____ _____    ______ ____
ROOT
ATOM      1  C   UNL     1      -1.223   1.782   0.017  0.00  0.00    +0.100 A 
ATOM      2  C   UNL     1      -0.013   1.076   0.008  0.00  0.00    +0.034 A 
ATOM      3  C   UNL     1       1.162   1.804   0.001  0.00  0.00    +0.047 A 
ATOM      4  C   UNL     1       1.070   3.198   0.009  0.00  0.00    +0.144 A 
ATOM      5  N   UNL     1      -0.119   3.782   0.024  0.00  0.00    -0.134 NA
ATOM      6  N   UNL     1      -1.212   3.110   0.030  0.00  0.00    -0.147 NA
ATOM      7  N   UNL     1       2.226   3.972   0.002  0.00  0.00    -0.314 N 
ATOM      8  C   UNL     1       3.103   3.618   1.125  0.00  0.00    +0.107 C 
ATOM      9  C   UNL     1       4.423   4.382   1.003  0.00  0.00    +0.031 C 
ATOM     10  C   UNL     1       4.139   5.886   1.007  0.00  0.00    +0.078 C 
ATOM     11  C   UNL     1       3.185   6.221  -0.142  0.00  0.00    +0.031 C 
ATOM     12  C   UNL     1       1.901   5.404   0.013  0.00  0.00    +0.107 C 
ENDROOT
BRANCH   1  15
ATOM     13  C   UNL     1      -4.839   0.665   0.026  0.00  0.00    +0.008 A 
ATOM     14  C   UNL     1      -3.784   1.550   0.027  0.00  0.00    +0.018 A 
ATOM     15  C   UNL     1      -2.507   1.052   0.019  0.00  0.00    +0.039 A 
ATOM     16  S   UNL     1      -2.800  -0.710   0.002  0.00  0.00    -0.095 S 
ATOM     17  C   UNL     1      -4.585  -0.669   0.017  0.00  0.00    +0.046 A 
ENDBRANCH   1  15
BRANCH  10  18
ATOM     18  C   UNL     1       5.430   6.643   0.827  0.00  0.00    +0.216 C 
ATOM     19  O   UNL     1       5.574   7.379  -0.126  0.00  0.00    -0.276 OA
ATOM     20  N   UNL     1       6.424   6.503   1.726  0.00  0.00    -0.312 N 
ATOM     21  H   UNL     1       6.309   5.915   2.489  0.00  0.00    +0.149 HD
BRANCH  20  22
ATOM     22  C   UNL     1       7.679   7.239   1.551  0.00  0.00    +0.073 C 
ATOM     23  C   UNL     1       8.606   6.453   0.622  0.00  0.00    +0.022 C 
ATOM     24  C   UNL     1       9.723   7.370   0.122  0.00  0.00    +0.002 C 
ATOM     25  C   UNL     1       9.132   8.722  -0.282  0.00  0.00    +0.000 C 
ATOM     26  C   UNL     1       9.632   9.805   0.676  0.00  0.00    +0.000 C 
ATOM     27  C   UNL     1       8.882   9.693   2.006  0.00  0.00    +0.000 C 
ATOM     28  C   UNL     1       9.431   8.507   2.802  0.00  0.00    +0.002 C 
ATOM     29  C   UNL     1       8.356   7.424   2.911  0.00  0.00    +0.022 C 
ENDBRANCH  20  22
ENDBRANCH  10  18
TORSDOF 3
