REMARK  Name = ZINC35167924
REMARK  11 active torsions:
REMARK  status: ('A' for Active; 'I' for Inactive)
REMARK    1  A    between atoms: C_1  and  C_2
REMARK    2  A    between atoms: C_2  and  C_3
REMARK    3  A    between atoms: C_3  and  C_4
REMARK    4  A    between atoms: C_3  and  C_5
REMARK    5  A    between atoms: C_3  and  C_6
REMARK    6  A    between atoms: N_12  and  C_17
REMARK    7  A    between atoms: C_17  and  C_18
REMARK    8  A    between atoms: C_20  and  C_23
REMARK    9  A    between atoms: N_25  and  C_26
REMARK   10  A    between atoms: C_26  and  C_27
REMARK   11  A    between atoms: C_26  and  C_33
REMARK                            x       y       z     vdW  Elec       q    Type
REMARK                         _______ _______ _______ _____ _____    ______ ____
ROOT
ATOM      1  C   UNL     1      -5.291  -4.308  -1.812  0.00  0.00    +0.097 A 
ATOM      2  N   UNL     1      -5.915  -5.246  -2.470  0.00  0.00    -0.238 NA
ATOM      3  C   UNL     1      -6.020  -5.130  -3.797  0.00  0.00    +0.133 A 
ATOM      4  C   UNL     1      -5.450  -4.014  -4.350  0.00  0.00    +0.080 A 
ATOM      5  S   UNL     1      -4.828  -3.221  -3.006  0.00  0.00    -0.078 S 
ENDROOT
BRANCH   3   6
ATOM      6  C   UNL     1      -6.707  -6.142  -4.617  0.00  0.00    +0.264 C 
ATOM      7  O   UNL     1      -6.781  -6.000  -5.823  0.00  0.00    -0.268 OA
ATOM      8  N   UNL     1      -7.254  -7.225  -4.031  0.00  0.00    -0.299 N 
ATOM      9  H   UNL     1      -7.196  -7.338  -3.070  0.00  0.00    +0.150 HD
BRANCH   8  10
ATOM     10  C   UNL     1      -7.938  -8.232  -4.847  0.00  0.00    +0.134 C 
BRANCH  10  11
ATOM     11  C   UNL     1      -7.912  -9.559  -4.133  0.00  0.00    -0.023 A 
ATOM     12  C   UNL     1      -8.112  -9.612  -2.766  0.00  0.00    +0.006 A 
ATOM     13  C   UNL     1      -8.088 -10.829  -2.111  0.00  0.00    +0.000 A 
ATOM     14  C   UNL     1      -7.865 -11.993  -2.823  0.00  0.00    +0.000 A 
ATOM     15  C   UNL     1      -7.666 -11.940  -4.190  0.00  0.00    +0.000 A 
ATOM     16  C   UNL     1      -7.694 -10.723  -4.846  0.00  0.00    +0.006 A 
ENDBRANCH  10  11
BRANCH  10  17
ATOM     17  C   UNL     1      -9.367  -7.810  -5.072  0.00  0.00    -0.023 A 
ATOM     18  C   UNL     1     -10.085  -7.227  -4.045  0.00  0.00    +0.006 A 
ATOM     19  C   UNL     1     -11.396  -6.840  -4.251  0.00  0.00    +0.000 A 
ATOM     20  C   UNL     1     -11.989  -7.037  -5.484  0.00  0.00    +0.000 A 
ATOM     21  C   UNL     1     -11.271  -7.619  -6.511  0.00  0.00    +0.000 A 
ATOM     22  C   UNL     1      -9.958  -8.002  -6.307  0.00  0.00    +0.006 A 
ENDBRANCH  10  17
ENDBRANCH   8  10
ENDBRANCH   3   6
BRANCH   1  23
ATOM     23  C   UNL     1      -5.048  -4.217  -0.328  0.00  0.00    +0.176 C 
BRANCH  23  30
ATOM     24  C   UNL     1      -1.413  -2.041   0.005  0.00  0.00    -0.040 A 
ATOM     25  C   UNL     1      -0.205  -2.713  -0.005  0.00  0.00    +0.008 A 
ATOM     26  C   UNL     1      -0.177  -4.096  -0.012  0.00  0.00    +0.048 A 
ATOM     27  C   UNL     1      -1.364  -4.809  -0.010  0.00  0.00    +0.143 A 
ATOM     28  C   UNL     1      -2.581  -4.131  -0.001  0.00  0.00    +0.079 A 
ATOM     29  C   UNL     1      -2.602  -2.746   0.012  0.00  0.00    +0.031 A 
ATOM     30  N   UNL     1      -3.776  -4.865  -0.001  0.00  0.00    -0.259 N 
ATOM     31  C   UNL     1      -3.735  -6.181   0.306  0.00  0.00    +0.258 C 
ATOM     32  O   UNL     1      -4.751  -6.843   0.281  0.00  0.00    -0.271 OA
ATOM     33  C   UNL     1      -2.422  -6.822   0.677  0.00  0.00    +0.325 C 
ATOM     34  O   UNL     1      -1.355  -6.169  -0.016  0.00  0.00    -0.481 OA
BRANCH  24  35
ATOM     35  C   UNL     1      -1.433  -0.534   0.013  0.00  0.00    -0.010 C 
ATOM     36  C   UNL     1      -2.149  -0.040   1.272  0.00  0.00    +0.016 C 
ATOM     37  C   UNL     1      -2.173  -0.027  -1.227  0.00  0.00    +0.016 C 
BRANCH  35  39
ATOM     38  C   UNL     1      -0.019   1.526   0.010  0.00  0.00    +0.005 C 
ATOM     39  C   UNL     1       0.002  -0.004   0.002  0.00  0.00    +0.007 C 
ENDBRANCH  35  39
ENDBRANCH  24  35
ENDBRANCH  23  30
ENDBRANCH   1  23
TORSDOF 8
