REMARK  Name = ZINC39745651
REMARK  11 active torsions:
REMARK  status: ('A' for Active; 'I' for Inactive)
REMARK    1  A    between atoms: C_1  and  C_2
REMARK    2  A    between atoms: C_6  and  C_8
REMARK    3  A    between atoms: N_10  and  CA_11
REMARK    4  A    between atoms: CA_11  and  C_13
REMARK    5  A    between atoms: CA_11  and  C_15
REMARK    6  A    between atoms: C_13  and  O_14
REMARK    7  A    between atoms: C_18  and  S_26
REMARK    8  A    between atoms: N_19  and  C_20
REMARK    9  A    between atoms: S_26  and  C_27
REMARK   10  A    between atoms: C_27  and  C_28
REMARK   11  A    between atoms: C_31  and  N_34
REMARK                            x       y       z     vdW  Elec       q    Type
REMARK                         _______ _______ _______ _____ _____    ______ ____
ROOT
ATOM      1  C   UNL     1      -0.498  -6.309   3.488  0.00  0.00    +0.161 A 
ATOM      2  N   UNL     1      -0.227  -7.115   2.500  0.00  0.00    -0.131 NA
ATOM      3  N   UNL     1      -0.899  -8.204   2.621  0.00  0.00    -0.122 NA
ATOM      4  C   UNL     1      -1.643  -8.154   3.701  0.00  0.00    +0.196 A 
ATOM      5  N   UNL     1      -1.406  -6.943   4.293  0.00  0.00    -0.273 N 
ENDROOT
BRANCH   5   6
ATOM      6  C   UNL     1      -1.978  -6.453   5.477  0.00  0.00    +0.050 A 
ATOM      7  C   UNL     1      -1.179  -6.212   6.586  0.00  0.00    +0.026 A 
ATOM      8  C   UNL     1      -1.744  -5.729   7.750  0.00  0.00    +0.002 A 
ATOM      9  C   UNL     1      -3.104  -5.485   7.811  0.00  0.00    +0.000 A 
ATOM     10  C   UNL     1      -3.902  -5.724   6.707  0.00  0.00    +0.002 A 
ATOM     11  C   UNL     1      -3.341  -6.201   5.538  0.00  0.00    +0.026 A 
ENDBRANCH   5   6
BRANCH   1  12
ATOM     12  CA  UNL     1       0.086  -4.937   3.707  0.00  0.00    +0.167 C 
BRANCH  12  15
ATOM     13  C   UNL     1       0.052  -2.845   2.458  0.00  0.00    +0.245 C 
ATOM     14  O   UNL     1       0.049  -2.248   3.516  0.00  0.00    -0.270 OA
ATOM     15  N   UNL     1       0.070  -4.193   2.445  0.00  0.00    -0.299 N 
ATOM     16  H   UNL     1       0.072  -4.670   1.601  0.00  0.00    +0.150 HD
BRANCH  13  22
ATOM     17  C   UNL     1      -0.018   1.503   0.010  0.00  0.00    +0.044 C 
ATOM     18  C   UNL     1       0.002  -0.004   0.002  0.00  0.00    -0.050 A 
ATOM     19  C   UNL     1       0.006  -0.688  -1.201  0.00  0.00    +0.003 A 
ATOM     20  C   UNL     1       0.025  -2.071  -1.218  0.00  0.00    +0.001 A 
ATOM     21  C   UNL     1       0.040  -2.778  -0.033  0.00  0.00    +0.013 A 
ATOM     22  C   UNL     1       0.036  -2.095   1.184  0.00  0.00    +0.037 A 
ATOM     23  C   UNL     1       0.023  -0.699   1.194  0.00  0.00    +0.016 A 
ENDBRANCH  13  22
ENDBRANCH  12  15
BRANCH  12  24
ATOM     24  C   UNL     1       1.527  -5.069   4.204  0.00  0.00    +0.186 C 
BRANCH  24  25
ATOM     25  O   UNL     1       2.276  -5.867   3.285  0.00  0.00    -0.393 OA
ATOM     26  H   UNL     1       3.201  -5.992   3.537  0.00  0.00    +0.209 HD
ENDBRANCH  24  25
ENDBRANCH  12  24
ENDBRANCH   1  12
BRANCH   4  27
ATOM     27  S   UNL     1      -2.734  -9.409   4.282  0.00  0.00    -0.081 S 
BRANCH  27  28
ATOM     28  C   UNL     1      -2.570 -10.735   3.055  0.00  0.00    +0.112 C 
BRANCH  28  29
ATOM     29  C   UNL     1      -3.464 -11.887   3.438  0.00  0.00    -0.037 A 
ATOM     30  C   UNL     1      -2.983 -12.893   4.255  0.00  0.00    +0.007 A 
ATOM     31  C   UNL     1      -3.802 -13.949   4.606  0.00  0.00    +0.033 A 
ATOM     32  C   UNL     1      -5.102 -14.000   4.140  0.00  0.00    +0.126 A 
ATOM     33  C   UNL     1      -5.584 -12.994   3.324  0.00  0.00    +0.033 A 
ATOM     34  C   UNL     1      -4.766 -11.935   2.976  0.00  0.00    +0.007 A 
BRANCH  32  35
ATOM     35  N   UNL     1      -5.979 -15.132   4.515  0.00  0.00    +0.056 N 
ATOM     36  O   UNL     1      -5.558 -16.012   5.229  0.00  0.00    -0.126 OA
ATOM     37  O   UNL     1      -7.117 -15.176   4.108  0.00  0.00    -0.126 OA
ENDBRANCH  32  35
ENDBRANCH  28  29
ENDBRANCH  27  28
ENDBRANCH   4  27
TORSDOF 10
