REMARK  Name = ZINC45512782
REMARK  5 active torsions:
REMARK  status: ('A' for Active; 'I' for Inactive)
REMARK    1  A    between atoms: C_1  and  C_2
REMARK    2  A    between atoms: C_2  and  C_4
REMARK    3  A    between atoms: C_2  and  N_14
REMARK    4  A    between atoms: N_6  and  C_7
REMARK    5  A    between atoms: C_17  and  N_20
REMARK                            x       y       z     vdW  Elec       q    Type
REMARK                         _______ _______ _______ _____ _____    ______ ____
ROOT
ATOM      1  N   UNL     1       0.527  -0.650   1.213  0.00  0.00    +0.387 N 
ATOM      2  C   UNL     1       0.479  -2.106   1.033  0.00  0.00    -0.076 C 
ATOM      3  C   UNL     1       1.161  -2.793   2.218  0.00  0.00    +0.006 C 
ATOM      4  C   UNL     1       0.432  -2.413   3.510  0.00  0.00    +0.089 C 
ATOM      5  C   UNL     1       0.424  -0.888   3.650  0.00  0.00    +0.006 C 
ATOM      6  C   UNL     1      -0.230  -0.271   2.412  0.00  0.00    -0.076 C 
ATOM      7  H   UNL     1       1.488  -0.358   1.317  0.00  0.00    -0.081 HD
ENDROOT
BRANCH   4   8
ATOM      8  N   UNL     1       1.125  -3.006   4.656  0.00  0.00    -0.289 N 
ATOM      9  C   UNL     1       0.575  -3.912   5.561  0.00  0.00    +0.070 A 
ATOM     10  C   UNL     1      -0.675  -4.499   5.679  0.00  0.00    +0.028 A 
ATOM     11  C   UNL     1      -0.925  -5.381   6.712  0.00  0.00    +0.002 A 
ATOM     12  C   UNL     1       0.067  -5.682   7.629  0.00  0.00    +0.002 A 
ATOM     13  C   UNL     1       1.315  -5.102   7.520  0.00  0.00    +0.028 A 
ATOM     14  C   UNL     1       1.576  -4.215   6.486  0.00  0.00    +0.067 A 
ATOM     15  N   UNL     1       2.703  -3.485   6.114  0.00  0.00    -0.306 N 
ATOM     16  H   UNL     1       3.559  -3.490   6.571  0.00  0.00    +0.170 HD
ATOM     17  C   UNL     1       2.403  -2.775   5.011  0.00  0.00    +0.328 A 
ATOM     18  O   UNL     1       3.169  -2.033   4.424  0.00  0.00    -0.247 OA
ENDBRANCH   4   8
BRANCH   1  20
ATOM     19  C   UNL     1      -0.125   1.517   0.278  0.00  0.00    -0.004 C 
ATOM     20  C   UNL     1      -0.058   0.008   0.037  0.00  0.00    +0.016 C 
BRANCH  20  21
ATOM     21  C   UNL     1       0.797  -0.271  -1.172  0.00  0.00    +0.203 C 
ATOM     22  O   UNL     1       1.907  -0.740  -1.035  0.00  0.00    -0.277 OA
ATOM     23  N   UNL     1       0.328   0.001  -2.406  0.00  0.00    -0.287 N 
ATOM     24  H   UNL     1      -0.527   0.446  -2.513  0.00  0.00    +0.155 HD
BRANCH  23  25
ATOM     25  C   UNL     1       1.076  -0.357  -3.533  0.00  0.00    +0.033 A 
ATOM     26  C   UNL     1       0.432  -0.773  -4.692  0.00  0.00    +0.025 A 
ATOM     27  C   UNL     1       1.173  -1.126  -5.803  0.00  0.00    +0.022 A 
ATOM     28  C   UNL     1       2.555  -1.067  -5.763  0.00  0.00    +0.041 A 
ATOM     29  C   UNL     1       3.199  -0.653  -4.609  0.00  0.00    +0.022 A 
ATOM     30  C   UNL     1       2.463  -0.293  -3.498  0.00  0.00    +0.025 A 
ATOM     31 CL   UNL     1       3.482  -1.512  -7.161  0.00  0.00    -0.084 Cl
ENDBRANCH  23  25
ENDBRANCH  20  21
ENDBRANCH   1  20
TORSDOF 4
