REMARK  Name = ZINC20704362
REMARK  6 active torsions:
REMARK  status: ('A' for Active; 'I' for Inactive)
REMARK    1  A    between atoms: C_4  and  C_7
REMARK    2  A    between atoms: C_7  and  N_8
REMARK    3  A    between atoms: N_8  and  S_9
REMARK    4  A    between atoms: S_9  and  C_12
REMARK    5  A    between atoms: C_25  and  C_28
REMARK    6  A    between atoms: C_32  and  N_34
REMARK                            x       y       z     vdW  Elec       q    Type
REMARK                         _______ _______ _______ _____ _____    ______ ____
ROOT
ATOM      1  C   UNL     1       2.725   4.094   0.255  0.00  0.00    +0.106 A 
ATOM      2  C   UNL     1       3.860   3.343   0.004  0.00  0.00    +0.030 A 
ATOM      3  C   UNL     1       3.742   1.992  -0.250  0.00  0.00    +0.025 A 
ATOM      4  C   UNL     1       2.489   1.391  -0.253  0.00  0.00    +0.031 A 
ATOM      5  C   UNL     1       1.350   2.140   0.001  0.00  0.00    -0.018 A 
ATOM      6  C   UNL     1       1.481   3.499   0.253  0.00  0.00    +0.034 A 
ATOM      7  C   UNL     1      -0.019   1.537   0.011  0.00  0.00    +0.049 C 
ATOM      8  C   UNL     1      -0.792   1.905  -1.233  0.00  0.00    -0.023 C 
ATOM      9  C   UNL     1      -1.541   0.900  -1.616  0.00  0.00    -0.030 C 
ATOM     10  C   UNL     1      -1.373  -0.277  -0.675  0.00  0.00    +0.033 C 
ATOM     11  C   UNL     1       0.002  -0.004   0.002  0.00  0.00    +0.029 C 
ATOM     12  C   UNL     1       1.089  -0.508  -0.952  0.00  0.00    +0.105 C 
ATOM     13  N   UNL     1       2.385   0.021  -0.516  0.00  0.00    -0.336 N 
ATOM     14  H   UNL     1       3.245  -0.655  -0.403  0.00  0.00    +0.147 HD
ENDROOT
BRANCH  12  15
ATOM     15  C   UNL     1       0.793  -0.030  -2.350  0.00  0.00    -0.025 A 
ATOM     16  C   UNL     1       1.116   1.262  -2.722  0.00  0.00    +0.007 A 
ATOM     17  C   UNL     1       0.846   1.701  -4.004  0.00  0.00    +0.022 A 
ATOM     18  C   UNL     1       0.252   0.847  -4.916  0.00  0.00    +0.071 A 
ATOM     19  C   UNL     1      -0.071  -0.446  -4.544  0.00  0.00    +0.145 A 
ATOM     20  C   UNL     1       0.205  -0.885  -3.263  0.00  0.00    +0.039 A 
ATOM     21 CL   UNL     1      -0.087   1.397  -6.527  0.00  0.00    -0.081 Cl
BRANCH  19  22
ATOM     22  N   UNL     1      -0.706  -1.360  -5.520  0.00  0.00    +0.058 N 
ATOM     23  O   UNL     1      -0.990  -2.498  -5.192  0.00  0.00    -0.126 OA
ATOM     24  O   UNL     1      -0.944  -0.974  -6.650  0.00  0.00    -0.126 OA
ENDBRANCH  19  22
ENDBRANCH  12  15
BRANCH   1  25
ATOM     25  S   UNL     1       2.871   5.820   0.578  0.00  0.00    +0.059 S 
ATOM     26  O   UNL     1       4.091   6.243  -0.016  0.00  0.00    -0.153 OA
ATOM     27  O   UNL     1       1.619   6.403   0.243  0.00  0.00    -0.153 OA
BRANCH  25  28
ATOM     28  N   UNL     1       3.053   5.999   2.214  0.00  0.00    -0.186 NA
ATOM     29  H   UNL     1       2.206   6.363   2.813  0.00  0.00    +0.148 HD
BRANCH  28  30
ATOM     30  C   UNL     1       4.248   5.472   2.879  0.00  0.00    +0.141 C 
BRANCH  30  34
ATOM     31  C   UNL     1       4.560   7.160   6.791  0.00  0.00    +0.000 A 
ATOM     32  C   UNL     1       3.863   5.981   6.600  0.00  0.00    +0.000 A 
ATOM     33  C   UNL     1       3.762   5.435   5.335  0.00  0.00    +0.005 A 
ATOM     34  C   UNL     1       4.358   6.067   4.259  0.00  0.00    -0.032 A 
ATOM     35  C   UNL     1       5.059   7.243   4.451  0.00  0.00    +0.005 A 
ATOM     36  C   UNL     1       5.156   7.792   5.716  0.00  0.00    +0.000 A 
ENDBRANCH  30  34
ENDBRANCH  28  30
ENDBRANCH  25  28
ENDBRANCH   1  25
TORSDOF 6
