REMARK  Name = ZINC01372524
REMARK  10 active torsions:
REMARK  status: ('A' for Active; 'I' for Inactive)
REMARK    1  A    between atoms: C_1  and  C_2
REMARK    2  A    between atoms: C_7  and  C_8
REMARK    3  A    between atoms: C_8  and  C_10
REMARK    4  A    between atoms: C_8  and  N_20
REMARK    5  A    between atoms: N_12  and  C_13
REMARK    6  A    between atoms: C_13  and  C_14
REMARK    7  A    between atoms: N_20  and  C_21
REMARK    8  A    between atoms: C_21  and  C_22
REMARK    9  A    between atoms: C_27  and  C_29
REMARK   10  A    between atoms: C_29  and  N_30
REMARK                            x       y       z     vdW  Elec       q    Type
REMARK                         _______ _______ _______ _____ _____    ______ ____
ROOT
ATOM      1  C   UNL     1      -5.670   3.497  -3.382  0.00  0.00    +0.193 C 
ENDROOT
BRANCH   1   8
ATOM      2  C   UNL     1      -5.253   6.343  -3.653  0.00  0.00    +0.044 C 
ATOM      3  C   UNL     1      -6.629   5.809  -3.351  0.00  0.00    -0.045 A 
ATOM      4  C   UNL     1      -7.692   6.680  -3.204  0.00  0.00    +0.004 A 
ATOM      5  C   UNL     1      -8.955   6.190  -2.928  0.00  0.00    +0.000 A 
ATOM      6  C   UNL     1      -9.155   4.828  -2.799  0.00  0.00    +0.000 A 
ATOM      7  C   UNL     1      -8.093   3.957  -2.950  0.00  0.00    +0.006 A 
ATOM      8  C   UNL     1      -6.829   4.447  -3.222  0.00  0.00    -0.015 A 
ENDBRANCH   1   8
BRANCH   1   9
ATOM      9  C   UNL     1      -6.192   2.112  -3.665  0.00  0.00    +0.238 C 
ATOM     10  O   UNL     1      -6.180   1.270  -2.792  0.00  0.00    -0.273 OA
ATOM     11  N   UNL     1      -6.672   1.809  -4.887  0.00  0.00    -0.309 N 
ATOM     12  H   UNL     1      -6.616   2.459  -5.605  0.00  0.00    +0.149 HD
BRANCH  11  13
ATOM     13  C   UNL     1      -7.279   0.498  -5.132  0.00  0.00    +0.139 C 
BRANCH  13  14
ATOM     14  C   UNL     1      -7.732   0.414  -6.567  0.00  0.00    -0.030 A 
ATOM     15  C   UNL     1      -9.011   0.807  -6.912  0.00  0.00    +0.005 A 
ATOM     16  C   UNL     1      -9.425   0.735  -8.229  0.00  0.00    +0.000 A 
ATOM     17  C   UNL     1      -8.563   0.259  -9.199  0.00  0.00    +0.000 A 
ATOM     18  C   UNL     1      -7.285  -0.140  -8.853  0.00  0.00    +0.000 A 
ATOM     19  C   UNL     1      -6.870  -0.062  -7.537  0.00  0.00    +0.005 A 
ENDBRANCH  13  14
ENDBRANCH  11  13
ENDBRANCH   1   9
BRANCH   1  20
ATOM     20  N   UNL     1      -4.879   3.479  -2.150  0.00  0.00    -0.280 N 
ATOM     21  C   UNL     1      -5.478   3.232  -0.968  0.00  0.00    +0.238 C 
ATOM     22  O   UNL     1      -6.673   3.026  -0.925  0.00  0.00    -0.274 OA
BRANCH  20  23
ATOM     23  C   UNL     1      -3.436   3.728  -2.201  0.00  0.00    +0.151 C 
BRANCH  23  24
ATOM     24  C   UNL     1      -2.702   2.415  -2.283  0.00  0.00    +0.007 A 
ATOM     25  C   UNL     1      -2.340   1.706  -3.380  0.00  0.00    +0.013 A 
ATOM     26  C   UNL     1      -1.663   0.512  -3.213  0.00  0.00    +0.008 A 
ATOM     27  C   UNL     1      -1.383   0.085  -1.958  0.00  0.00    +0.045 A 
ATOM     28  S   UNL     1      -2.077   1.392  -0.960  0.00  0.00    -0.100 S 
ENDBRANCH  23  24
ENDBRANCH  20  23
BRANCH  21  29
ATOM     29  C   UNL     1      -4.665   3.213   0.300  0.00  0.00    +0.241 C 
BRANCH  29  30
ATOM     30  N   UNL     1      -5.541   2.926   1.439  0.00  0.00    -0.235 N 
ATOM     31  C   UNL     1      -6.214   3.842   2.211  0.00  0.00    +0.090 A 
ATOM     32  C   UNL     1      -6.311   5.230   2.200  0.00  0.00    +0.029 A 
ATOM     33  C   UNL     1      -7.083   5.864   3.132  0.00  0.00    +0.002 A 
ATOM     34  C   UNL     1      -7.782   5.135   4.085  0.00  0.00    +0.002 A 
ATOM     35  C   UNL     1      -7.708   3.773   4.114  0.00  0.00    +0.032 A 
ATOM     36  C   UNL     1      -6.919   3.099   3.173  0.00  0.00    +0.113 A 
ATOM     37  N   UNL     1      -6.655   1.795   2.956  0.00  0.00    -0.129 NA
ATOM     38  N   UNL     1      -5.858   1.661   1.955  0.00  0.00    -0.064 NA
ENDBRANCH  29  30
ENDBRANCH  21  29
ENDBRANCH   1  20
TORSDOF 9
