REMARK  Name = ZINC20706582
REMARK  4 active torsions:
REMARK  status: ('A' for Active; 'I' for Inactive)
REMARK    1  A    between atoms: C_4  and  C_7
REMARK    2  A    between atoms: N_9  and  C_10
REMARK    3  A    between atoms: C_23  and  C_26
REMARK    4  A    between atoms: C_28  and  N_33
REMARK                            x       y       z     vdW  Elec       q    Type
REMARK                         _______ _______ _______ _____ _____    ______ ____
ROOT
ATOM      1  C   UNL     1       2.338   1.175   0.079  0.00  0.00    +0.034 A 
ATOM      2  C   UNL     1       2.311  -0.214   0.070  0.00  0.00    +0.025 A 
ATOM      3  C   UNL     1       3.488  -0.929   0.135  0.00  0.00    +0.025 A 
ATOM      4  C   UNL     1       4.709  -0.270   0.219  0.00  0.00    +0.031 A 
ATOM      5  C   UNL     1       4.731   1.129   0.243  0.00  0.00    -0.018 A 
ATOM      6  C   UNL     1       3.553   1.840   0.171  0.00  0.00    +0.029 A 
ATOM      7  C   UNL     1       6.050   1.789   0.361  0.00  0.00    +0.049 C 
ATOM      8  C   UNL     1       6.289   3.161  -0.156  0.00  0.00    -0.023 C 
ATOM      9  C   UNL     1       7.554   3.252  -0.546  0.00  0.00    -0.030 C 
ATOM     10  C   UNL     1       8.262   1.911  -0.346  0.00  0.00    +0.033 C 
ATOM     11  C   UNL     1       7.086   0.928  -0.421  0.00  0.00    +0.029 C 
ATOM     12  C   UNL     1       7.213  -0.365   0.365  0.00  0.00    +0.106 C 
ATOM     13  N   UNL     1       5.891  -1.022   0.266  0.00  0.00    -0.336 N 
ATOM     14  H   UNL     1       5.824  -2.120   0.228  0.00  0.00    +0.147 HD
ENDROOT
BRANCH  12  15
ATOM     15  C   UNL     1       7.541  -0.069   1.805  0.00  0.00    -0.007 A 
ATOM     16  C   UNL     1       6.542  -0.090   2.760  0.00  0.00    +0.039 A 
ATOM     17  C   UNL     1       6.844   0.177   4.082  0.00  0.00    +0.127 A 
ATOM     18  C   UNL     1       8.143   0.476   4.449  0.00  0.00    +0.034 A 
ATOM     19  C   UNL     1       9.142   0.502   3.494  0.00  0.00    +0.022 A 
ATOM     20  C   UNL     1       8.841   0.230   2.171  0.00  0.00    +0.046 A 
ATOM     21 CL   UNL     1      10.095   0.263   0.972  0.00  0.00    -0.083 Cl
BRANCH  17  22
ATOM     22  N   UNL     1       5.774   0.149   5.105  0.00  0.00    +0.056 N 
ATOM     23  O   UNL     1       6.039   0.389   6.270  0.00  0.00    -0.126 OA
ATOM     24  O   UNL     1       4.630  -0.114   4.783  0.00  0.00    -0.126 OA
ENDBRANCH  17  22
ENDBRANCH  12  15
BRANCH   1  27
ATOM     25  C   UNL     1       0.108   1.421  -0.715  0.00  0.00    +0.248 C 
ATOM     26  O   UNL     1       0.241   0.407  -1.372  0.00  0.00    -0.270 OA
ATOM     27  N   UNL     1       1.143   1.901   0.001  0.00  0.00    -0.281 N 
ATOM     28  H   UNL     1       1.050   2.864   0.525  0.00  0.00    +0.155 HD
BRANCH  25  32
ATOM     29  C   UNL     1      -3.618   3.461  -0.692  0.00  0.00    +0.000 A 
ATOM     30  C   UNL     1      -3.469   2.307  -1.441  0.00  0.00    +0.001 A 
ATOM     31  C   UNL     1      -2.261   1.639  -1.453  0.00  0.00    +0.013 A 
ATOM     32  C   UNL     1      -1.189   2.131  -0.707  0.00  0.00    +0.037 A 
ATOM     33  C   UNL     1      -1.347   3.293   0.050  0.00  0.00    +0.013 A 
ATOM     34  C   UNL     1      -2.558   3.953   0.049  0.00  0.00    +0.001 A 
ENDBRANCH  25  32
ENDBRANCH   1  27
TORSDOF 4
