REMARK  Name = ZINC18339506
REMARK  6 active torsions:
REMARK  status: ('A' for Active; 'I' for Inactive)
REMARK    1  A    between atoms: C_1  and  C_2
REMARK    2  A    between atoms: C_2  and  C_4
REMARK    3  A    between atoms: C_2  and  S_20
REMARK    4  A    between atoms: C_10  and  C_15
REMARK    5  A    between atoms: S_20  and  C_21
REMARK    6  A    between atoms: N_26  and  C_27
REMARK                            x       y       z     vdW  Elec       q    Type
REMARK                         _______ _______ _______ _____ _____    ______ ____
ROOT
ATOM      1  C   UNL     1       5.077   4.474   0.101  0.00  0.00    +0.124 A 
ATOM      2  N   UNL     1       6.190   3.820  -0.320  0.00  0.00    -0.309 N 
ATOM      3  H   UNL     1       6.105   2.927  -0.690  0.00  0.00    +0.170 HD
ATOM      4  C   UNL     1       7.407   4.388  -0.241  0.00  0.00    +0.260 A 
ATOM      5  O   UNL     1       8.396   3.789  -0.628  0.00  0.00    -0.267 OA
ATOM      6  C   UNL     1       7.524   5.703   0.311  0.00  0.00    +0.083 A 
ATOM      7  C   UNL     1       8.718   6.519   0.506  0.00  0.00    +0.039 A 
ATOM      8  C   UNL     1       8.580   7.753   1.056  0.00  0.00    +0.059 A 
ATOM      9  S   UNL     1       6.826   7.884   1.341  0.00  0.00    -0.076 S 
ATOM     10  C   UNL     1       6.321   6.298   0.724  0.00  0.00    +0.116 A 
ATOM     11  N   UNL     1       5.152   5.675   0.608  0.00  0.00    -0.225 NA
ENDROOT
BRANCH   7  12
ATOM     12  C   UNL     1      10.049   6.013   0.114  0.00  0.00    +0.136 A 
ATOM     13  C   UNL     1      10.960   6.673  -0.650  0.00  0.00    +0.050 A 
ATOM     14  C   UNL     1      12.080   5.824  -0.769  0.00  0.00    +0.042 A 
ATOM     15  C   UNL     1      11.797   4.699  -0.086  0.00  0.00    +0.196 A 
ATOM     16  O   UNL     1      10.569   4.816   0.447  0.00  0.00    -0.463 OA
ENDBRANCH   7  12
BRANCH   1  18
ATOM     17  C   UNL     1       3.053   4.238  -1.312  0.00  0.00    +0.027 C 
ATOM     18  C   UNL     1       3.734   3.800  -0.013  0.00  0.00    +0.116 C 
BRANCH  18  19
ATOM     19  S   UNL     1       3.959   2.000  -0.025  0.00  0.00    -0.086 S 
BRANCH  19  20
ATOM     20  C   UNL     1       2.316   1.365  -0.013  0.00  0.00    +0.161 A 
ATOM     21  N   UNL     1       1.168   2.015   0.002  0.00  0.00    -0.133 NA
ATOM     22  N   UNL     1      -0.016   1.314   0.009  0.00  0.00    -0.125 NA
ATOM     23  C   UNL     1       0.002  -0.004   0.002  0.00  0.00    +0.183 A 
ATOM     24  S   UNL     1       1.758  -0.332  -0.017  0.00  0.00    -0.025 S 
ATOM     25  N   UNL     1      -1.061  -0.899   0.008  0.00  0.00    -0.319 N 
ATOM     26  H   UNL     1      -0.891  -1.854   0.002  0.00  0.00    +0.148 HD
BRANCH  25  27
ATOM     27  C   UNL     1      -2.439  -0.401   0.024  0.00  0.00    +0.072 C 
ATOM     28  C   UNL     1      -3.427  -1.087   0.969  0.00  0.00    +0.024 C 
ATOM     29  C   UNL     1      -3.527  -1.315  -0.541  0.00  0.00    +0.024 C 
ENDBRANCH  25  27
ENDBRANCH  19  20
ENDBRANCH  18  19
ENDBRANCH   1  18
TORSDOF 5
