REMARK  Name = ZINC23483372
REMARK  12 active torsions:
REMARK  status: ('A' for Active; 'I' for Inactive)
REMARK    1  A    between atoms: C_1  and  C_2
REMARK    2  A    between atoms: C_2  and  C_4
REMARK    3  A    between atoms: C_2  and  N_30
REMARK    4  A    between atoms: C_7  and  S_16
REMARK    5  A    between atoms: N_8  and  C_9
REMARK    6  A    between atoms: S_16  and  C_17
REMARK    7  A    between atoms: C_17  and  C_19
REMARK    8  A    between atoms: C_17  and  C_20
REMARK    9  A    between atoms: N_22  and  C_23
REMARK   10  A    between atoms: C_23  and  C_24
REMARK   11  A    between atoms: N_30  and  C_31
REMARK   12  A    between atoms: N_30  and  C_32
REMARK                            x       y       z     vdW  Elec       q    Type
REMARK                         _______ _______ _______ _____ _____    ______ ____
ROOT
ATOM      1  C   UNL     1      -3.093   1.258 -10.516  0.00  0.00    +0.125 A 
ATOM      2  N   UNL     1      -3.462   2.135  -9.626  0.00  0.00    -0.135 NA
ATOM      3  N   UNL     1      -2.786   1.980  -8.545  0.00  0.00    -0.122 NA
ATOM      4  C   UNL     1      -1.933   0.992  -8.688  0.00  0.00    +0.197 A 
ATOM      5  N   UNL     1      -2.105   0.496  -9.951  0.00  0.00    -0.275 N 
ENDROOT
BRANCH   5   6
ATOM      6  C   UNL     1      -1.412  -0.570 -10.545  0.00  0.00    +0.050 A 
ATOM      7  C   UNL     1      -0.595  -0.342 -11.643  0.00  0.00    +0.028 A 
ATOM      8  C   UNL     1       0.090  -1.393 -12.223  0.00  0.00    +0.022 A 
ATOM      9  C   UNL     1      -0.048  -2.673 -11.716  0.00  0.00    +0.041 A 
ATOM     10  C   UNL     1      -0.866  -2.903 -10.624  0.00  0.00    +0.022 A 
ATOM     11  C   UNL     1      -1.548  -1.855 -10.038  0.00  0.00    +0.028 A 
ATOM     12 CL   UNL     1       0.809  -3.993 -12.450  0.00  0.00    -0.084 Cl
ENDBRANCH   5   6
BRANCH   1  14
ATOM     13  C   UNL     1      -5.031   0.453 -11.838  0.00  0.00    -0.005 C 
ATOM     14  C   UNL     1      -3.651   1.108 -11.908  0.00  0.00    -0.003 C 
BRANCH  14  15
ATOM     15  N   UNL     1      -3.769   2.433 -12.533  0.00  0.00    +0.382 N 
ATOM     16  C   UNL     1      -2.477   3.132 -12.533  0.00  0.00    -0.096 C 
ATOM     17  C   UNL     1      -4.310   2.326 -13.894  0.00  0.00    -0.096 C 
ATOM     18  H   UNL     1      -4.475   3.027 -11.934  0.00  0.00    -0.082 HD
ENDBRANCH  14  15
ENDBRANCH   1  14
BRANCH   4  19
ATOM     19  S   UNL     1      -0.790   0.411  -7.480  0.00  0.00    -0.073 S 
BRANCH  19  20
ATOM     20  C   UNL     1      -1.163   1.547  -6.121  0.00  0.00    +0.137 C 
ATOM     21  C   UNL     1      -0.793   2.973  -6.532  0.00  0.00    +0.029 C 
BRANCH  20  22
ATOM     22  C   UNL     1      -0.368   1.152  -4.904  0.00  0.00    +0.226 C 
ATOM     23  O   UNL     1       0.669   0.537  -5.030  0.00  0.00    -0.275 OA
ATOM     24  N   UNL     1      -0.810   1.483  -3.674  0.00  0.00    -0.314 N 
ATOM     25  H   UNL     1      -1.751   2.041  -3.559  0.00  0.00    +0.149 HD
BRANCH  24  26
ATOM     26  C   UNL     1      -0.037   1.099  -2.490  0.00  0.00    +0.107 C 
BRANCH  26  27
ATOM     27  C   UNL     1      -0.753   1.593  -1.232  0.00  0.00    +0.006 C 
ATOM     28  C   UNL     1      -0.013   1.086   0.008  0.00  0.00    +0.005 C 
ATOM     29  C   UNL     1      -0.729   1.579   1.267  0.00  0.00    +0.000 C 
ATOM     30  C   UNL     1      -0.750   3.109   1.275  0.00  0.00    +0.000 C 
ATOM     31  C   UNL     1      -1.490   3.616   0.036  0.00  0.00    +0.000 C 
ATOM     32  C   UNL     1      -0.773   3.123  -1.223  0.00  0.00    +0.005 C 
ENDBRANCH  26  27
ENDBRANCH  24  26
ENDBRANCH  20  22
ENDBRANCH  19  20
ENDBRANCH   4  19
TORSDOF 8
