REMARK  Name = ZINC21553251
REMARK  3 active torsions:
REMARK  status: ('A' for Active; 'I' for Inactive)
REMARK    1  A    between atoms: C_8  and  N_16
REMARK    2  A    between atoms: C_9  and  N_11
REMARK    3  A    between atoms: C_17  and  C_19
REMARK                            x       y       z     vdW  Elec       q    Type
REMARK                         _______ _______ _______ _____ _____    ______ ____
ROOT
ATOM      1  C   UNL     1      -0.090   1.301   0.014  0.00  0.00    +0.002 A 
ATOM      2  C   UNL     1       1.070   2.072   0.001  0.00  0.00    +0.002 A 
ATOM      3  C   UNL     1       2.299   1.487  -0.025  0.00  0.00    +0.030 A 
ATOM      4  C   UNL     1       2.404   0.086  -0.038  0.00  0.00    +0.091 A 
ATOM      5  C   UNL     1       1.225  -0.698  -0.025  0.00  0.00    +0.091 A 
ATOM      6  C   UNL     1      -0.025  -0.059   0.002  0.00  0.00    +0.030 A 
ATOM      7  N   UNL     1       1.315  -2.035  -0.037  0.00  0.00    -0.227 NA
ATOM      8  C   UNL     1       2.498  -2.611  -0.061  0.00  0.00    +0.166 A 
ATOM      9  C   UNL     1       3.676  -1.829  -0.074  0.00  0.00    +0.162 A 
ATOM     10  N   UNL     1       3.603  -0.514  -0.063  0.00  0.00    -0.227 NA
ENDROOT
BRANCH   9  11
ATOM     11  N   UNL     1       4.915  -2.450  -0.099  0.00  0.00    -0.312 N 
ATOM     12  C   UNL     1       5.652  -2.939   1.076  0.00  0.00    +0.106 C 
ATOM     13  C   UNL     1       6.985  -3.529   0.568  0.00  0.00    +0.020 C 
ATOM     14  C   UNL     1       7.174  -2.829  -0.804  0.00  0.00    +0.020 C 
ATOM     15  C   UNL     1       5.710  -2.735  -1.308  0.00  0.00    +0.106 C 
ENDBRANCH   9  11
BRANCH   8  16
ATOM     16  N   UNL     1       2.590  -4.000  -0.074  0.00  0.00    -0.267 N 
ATOM     17  C   UNL     1       1.477  -4.750   0.051  0.00  0.00    +0.222 C 
ATOM     18  O   UNL     1       0.396  -4.215   0.175  0.00  0.00    -0.275 OA
ATOM     19  H   UNL     1       3.455  -4.427  -0.172  0.00  0.00    +0.156 HD
BRANCH  17  20
ATOM     20  C   UNL     1       1.577  -6.254   0.038  0.00  0.00    +0.079 C 
ATOM     21  C   UNL     1       0.312  -6.884   0.663  0.00  0.00    +0.016 C 
ATOM     22  C   UNL     1      -0.313  -7.735  -0.484  0.00  0.00    -0.010 C 
ATOM     23  C   UNL     1      -0.875  -6.684  -1.488  0.00  0.00    +0.004 C 
ATOM     24  C   UNL     1       0.378  -6.037  -2.120  0.00  0.00    +0.004 C 
ATOM     25  C   UNL     1       1.601  -6.784  -1.429  0.00  0.00    +0.001 C 
ATOM     26  C   UNL     1       0.983  -8.214  -1.229  0.00  0.00    +0.008 C 
ENDBRANCH  17  20
ENDBRANCH   8  16
TORSDOF 3
