REMARK  Name = ZINC64966127
REMARK  12 active torsions:
REMARK  status: ('A' for Active; 'I' for Inactive)
REMARK    1  A    between atoms: C_1  and  C_2
REMARK    2  A    between atoms: C_2  and  O_3
REMARK    3  A    between atoms: O_3  and  C_4
REMARK    4  A    between atoms: C_4  and  C_6
REMARK    5  A    between atoms: C_6  and  N_7
REMARK    6  A    between atoms: C_9  and  C_33
REMARK    7  A    between atoms: C_11  and  C_25
REMARK    8  A    between atoms: N_14  and  C_17
REMARK    9  A    between atoms: C_20  and  C_24
REMARK   10  A    between atoms: C_21  and  C_23
REMARK   11  A    between atoms: C_28  and  S_31
REMARK   12  A    between atoms: S_31  and  C_32
REMARK                            x       y       z     vdW  Elec       q    Type
REMARK                         _______ _______ _______ _____ _____    ______ ____
ROOT
ATOM      1  N   UNL     1      -2.606  -3.879  -0.015  0.00  0.00    -0.278 N 
ATOM      2  C   UNL     1      -2.749  -4.692  -1.125  0.00  0.00    +0.121 A 
ATOM      3  C   UNL     1      -2.976  -4.465  -2.482  0.00  0.00    +0.155 A 
ATOM      4  N   UNL     1      -3.062  -5.515  -3.300  0.00  0.00    -0.220 NA
ATOM      5  C   UNL     1      -2.937  -6.750  -2.837  0.00  0.00    +0.163 A 
ATOM      6  N   UNL     1      -2.721  -7.005  -1.551  0.00  0.00    -0.208 NA
ATOM      7  C   UNL     1      -2.623  -6.020  -0.676  0.00  0.00    +0.170 A 
ATOM      8  N   UNL     1      -2.407  -5.957   0.689  0.00  0.00    -0.245 N 
ATOM      9  C   UNL     1      -2.397  -4.663   1.061  0.00  0.00    +0.336 A 
ATOM     10  O   UNL     1      -2.226  -4.262   2.196  0.00  0.00    -0.246 OA
ENDROOT
BRANCH   8  11
ATOM     11  C   UNL     1      -2.226  -7.055   1.541  0.00  0.00    +0.053 A 
ATOM     12  C   UNL     1      -2.248  -8.345   1.028  0.00  0.00    +0.026 A 
ATOM     13  C   UNL     1      -2.068  -9.425   1.869  0.00  0.00    +0.005 A 
ATOM     14  C   UNL     1      -1.866  -9.223   3.222  0.00  0.00    -0.047 A 
ATOM     15  C   UNL     1      -1.844  -7.940   3.737  0.00  0.00    -0.046 A 
ATOM     16  C   UNL     1      -2.017  -6.855   2.899  0.00  0.00    +0.030 A 
ATOM     17  C   UNL     1      -1.624  -7.724   5.212  0.00  0.00    +0.044 C 
ATOM     18  C   UNL     1      -1.670 -10.404   4.138  0.00  0.00    +0.044 C 
ENDBRANCH   8  11
BRANCH   5  19
ATOM     19  C   UNL     1      -3.042  -7.884  -3.785  0.00  0.00    +0.019 A 
ATOM     20  C   UNL     1      -2.920  -9.194  -3.322  0.00  0.00    +0.012 A 
ATOM     21  C   UNL     1      -3.018 -10.247  -4.205  0.00  0.00    +0.015 A 
ATOM     22  C   UNL     1      -3.238 -10.004  -5.557  0.00  0.00    +0.008 A 
ATOM     23  C   UNL     1      -3.360  -8.698  -6.021  0.00  0.00    +0.015 A 
ATOM     24  C   UNL     1      -3.269  -7.643  -5.140  0.00  0.00    +0.012 A 
BRANCH  22  25
ATOM     25  S   UNL     1      -3.363 -11.353  -6.684  0.00  0.00    -0.129 S 
ATOM     26  C   UNL     1      -3.644 -10.558  -8.291  0.00  0.00    +0.090 C 
ENDBRANCH  22  25
ENDBRANCH   5  19
BRANCH   3  27
ATOM     27  C   UNL     1      -3.117  -3.086  -3.005  0.00  0.00    +0.262 C 
ATOM     28  O   UNL     1      -2.134  -2.386  -3.145  0.00  0.00    -0.269 OA
ATOM     29  N   UNL     1      -4.336  -2.609  -3.327  0.00  0.00    -0.324 N 
ATOM     30  H   UNL     1      -5.120  -3.168  -3.215  0.00  0.00    +0.145 HD
ATOM     31  H   UNL     1      -4.428  -1.706  -3.669  0.00  0.00    +0.145 HD
ENDBRANCH   3  27
BRANCH   1  32
ATOM     32  C   UNL     1      -2.666  -2.415  -0.011  0.00  0.00    +0.247 C 
BRANCH  32  33
ATOM     33  C   UNL     1      -1.278  -1.855  -0.188  0.00  0.00    +0.327 C 
ATOM     34  O   UNL     1      -0.335  -2.603  -0.306  0.00  0.00    -0.249 OA
BRANCH  33  35
ATOM     35  O   UNL     1      -1.088  -0.527  -0.215  0.00  0.00    -0.464 OA
BRANCH  35  37
ATOM     36  C   UNL     1       0.271   1.464  -0.393  0.00  0.00    +0.048 C 
ATOM     37  C   UNL     1       0.254  -0.066  -0.387  0.00  0.00    +0.229 C 
ENDBRANCH  35  37
ENDBRANCH  33  35
ENDBRANCH  32  33
ENDBRANCH   1  32
TORSDOF 8
