REMARK  Name = ZINC37427599
REMARK  14 active torsions:
REMARK  status: ('A' for Active; 'I' for Inactive)
REMARK    1  A    between atoms: C_1  and  C_2
REMARK    2  A    between atoms: C_2  and  C_3
REMARK    3  A    between atoms: C_3  and  C_5
REMARK    4  A    between atoms: C_3  and  N_6
REMARK    5  A    between atoms: C_7  and  C_9
REMARK    6  A    between atoms: C_9  and  N_10
REMARK    7  A    between atoms: C_13  and  C_17
REMARK    8  A    between atoms: N_15  and  C_16
REMARK    9  A    between atoms: C_17  and  C_18
REMARK   10  A    between atoms: C_17  and  C_19
REMARK   11  A    between atoms: C_17  and  C_20
REMARK   12  A    between atoms: C_21  and  C_27
REMARK   13  A    between atoms: C_32  and  O_33
REMARK   14  A    between atoms: O_33  and  C_34
REMARK                            x       y       z     vdW  Elec       q    Type
REMARK                         _______ _______ _______ _____ _____    ______ ____
ROOT
ATOM      1  N   UNL     1      -4.007   4.307   1.972  0.00  0.00    -0.246 N 
ATOM      2  C   UNL     1      -5.383   4.311   1.699  0.00  0.00    +0.131 A 
ATOM      3  C   UNL     1      -6.338   4.109   2.636  0.00  0.00    +0.033 A 
ATOM      4  C   UNL     1      -7.580   4.175   2.004  0.00  0.00    +0.075 A 
ATOM      5  N   UNL     1      -7.376   4.412   0.731  0.00  0.00    -0.174 NA
ATOM      6  N   UNL     1      -5.992   4.504   0.514  0.00  0.00    -0.253 N 
ATOM      7  C   UNL     1      -5.331   4.763  -0.768  0.00  0.00    +0.174 C 
ATOM      8  C   UNL     1      -6.070   3.865   4.099  0.00  0.00    +0.115 C 
ATOM      9  S   UNL     1      -5.414   2.169   4.298  0.00  0.00    -0.138 S 
ATOM     10  C   UNL     1      -4.285   2.034   2.871  0.00  0.00    +0.166 C 
ATOM     11  C   UNL     1      -3.502   3.296   2.687  0.00  0.00    +0.231 C 
ATOM     12  O   UNL     1      -2.405   3.403   3.193  0.00  0.00    -0.274 OA
ENDROOT
BRANCH   8  13
ATOM     13  C   UNL     1      -7.351   4.011   4.880  0.00  0.00    +0.012 A 
ATOM     14  C   UNL     1      -8.096   2.893   5.201  0.00  0.00    +0.008 A 
ATOM     15  C   UNL     1      -9.271   3.026   5.916  0.00  0.00    +0.001 A 
ATOM     16  C   UNL     1      -9.704   4.278   6.313  0.00  0.00    +0.004 A 
ATOM     17  C   UNL     1      -8.962   5.399   5.995  0.00  0.00    +0.046 A 
ATOM     18  C   UNL     1      -7.779   5.268   5.282  0.00  0.00    +0.125 A 
BRANCH  18  19
ATOM     19  O   UNL     1      -7.045   6.369   4.972  0.00  0.00    -0.495 OA
ATOM     20  C   UNL     1      -7.547   7.630   5.418  0.00  0.00    +0.277 C 
ENDBRANCH  18  19
ENDBRANCH   8  13
BRANCH   4  21
ATOM     21  C   UNL     1      -8.922   4.003   2.668  0.00  0.00    +0.007 C 
ATOM     22  C   UNL     1      -9.143   5.137   3.671  0.00  0.00    +0.017 C 
ATOM     23  C   UNL     1     -10.024   4.037   1.608  0.00  0.00    +0.017 C 
ATOM     24  C   UNL     1      -8.960   2.660   3.401  0.00  0.00    +0.017 C 
ENDBRANCH   4  21
BRANCH   1  25
ATOM     25  C   UNL     1      -3.142   5.382   1.481  0.00  0.00    +0.210 C 
BRANCH  25  27
ATOM     26  N   UNL     1      -2.192   7.500   2.337  0.00  0.00    -0.311 N 
ATOM     27  C   UNL     1      -2.955   6.412   2.565  0.00  0.00    +0.231 C 
ATOM     28  O   UNL     1      -3.492   6.263   3.642  0.00  0.00    -0.274 OA
ATOM     29  H   UNL     1      -1.763   7.619   1.475  0.00  0.00    +0.149 HD
BRANCH  26  30
ATOM     30  C   UNL     1      -2.011   8.501   3.391  0.00  0.00    +0.070 C 
ATOM     31  C   UNL     1      -3.175   9.493   3.358  0.00  0.00    +0.028 C 
BRANCH  30  33
ATOM     32  C   UNL     1       0.477   8.280   3.318  0.00  0.00    +0.005 C 
ATOM     33  C   UNL     1      -0.696   9.250   3.162  0.00  0.00    +0.018 C 
ENDBRANCH  30  33
ENDBRANCH  26  30
ENDBRANCH  25  27
ENDBRANCH   1  25
TORSDOF 7
