REMARK  Name = ZINC08726007
REMARK  5 active torsions:
REMARK  status: ('A' for Active; 'I' for Inactive)
REMARK    1  A    between atoms: C_10  and  C_11
REMARK    2  A    between atoms: C_11  and  N_61
REMARK    3  A    between atoms: C_17  and  C_19
REMARK    4  A    between atoms: C_19  and  N_20
REMARK    5  A    between atoms: C_22  and  C_31
REMARK                            x       y       z     vdW  Elec       q    Type
REMARK                         _______ _______ _______ _____ _____    ______ ____
ROOT
ATOM      1  C   UNL     1      -0.923   5.493  -1.756  0.00  0.00    -0.059 C 
ATOM      2  C   UNL     1      -0.593   5.830  -3.214  0.00  0.00    +0.089 C 
ATOM      3  N   UNL     1      -0.871   7.256  -3.438  0.00  0.00    -0.304 N 
ATOM      4  C   UNL     1      -2.186   7.780  -3.038  0.00  0.00    +0.089 C 
ATOM      5  C   UNL     1      -2.454   7.367  -1.587  0.00  0.00    -0.059 C 
ATOM      6  C   UNL     1       0.054   8.062  -3.997  0.00  0.00    +0.233 C 
ATOM      7  O   UNL     1      -0.193   9.236  -4.175  0.00  0.00    -0.274 OA
ATOM      8  N   UNL     1      -2.319   5.898  -1.479  0.00  0.00    +0.384 N 
ATOM      9  H   UNL     1      -2.937   5.455  -2.170  0.00  0.00    -0.081 HD
ENDROOT
BRANCH   8  10
ATOM     10  C   UNL     1      -2.714   5.453  -0.127  0.00  0.00    -0.042 C 
BRANCH  10  20
ATOM     11  C   UNL     1      -6.288   2.287  -1.974  0.00  0.00    +0.001 A 
ATOM     12  C   UNL     1      -6.114   3.670  -1.962  0.00  0.00    +0.001 A 
ATOM     13  C   UNL     1      -5.025   4.235  -1.373  0.00  0.00    +0.009 A 
ATOM     14  C   UNL     1      -4.058   3.414  -0.768  0.00  0.00    -0.017 A 
ATOM     15  C   UNL     1      -4.237   2.008  -0.776  0.00  0.00    -0.018 A 
ATOM     16  C   UNL     1      -5.373   1.461  -1.398  0.00  0.00    +0.008 A 
ATOM     17  C   UNL     1      -3.267   1.187  -0.176  0.00  0.00    +0.008 A 
ATOM     18  C   UNL     1      -2.177   1.751   0.412  0.00  0.00    +0.001 A 
ATOM     19  C   UNL     1      -2.004   3.134   0.425  0.00  0.00    +0.002 A 
ATOM     20  C   UNL     1      -2.920   3.960  -0.151  0.00  0.00    -0.056 A 
ENDBRANCH  10  20
ENDBRANCH   8  10
BRANCH   6  21
ATOM     21  C   UNL     1       1.394   7.504  -4.400  0.00  0.00    +0.201 C 
BRANCH  21  22
ATOM     22  N   UNL     1       2.253   8.594  -4.882  0.00  0.00    -0.314 N 
ATOM     23  C   UNL     1       2.646   9.480  -3.781  0.00  0.00    +0.160 C 
ATOM     24  C   UNL     1       3.639  10.519  -4.319  0.00  0.00    +0.275 C 
ATOM     25  O   UNL     1       4.808   9.822  -4.762  0.00  0.00    -0.476 OA
ATOM     26  C   UNL     1       4.606   8.703  -5.510  0.00  0.00    +0.143 A 
ATOM     27  C   UNL     1       3.360   8.091  -5.574  0.00  0.00    +0.073 A 
ATOM     28  C   UNL     1       3.197   6.946  -6.347  0.00  0.00    +0.027 A 
ATOM     29  C   UNL     1       4.266   6.422  -7.048  0.00  0.00    +0.002 A 
ATOM     30  C   UNL     1       5.503   7.035  -6.986  0.00  0.00    +0.004 A 
ATOM     31  C   UNL     1       5.674   8.173  -6.220  0.00  0.00    +0.047 A 
BRANCH  24  32
ATOM     32  C   UNL     1       4.006  11.488  -3.225  0.00  0.00    +0.253 C 
ATOM     33  O   UNL     1       5.146  11.533  -2.812  0.00  0.00    -0.272 OA
ATOM     34  N   UNL     1       3.068  12.305  -2.705  0.00  0.00    -0.326 N 
ATOM     35  H   UNL     1       2.157  12.268  -3.035  0.00  0.00    +0.145 HD
ATOM     36  H   UNL     1       3.305  12.928  -2.001  0.00  0.00    +0.145 HD
ENDBRANCH  24  32
ENDBRANCH  21  22
ENDBRANCH   6  21
TORSDOF 5
