REMARK  Name = ZINC00438312
REMARK  6 active torsions:
REMARK  status: ('A' for Active; 'I' for Inactive)
REMARK    1  A    between atoms: C_1  and  C_2
REMARK    2  A    between atoms: C_5  and  S_8
REMARK    3  A    between atoms: S_8  and  N_11
REMARK    4  A    between atoms: N_11  and  N_12
REMARK    5  A    between atoms: C_13  and  C_14
REMARK    6  A    between atoms: C_17  and  C_19
REMARK                            x       y       z     vdW  Elec       q    Type
REMARK                         _______ _______ _______ _____ _____    ______ ____
ROOT
ATOM      1  S   UNL     1       0.063  -4.530  -0.023  0.00  0.00    +0.086 S 
ATOM      2  O   UNL     1      -0.476  -4.950   1.223  0.00  0.00    -0.149 OA
ATOM      3  O   UNL     1      -0.490  -4.937  -1.267  0.00  0.00    -0.149 OA
ENDROOT
BRANCH   1   8
ATOM      4  C   UNL     1      -0.018   1.503   0.010  0.00  0.00    +0.044 C 
ATOM      5  C   UNL     1       0.002  -0.004   0.002  0.00  0.00    -0.050 A 
ATOM      6  C   UNL     1       0.006  -0.689  -1.199  0.00  0.00    +0.005 A 
ATOM      7  C   UNL     1       0.025  -2.071  -1.206  0.00  0.00    +0.029 A 
ATOM      8  C   UNL     1       0.040  -2.768  -0.013  0.00  0.00    +0.110 A 
ATOM      9  C   UNL     1       0.037  -2.084   1.188  0.00  0.00    +0.029 A 
ATOM     10  C   UNL     1       0.023  -0.702   1.195  0.00  0.00    +0.005 A 
ENDBRANCH   1   8
BRANCH   1  11
ATOM     11  N   UNL     1       1.651  -4.999  -0.034  0.00  0.00    -0.137 N 
ATOM     12  H   UNL     1       1.993  -5.536  -0.767  0.00  0.00    +0.197 HD
BRANCH  11  13
ATOM     13  N   UNL     1       2.500  -4.622   1.014  0.00  0.00    -0.171 NA
ATOM     14  C   UNL     1       3.747  -4.990   1.005  0.00  0.00    +0.177 C 
BRANCH  14  15
ATOM     15  C   UNL     1       4.637  -4.595   2.103  0.00  0.00    +0.148 A 
ATOM     16  C   UNL     1       5.960  -4.907   2.214  0.00  0.00    +0.051 A 
ATOM     17  C   UNL     1       6.414  -4.326   3.413  0.00  0.00    +0.045 A 
ATOM     18  C   UNL     1       5.361  -3.694   3.970  0.00  0.00    +0.103 A 
ATOM     19  O   UNL     1       4.291  -3.854   3.174  0.00  0.00    -0.459 OA
ATOM     20  C   UNL     1       5.383  -2.931   5.270  0.00  0.00    +0.086 C 
ENDBRANCH  14  15
ENDBRANCH  11  13
ENDBRANCH   1  11
TORSDOF 4
