REMARK  Name = ZINC13644192
REMARK  5 active torsions:
REMARK  status: ('A' for Active; 'I' for Inactive)
REMARK    1  A    between atoms: C_1  and  C_2
REMARK    2  A    between atoms: C_2  and  C_19
REMARK    3  A    between atoms: N_3  and  N_4
REMARK    4  A    between atoms: C_5  and  C_7
REMARK    5  A    between atoms: C_9  and  C_13
REMARK                            x       y       z     vdW  Elec       q    Type
REMARK                         _______ _______ _______ _____ _____    ______ ____
ROOT
ATOM      1  N   UNL     1      -1.057  -1.530   1.442  0.00  0.00    -0.201 N 
ATOM      2  C   UNL     1      -1.575  -1.794   2.659  0.00  0.00    +0.281 C 
ATOM      3  O   UNL     1      -1.481  -0.971   3.550  0.00  0.00    -0.267 OA
ATOM      4  H   UNL     1      -1.132  -2.186   0.731  0.00  0.00    +0.178 HD
ENDROOT
BRANCH   2   5
ATOM      5  C   UNL     1      -2.252  -3.076   2.908  0.00  0.00    +0.122 A 
ATOM      6  C   UNL     1      -2.834  -3.487   4.093  0.00  0.00    +0.062 A 
ATOM      7  C   UNL     1      -3.344  -4.772   3.829  0.00  0.00    +0.093 A 
ATOM      8  N   UNL     1      -3.064  -5.061   2.575  0.00  0.00    -0.173 NA
ATOM      9  N   UNL     1      -2.435  -4.093   2.013  0.00  0.00    -0.272 N 
ATOM     10  H   UNL     1      -2.132  -4.085   1.092  0.00  0.00    +0.189 HD
BRANCH   7  11
ATOM     11  C   UNL     1      -4.065  -5.643   4.790  0.00  0.00    +0.002 A 
ATOM     12  C   UNL     1      -4.298  -5.206   6.092  0.00  0.00    +0.010 A 
ATOM     13  C   UNL     1      -4.969  -6.020   6.981  0.00  0.00    +0.001 A 
ATOM     14  C   UNL     1      -5.411  -7.269   6.582  0.00  0.00    +0.000 A 
ATOM     15  C   UNL     1      -5.183  -7.708   5.290  0.00  0.00    +0.001 A 
ATOM     16  C   UNL     1      -4.517  -6.899   4.391  0.00  0.00    +0.010 A 
ENDBRANCH   7  11
ENDBRANCH   2   5
BRANCH   1  19
ATOM     17  C   UNL     1       0.820   1.226  -0.222  0.00  0.00    +0.068 C 
ATOM     18  C   UNL     1      -0.010  -0.011   0.007  0.00  0.00    +0.063 C 
ATOM     19  N   UNL     1      -0.412  -0.310   1.204  0.00  0.00    -0.184 NA
BRANCH  18  20
ATOM     20  C   UNL     1      -0.365  -0.881  -1.129  0.00  0.00    -0.002 A 
ATOM     21  C   UNL     1      -1.646  -1.460  -1.192  0.00  0.00    +0.010 A 
ATOM     22  C   UNL     1      -1.996  -2.264  -2.227  0.00  0.00    +0.009 A 
ATOM     23  C   UNL     1      -1.073  -2.530  -3.256  0.00  0.00    -0.018 A 
ATOM     24  C   UNL     1      -1.413  -3.360  -4.337  0.00  0.00    +0.008 A 
ATOM     25  C   UNL     1      -0.499  -3.598  -5.318  0.00  0.00    +0.001 A 
ATOM     26  C   UNL     1       0.773  -3.031  -5.268  0.00  0.00    +0.001 A 
ATOM     27  C   UNL     1       1.139  -2.222  -4.236  0.00  0.00    +0.008 A 
ATOM     28  C   UNL     1       0.221  -1.952  -3.204  0.00  0.00    -0.017 A 
ATOM     29  C   UNL     1       0.564  -1.118  -2.130  0.00  0.00    +0.018 A 
ENDBRANCH  18  20
ENDBRANCH   1  19
TORSDOF 4
