REMARK  Name = ZINC59045437
REMARK  7 active torsions:
REMARK  status: ('A' for Active; 'I' for Inactive)
REMARK    1  A    between atoms: C_4  and  O_26
REMARK    2  A    between atoms: C_5  and  C_7
REMARK    3  A    between atoms: C_10  and  S_13
REMARK    4  A    between atoms: N_11  and  N_12
REMARK    5  A    between atoms: S_13  and  C_14
REMARK    6  A    between atoms: C_14  and  C_15
REMARK    7  A    between atoms: N_17  and  C_18
REMARK                            x       y       z     vdW  Elec       q    Type
REMARK                         _______ _______ _______ _____ _____    ______ ____
ROOT
ATOM      1  C   UNL     1       1.244  -2.160  -0.082  0.00  0.00    +0.185 A 
ATOM      2  N   UNL     1       2.314  -2.921  -0.087  0.00  0.00    -0.127 NA
ATOM      3  N   UNL     1       1.972  -4.160  -0.082  0.00  0.00    -0.121 NA
ATOM      4  C   UNL     1       0.663  -4.267  -0.073  0.00  0.00    +0.209 A 
ATOM      5  N   UNL     1       0.153  -2.999  -0.067  0.00  0.00    -0.224 N 
ENDROOT
BRANCH   1  10
ATOM      6  C   UNL     1      -0.022   1.375  -0.076  0.00  0.00    +0.001 A 
ATOM      7  C   UNL     1       1.164   2.089  -0.092  0.00  0.00    +0.004 A 
ATOM      8  C   UNL     1       2.377   1.428  -0.105  0.00  0.00    +0.046 A 
ATOM      9  C   UNL     1       2.414   0.043  -0.102  0.00  0.00    +0.128 A 
ATOM     10  C   UNL     1       1.216  -0.683  -0.085  0.00  0.00    +0.062 A 
ATOM     11  C   UNL     1      -0.003  -0.004  -0.073  0.00  0.00    +0.015 A 
BRANCH   9  12
ATOM     12  O   UNL     1       3.606  -0.608  -0.114  0.00  0.00    -0.506 OA
ATOM     13  H   UNL     1       3.962  -0.794   0.765  0.00  0.00    +0.292 HD
ENDBRANCH   9  12
ENDBRANCH   1  10
BRANCH   5  14
ATOM     14  N   UNL     1      -1.164  -2.639  -0.052  0.00  0.00    -0.295 N 
ATOM     15  H   UNL     1      -1.524  -2.546  -0.990  0.00  0.00    +0.163 HD
ATOM     16  H   UNL     1      -1.713  -3.296   0.482  0.00  0.00    +0.163 HD
ENDBRANCH   5  14
BRANCH   4  17
ATOM     17  S   UNL     1      -0.264  -5.765  -0.065  0.00  0.00    -0.075 S 
BRANCH  17  18
ATOM     18  C   UNL     1       1.003  -7.064  -0.070  0.00  0.00    +0.173 C 
BRANCH  18  19
ATOM     19  C   UNL     1       0.336  -8.416  -0.064  0.00  0.00    +0.228 C 
ATOM     20  O   UNL     1      -0.874  -8.495  -0.056  0.00  0.00    -0.275 OA
ATOM     21  N   UNL     1       1.085  -9.536  -0.066  0.00  0.00    -0.283 N 
ATOM     22  H   UNL     1       2.051  -9.474  -0.137  0.00  0.00    +0.155 HD
BRANCH  21  23
ATOM     23  C   UNL     1       0.469 -10.791   0.035  0.00  0.00    +0.069 A 
ATOM     24  C   UNL     1      -0.770 -11.006  -0.553  0.00  0.00    +0.029 A 
ATOM     25  C   UNL     1      -1.376 -12.243  -0.453  0.00  0.00    +0.040 A 
ATOM     26  C   UNL     1      -0.749 -13.270   0.233  0.00  0.00    +0.126 A 
ATOM     27  C   UNL     1       0.487 -13.059   0.821  0.00  0.00    +0.078 A 
ATOM     28  C   UNL     1       1.101 -11.824   0.718  0.00  0.00    +0.147 A 
ATOM     29  F   UNL     1       2.309 -11.620   1.286  0.00  0.00    -0.203 F 
ATOM     30  F   UNL     1      -1.344 -14.479   0.329  0.00  0.00    -0.205 F 
ENDBRANCH  21  23
ENDBRANCH  18  19
ENDBRANCH  17  18
ENDBRANCH   4  17
TORSDOF 7
