REMARK  Name = ZINC32971325
REMARK  7 active torsions:
REMARK  status: ('A' for Active; 'I' for Inactive)
REMARK    1  A    between atoms: C_1  and  C_2
REMARK    2  A    between atoms: C_4  and  C_23
REMARK    3  A    between atoms: C_6  and  N_8
REMARK    4  A    between atoms: N_8  and  S_9
REMARK    5  A    between atoms: S_9  and  C_12
REMARK    6  A    between atoms: C_14  and  C_18
REMARK    7  A    between atoms: C_16  and  C_17
REMARK                            x       y       z     vdW  Elec       q    Type
REMARK                         _______ _______ _______ _____ _____    ______ ____
ROOT
ATOM      1  S   UNL     1      -4.867  -1.850  -0.004  0.00  0.00    +0.076 S 
ATOM      2  O   UNL     1      -5.290  -2.827   0.937  0.00  0.00    -0.150 OA
ATOM      3  O   UNL     1      -5.191  -0.473   0.130  0.00  0.00    -0.150 OA
ENDROOT
BRANCH   1   4
ATOM      4  C   UNL     1      -3.109  -1.948  -0.077  0.00  0.00    +0.150 A 
ATOM      5  C   UNL     1      -2.207  -0.872   0.010  0.00  0.00    +0.082 A 
ATOM      6  C   UNL     1      -0.955  -1.401  -0.093  0.00  0.00    +0.175 A 
ATOM      7  O   UNL     1      -1.075  -2.735  -0.241  0.00  0.00    -0.455 OA
ATOM      8  C   UNL     1      -2.375  -3.070  -0.227  0.00  0.00    +0.129 A 
ATOM      9  C   UNL     1      -2.923  -4.467  -0.361  0.00  0.00    +0.088 C 
BRANCH   6  10
ATOM     10  C   UNL     1       0.306  -0.646  -0.056  0.00  0.00    +0.202 A 
ATOM     11  C   UNL     1       1.577  -1.157  -0.158  0.00  0.00    +0.075 A 
ATOM     12  C   UNL     1       2.405  -0.022  -0.062  0.00  0.00    +0.157 A 
ATOM     13  N   UNL     1       1.615   1.006   0.079  0.00  0.00    -0.086 NA
ATOM     14  O   UNL     1       0.450   0.685   0.086  0.00  0.00    -0.352 OA
ENDBRANCH   6  10
ENDBRANCH   1   4
BRANCH   1  15
ATOM     15  N   UNL     1      -5.446  -2.332  -1.478  0.00  0.00    -0.216 N 
ATOM     16  H   UNL     1      -6.099  -3.214  -1.552  0.00  0.00    +0.174 HD
BRANCH  15  22
ATOM     17  C   UNL     1      -4.904   1.978  -3.777  0.00  0.00    +0.044 C 
ATOM     18  C   UNL     1      -4.834   0.473  -3.773  0.00  0.00    -0.048 A 
ATOM     19  C   UNL     1      -4.432  -0.203  -4.910  0.00  0.00    +0.006 A 
ATOM     20  C   UNL     1      -4.365  -1.585  -4.910  0.00  0.00    -0.048 A 
ATOM     21  C   UNL     1      -4.701  -2.294  -3.774  0.00  0.00    +0.028 A 
ATOM     22  C   UNL     1      -5.106  -1.618  -2.630  0.00  0.00    +0.049 A 
ATOM     23  C   UNL     1      -5.176  -0.231  -2.635  0.00  0.00    +0.028 A 
ATOM     24  C   UNL     1      -3.926  -2.317  -6.152  0.00  0.00    +0.044 C 
ENDBRANCH  15  22
ENDBRANCH   1  15
TORSDOF 4
