REMARK  Name = ZINC09601965
REMARK  11 active torsions:
REMARK  status: ('A' for Active; 'I' for Inactive)
REMARK    1  A    between atoms: C_1  and  C_2
REMARK    2  A    between atoms: C_4  and  C_35
REMARK    3  A    between atoms: C_8  and  C_29
REMARK    4  A    between atoms: C_9  and  C_23
REMARK    5  A    between atoms: N_10  and  C_11
REMARK    6  A    between atoms: C_11  and  C_12
REMARK    7  A    between atoms: C_12  and  C_14
REMARK    8  A    between atoms: C_12  and  O_22
REMARK    9  A    between atoms: C_14  and  N_67
REMARK   10  A    between atoms: C_15  and  C_16
REMARK   11  A    between atoms: C_15  and  N_67
REMARK                            x       y       z     vdW  Elec       q    Type
REMARK                         _______ _______ _______ _____ _____    ______ ____
ROOT
ATOM      1  C   UNL     1       0.690   1.537  -1.020  0.00  0.00    +0.044 C 
ATOM      2  C   UNL     1       0.089   0.160  -0.906  0.00  0.00    -0.049 A 
ATOM      3  C   UNL     1       0.154  -0.523   0.301  0.00  0.00    +0.008 A 
ATOM      4  C   UNL     1      -0.389  -1.783   0.426  0.00  0.00    -0.026 A 
ATOM      5  C   UNL     1      -1.011  -2.380  -0.667  0.00  0.00    +0.053 A 
ATOM      6  C   UNL     1      -1.074  -1.684  -1.887  0.00  0.00    +0.009 A 
ATOM      7  C   UNL     1      -0.522  -0.406  -1.990  0.00  0.00    +0.014 A 
ATOM      8  C   UNL     1      -1.780  -2.564  -2.829  0.00  0.00    +0.015 A 
ATOM      9  C   UNL     1      -2.091  -3.713  -2.133  0.00  0.00    +0.058 A 
ATOM     10  N   UNL     1      -1.631  -3.599  -0.844  0.00  0.00    -0.337 N 
ATOM     11  C   UNL     1      -0.310  -2.512   1.742  0.00  0.00    +0.046 C 
ENDROOT
BRANCH   9  12
ATOM     12  C   UNL     1      -2.806  -4.880  -2.686  0.00  0.00    -0.001 A 
ATOM     13  C   UNL     1      -2.216  -6.145  -2.651  0.00  0.00    +0.010 A 
ATOM     14  C   UNL     1      -2.892  -7.233  -3.164  0.00  0.00    +0.001 A 
ATOM     15  C   UNL     1      -4.147  -7.070  -3.723  0.00  0.00    +0.000 A 
ATOM     16  C   UNL     1      -4.736  -5.819  -3.765  0.00  0.00    +0.001 A 
ATOM     17  C   UNL     1      -4.074  -4.724  -3.251  0.00  0.00    +0.010 A 
ENDBRANCH   9  12
BRANCH   8  18
ATOM     18  C   UNL     1      -2.094  -2.274  -4.246  0.00  0.00    -0.015 A 
ATOM     19  C   UNL     1      -1.465  -2.991  -5.264  0.00  0.00    +0.008 A 
ATOM     20  C   UNL     1      -1.767  -2.721  -6.583  0.00  0.00    +0.001 A 
ATOM     21  C   UNL     1      -2.682  -1.732  -6.897  0.00  0.00    +0.000 A 
ATOM     22  C   UNL     1      -3.305  -1.012  -5.892  0.00  0.00    +0.001 A 
ATOM     23  C   UNL     1      -3.016  -1.278  -4.569  0.00  0.00    +0.008 A 
ENDBRANCH   8  18
BRANCH  10  24
ATOM     24  C   UNL     1      -1.777  -4.623   0.193  0.00  0.00    +0.151 C 
BRANCH  24  25
ATOM     25  C   UNL     1      -3.147  -4.483   0.859  0.00  0.00    +0.117 C 
BRANCH  25  26
ATOM     26  O   UNL     1      -3.207  -3.244   1.568  0.00  0.00    -0.392 OA
ATOM     27  H   UNL     1      -2.640  -3.212   2.351  0.00  0.00    +0.210 HD
ENDBRANCH  25  26
BRANCH  25  28
ATOM     28  C   UNL     1      -3.361  -5.641   1.835  0.00  0.00    -0.049 C 
BRANCH  28  29
ATOM     29  N   UNL     1      -4.728  -5.567   2.383  0.00  0.00    +0.382 N 
ATOM     30  H   UNL     1      -5.405  -5.631   1.613  0.00  0.00    -0.086 HD
ATOM     31  H   UNL     1      -4.849  -4.672   2.871  0.00  0.00    -0.086 HD
BRANCH  29  32
ATOM     32  C   UNL     1      -4.962  -6.673   3.329  0.00  0.00    -0.051 C 
BRANCH  32  33
ATOM     33  C   UNL     1      -6.386  -6.570   3.879  0.00  0.00    +0.101 C 
ATOM     34  C   UNL     1      -6.647  -7.715   4.877  0.00  0.00    +0.032 C 
ATOM     35  C   UNL     1      -7.015  -6.993   6.196  0.00  0.00    +0.030 C 
ATOM     36  C   UNL     1      -7.451  -5.594   5.689  0.00  0.00    +0.160 C 
ATOM     37  O   UNL     1      -6.546  -5.332   4.593  0.00  0.00    -0.378 OA
ENDBRANCH  32  33
ENDBRANCH  29  32
ENDBRANCH  28  29
ENDBRANCH  25  28
ENDBRANCH  24  25
ENDBRANCH  10  24
TORSDOF 9
