REMARK  Name = ZINC58905795
REMARK  6 active torsions:
REMARK  status: ('A' for Active; 'I' for Inactive)
REMARK    1  A    between atoms: C_1  and  C_2
REMARK    2  A    between atoms: C_5  and  S_21
REMARK    3  A    between atoms: C_7  and  N_8
REMARK    4  A    between atoms: C_9  and  C_11
REMARK    5  A    between atoms: S_21  and  N_24
REMARK    6  A    between atoms: N_24  and  C_25
REMARK                            x       y       z     vdW  Elec       q    Type
REMARK                         _______ _______ _______ _____ _____    ______ ____
ROOT
ATOM      1  N   UNL     1       0.025  -0.015   2.416  0.00  0.00    -0.279 N 
ATOM      2  C   UNL     1      -0.632  -0.521   3.479  0.00  0.00    +0.284 C 
ATOM      3  O   UNL     1      -1.150  -1.620   3.408  0.00  0.00    -0.266 OA
ATOM      4  H   UNL     1       0.492   0.831   2.493  0.00  0.00    +0.155 HD
ENDROOT
BRANCH   2   5
ATOM      5  C   UNL     1      -0.724   0.255   4.723  0.00  0.00    +0.191 A 
ATOM      6  C   UNL     1      -1.353  -0.154   5.856  0.00  0.00    +0.063 A 
ATOM      7  C   UNL     1      -1.189   0.929   6.824  0.00  0.00    +0.022 A 
ATOM      8  C   UNL     1      -1.595   1.121   8.147  0.00  0.00    +0.031 A 
ATOM      9  C   UNL     1      -1.270   2.282   8.793  0.00  0.00    +0.042 A 
ATOM     10  C   UNL     1      -0.540   3.269   8.143  0.00  0.00    +0.023 A 
ATOM     11  C   UNL     1      -0.131   3.097   6.838  0.00  0.00    +0.048 A 
ATOM     12  C   UNL     1      -0.449   1.925   6.161  0.00  0.00    +0.136 A 
ATOM     13  O   UNL     1      -0.190   1.479   4.916  0.00  0.00    -0.450 OA
ATOM     14 CL   UNL     1      -1.775   2.524  10.437  0.00  0.00    -0.084 Cl
ENDBRANCH   2   5
BRANCH   1  21
ATOM     15  C   UNL     1      -0.009   1.492   0.004  0.00  0.00    +0.045 C 
ATOM     16  C   UNL     1       0.015  -0.014   0.002  0.00  0.00    -0.029 A 
ATOM     17  C   UNL     1       0.028  -0.704  -1.195  0.00  0.00    +0.007 A 
ATOM     18  C   UNL     1       0.050  -2.087  -1.197  0.00  0.00    +0.029 A 
ATOM     19  C   UNL     1       0.061  -2.783  -0.003  0.00  0.00    +0.107 A 
ATOM     20  C   UNL     1       0.049  -2.100   1.197  0.00  0.00    +0.052 A 
ATOM     21  C   UNL     1       0.032  -0.711   1.203  0.00  0.00    +0.039 A 
BRANCH  19  22
ATOM     22  S   UNL     1       0.089  -4.545  -0.011  0.00  0.00    +0.058 S 
ATOM     23  O   UNL     1      -0.455  -4.966   1.232  0.00  0.00    -0.153 OA
ATOM     24  O   UNL     1      -0.455  -4.954  -1.259  0.00  0.00    -0.153 OA
BRANCH  22  25
ATOM     25  N   UNL     1       1.679  -5.009  -0.013  0.00  0.00    -0.193 NA
ATOM     26  C   UNL     1       2.532  -4.706   1.138  0.00  0.00    +0.127 C 
ATOM     27  H   UNL     1       2.045  -5.482  -0.777  0.00  0.00    +0.148 HD
ENDBRANCH  22  25
ENDBRANCH  19  22
ENDBRANCH   1  21
TORSDOF 4
