REMARK  Name = ZINC22241727
REMARK  5 active torsions:
REMARK  status: ('A' for Active; 'I' for Inactive)
REMARK    1  A    between atoms: C_1  and  C_2
REMARK    2  A    between atoms: C_2  and  C_5
REMARK    3  A    between atoms: N_3  and  O_4
REMARK    4  A    between atoms: C_10  and  N_11
REMARK    5  A    between atoms: C_12  and  C_14
REMARK                            x       y       z     vdW  Elec       q    Type
REMARK                         _______ _______ _______ _____ _____    ______ ____
ROOT
ATOM      1  N   UNL     1       2.835  -2.362   0.002  0.00  0.00    -0.282 N 
ATOM      2  C   UNL     1       1.686  -1.726  -0.301  0.00  0.00    +0.258 C 
ATOM      3  O   UNL     1       0.943  -2.184  -1.142  0.00  0.00    -0.271 OA
ATOM      4  H   UNL     1       3.544  -1.910   0.711  0.00  0.00    +0.155 HD
ENDROOT
BRANCH   2   5
ATOM      5  C   UNL     1       1.325  -0.445   0.407  0.00  0.00    +0.263 C 
ATOM      6  C   UNL     1       2.257   0.709  -0.032  0.00  0.00    +0.093 C 
ATOM      7  C   UNL     1       1.308   1.892  -0.037  0.00  0.00    -0.002 A 
ATOM      8  C   UNL     1       1.526   3.252  -0.058  0.00  0.00    +0.007 A 
ATOM      9  C   UNL     1       0.452   4.124  -0.048  0.00  0.00    +0.000 A 
ATOM     10  C   UNL     1      -0.838   3.625  -0.018  0.00  0.00    +0.004 A 
ATOM     11  C   UNL     1      -1.058   2.263  -0.004  0.00  0.00    +0.046 A 
ATOM     12  C   UNL     1       0.018   1.379  -0.013  0.00  0.00    +0.125 A 
ATOM     13  O   UNL     1       0.029   0.017  -0.006  0.00  0.00    -0.479 OA
ENDBRANCH   2   5
BRANCH   1  19
ATOM     14  C   UNL     1       3.801  -4.582   0.147  0.00  0.00    +0.020 A 
ATOM     15  C   UNL     1       4.084  -5.811  -0.450  0.00  0.00    +0.011 A 
ATOM     16  C   UNL     1       3.700  -6.048  -1.753  0.00  0.00    +0.001 A 
ATOM     17  C   UNL     1       3.032  -5.071  -2.473  0.00  0.00    +0.002 A 
ATOM     18  C   UNL     1       2.740  -3.852  -1.893  0.00  0.00    +0.024 A 
ATOM     19  C   UNL     1       3.125  -3.595  -0.585  0.00  0.00    +0.042 A 
BRANCH  14  21
ATOM     20  C   UNL     1       5.040  -5.337   2.284  0.00  0.00    +0.070 C 
ATOM     21  C   UNL     1       4.209  -4.323   1.540  0.00  0.00    +0.086 C 
ATOM     22  N   UNL     1       3.854  -3.224   2.125  0.00  0.00    -0.092 NA
BRANCH  22  23
ATOM     23  O   UNL     1       4.246  -2.975   3.463  0.00  0.00    -0.409 OA
ATOM     24  H   UNL     1       3.945  -2.041   3.959  0.00  0.00    +0.328 HD
ENDBRANCH  22  23
ENDBRANCH  14  21
ENDBRANCH   1  19
TORSDOF 4
