REMARK  Name = ZINC24757538
REMARK  10 active torsions:
REMARK  status: ('A' for Active; 'I' for Inactive)
REMARK    1  A    between atoms: C_1  and  C_2
REMARK    2  A    between atoms: C_2  and  C_3
REMARK    3  A    between atoms: C_2  and  N_4
REMARK    4  A    between atoms: N_4  and  S_5
REMARK    5  A    between atoms: S_5  and  C_8
REMARK    6  A    between atoms: C_8  and  C_9
REMARK    7  A    between atoms: C_12  and  C_15
REMARK    8  A    between atoms: C_15  and  N_16
REMARK    9  A    between atoms: C_17  and  C_19
REMARK   10  A    between atoms: C_19  and  N_20
REMARK                            x       y       z     vdW  Elec       q    Type
REMARK                         _______ _______ _______ _____ _____    ______ ____
ROOT
ATOM      1  N   UNL     1      -5.956   1.941   1.057  0.00  0.00    -0.310 N 
ATOM      2  C   UNL     1      -4.811   1.366   0.637  0.00  0.00    +0.231 C 
ATOM      3  O   UNL     1      -3.911   2.054   0.203  0.00  0.00    -0.274 OA
ATOM      4  H   UNL     1      -6.772   1.317   1.450  0.00  0.00    +0.149 HD
ENDROOT
BRANCH   1   5
ATOM      5  C   UNL     1      -6.113   3.396   0.990  0.00  0.00    +0.139 C 
BRANCH   5   9
ATOM      6  C   UNL     1      -9.965   4.484   2.481  0.00  0.00    -0.025 A 
ATOM      7  C   UNL     1      -8.887   4.407   3.342  0.00  0.00    +0.005 A 
ATOM      8  C   UNL     1      -7.640   4.055   2.860  0.00  0.00    +0.005 A 
ATOM      9  C   UNL     1      -7.472   3.779   1.516  0.00  0.00    -0.030 A 
ATOM     10  C   UNL     1      -8.549   3.861   0.653  0.00  0.00    +0.005 A 
ATOM     11  C   UNL     1      -9.797   4.208   1.136  0.00  0.00    +0.005 A 
BRANCH   6  12
ATOM     12  C   UNL     1     -11.324   4.868   3.006  0.00  0.00    +0.220 C 
BRANCH  12  13
ATOM     13  S   UNL     1     -11.517   6.670   2.923  0.00  0.00    +0.034 S 
ATOM     14  O   UNL     1     -10.636   7.300   3.842  0.00  0.00    -0.158 OA
ATOM     15  O   UNL     1     -11.574   7.094   1.568  0.00  0.00    -0.158 OA
BRANCH  13  16
ATOM     16  N   UNL     1     -13.033   6.964   3.522  0.00  0.00    -0.192 NA
ATOM     17  H   UNL     1     -13.844   7.226   2.826  0.00  0.00    +0.148 HD
BRANCH  16  19
ATOM     18  C   UNL     1     -14.318   7.705   5.466  0.00  0.00    +0.025 C 
ATOM     19  C   UNL     1     -13.338   6.664   4.923  0.00  0.00    +0.070 C 
ATOM     20  C   UNL     1     -13.966   5.272   5.021  0.00  0.00    +0.025 C 
ENDBRANCH  16  19
ENDBRANCH  13  16
ENDBRANCH  12  13
ENDBRANCH   6  12
ENDBRANCH   5   9
ENDBRANCH   1   5
BRANCH   2  21
ATOM     21  C   UNL     1      -4.650  -0.131   0.706  0.00  0.00    +0.213 C 
BRANCH  21  22
ATOM     22  N   UNL     1      -3.329  -0.503   0.194  0.00  0.00    -0.215 N 
ATOM     23  C   UNL     1      -2.219  -0.603   0.958  0.00  0.00    +0.251 C 
ATOM     24  O   UNL     1      -2.128  -0.411   2.152  0.00  0.00    -0.272 OA
ATOM     25  C   UNL     1      -1.120  -1.006   0.010  0.00  0.00    +0.138 C 
ATOM     26  C   UNL     1      -0.496  -2.346   0.419  0.00  0.00    +0.045 C 
ATOM     27  C   UNL     1       0.974  -2.169  -0.023  0.00  0.00    +0.038 C 
ATOM     28  C   UNL     1       1.215  -0.674  -0.014  0.00  0.00    -0.042 A 
ATOM     29  C   UNL     1       0.002  -0.004   0.002  0.00  0.00    -0.012 A 
ATOM     30  C   UNL     1      -0.017   1.381   0.010  0.00  0.00    +0.006 A 
ATOM     31  C   UNL     1       1.166   2.094   0.002  0.00  0.00    +0.000 A 
ATOM     32  C   UNL     1       2.375   1.425  -0.013  0.00  0.00    +0.000 A 
ATOM     33  C   UNL     1       2.398   0.044  -0.021  0.00  0.00    +0.004 A 
ATOM     34  N   UNL     1      -1.775  -1.099  -1.295  0.00  0.00    -0.281 N 
ATOM     35  C   UNL     1      -3.070  -0.787  -1.089  0.00  0.00    +0.310 C 
ATOM     36  O   UNL     1      -3.909  -0.765  -1.968  0.00  0.00    -0.252 OA
ATOM     37  H   UNL     1      -1.192  -1.381  -2.184  0.00  0.00    +0.152 HD
ENDBRANCH  21  22
ENDBRANCH   2  21
TORSDOF 8
