REMARK  Name = ZINC35893166
REMARK  12 active torsions:
REMARK  status: ('A' for Active; 'I' for Inactive)
REMARK    1  A    between atoms: C_1  and  C_2
REMARK    2  A    between atoms: C_2  and  C_3
REMARK    3  A    between atoms: C_3  and  C_4
REMARK    4  A    between atoms: C_4  and  N_5
REMARK    5  A    between atoms: C_10  and  C_29
REMARK    6  A    between atoms: C_13  and  C_16
REMARK    7  A    between atoms: N_18  and  C_19
REMARK    8  A    between atoms: C_19  and  C_20
REMARK    9  A    between atoms: C_32  and  O_37
REMARK   10  A    between atoms: C_33  and  O_35
REMARK   11  A    between atoms: O_35  and  C_36
REMARK   12  A    between atoms: O_37  and  C_38
REMARK                            x       y       z     vdW  Elec       q    Type
REMARK                         _______ _______ _______ _____ _____    ______ ____
ROOT
ATOM      1  N   UNL     1      -1.979  -4.761  -0.006  0.00  0.00    -0.299 N 
ATOM      2  C   UNL     1      -3.015  -3.899   0.010  0.00  0.00    +0.302 C 
ATOM      3  O   UNL     1      -2.811  -2.704   0.107  0.00  0.00    -0.253 OA
ATOM      4  N   UNL     1      -4.278  -4.361  -0.082  0.00  0.00    -0.284 N 
ATOM      5  C   UNL     1      -4.548  -5.806  -0.083  0.00  0.00    +0.117 C 
ATOM      6  C   UNL     1      -5.391  -6.149  -1.315  0.00  0.00    +0.037 C 
ATOM      7  C   UNL     1      -6.647  -5.275  -1.328  0.00  0.00    +0.024 C 
ATOM      8  C   UNL     1      -6.244  -3.801  -1.414  0.00  0.00    +0.093 C 
ATOM      9  C   UNL     1      -5.411  -3.431  -0.178  0.00  0.00    +0.122 C 
ATOM     10  H   UNL     1      -2.143  -5.716  -0.009  0.00  0.00    +0.150 HD
ENDROOT
BRANCH   6  11
ATOM     11  C   UNL     1      -5.789  -7.602  -1.263  0.00  0.00    -0.039 A 
ATOM     12  C   UNL     1      -6.544  -8.073  -0.205  0.00  0.00    +0.008 A 
ATOM     13  C   UNL     1      -6.911  -9.404  -0.153  0.00  0.00    +0.049 A 
ATOM     14  C   UNL     1      -6.524 -10.270  -1.163  0.00  0.00    +0.161 A 
ATOM     15  C   UNL     1      -5.764  -9.796  -2.228  0.00  0.00    +0.162 A 
ATOM     16  C   UNL     1      -5.403  -8.459  -2.276  0.00  0.00    +0.053 A 
BRANCH  15  17
ATOM     17  O   UNL     1      -5.381 -10.642  -3.221  0.00  0.00    -0.491 OA
ATOM     18  C   UNL     1      -4.603 -10.085  -4.283  0.00  0.00    +0.277 C 
ENDBRANCH  15  17
BRANCH  14  19
ATOM     19  O   UNL     1      -6.884 -11.581  -1.113  0.00  0.00    -0.491 OA
ATOM     20  C   UNL     1      -7.663 -11.997   0.011  0.00  0.00    +0.277 C 
ENDBRANCH  14  19
ENDBRANCH   6  11
BRANCH   8  21
ATOM     21  C   UNL     1      -5.429  -3.575  -2.661  0.00  0.00    +0.218 C 
ATOM     22  O   UNL     1      -5.193  -4.501  -3.408  0.00  0.00    -0.275 OA
ATOM     23  N   UNL     1      -4.962  -2.343  -2.947  0.00  0.00    -0.311 N 
ATOM     24  H   UNL     1      -5.150  -1.602  -2.349  0.00  0.00    +0.149 HD
BRANCH  23  25
ATOM     25  C   UNL     1      -4.169  -2.123  -4.159  0.00  0.00    +0.139 C 
BRANCH  25  26
ATOM     26  C   UNL     1      -3.773  -0.671  -4.243  0.00  0.00    -0.027 A 
ATOM     27  C   UNL     1      -4.596   0.232  -4.889  0.00  0.00    +0.009 A 
ATOM     28  C   UNL     1      -4.237   1.565  -4.968  0.00  0.00    +0.050 A 
ATOM     29  C   UNL     1      -3.049   1.998  -4.401  0.00  0.00    +0.166 A 
ATOM     30  C   UNL     1      -2.220   1.087  -3.751  0.00  0.00    +0.167 A 
ATOM     31  C   UNL     1      -2.589  -0.245  -3.670  0.00  0.00    +0.054 A 
ATOM     32  O   UNL     1      -1.124   1.753  -3.283  0.00  0.00    -0.453 OA
ATOM     33  C   UNL     1      -1.093   2.998  -4.005  0.00  0.00    +0.466 C 
ATOM     34  O   UNL     1      -2.473   3.234  -4.340  0.00  0.00    -0.453 OA
ENDBRANCH  25  26
ENDBRANCH  23  25
ENDBRANCH   8  21
BRANCH   1  35
ATOM     35  C   UNL     1      -0.605  -4.253  -0.018  0.00  0.00    +0.106 C 
BRANCH  35  36
ATOM     36  C   UNL     1       0.373  -5.430  -0.034  0.00  0.00    +0.018 C 
BRANCH  36  38
ATOM     37  C   UNL     1       2.786  -6.077  -0.063  0.00  0.00    +0.004 C 
ATOM     38  C   UNL     1       1.808  -4.900  -0.047  0.00  0.00    -0.002 C 
ENDBRANCH  36  38
ENDBRANCH  35  36
ENDBRANCH   1  35
TORSDOF 9
