REMARK  Name = ZINC27586433
REMARK  10 active torsions:
REMARK  status: ('A' for Active; 'I' for Inactive)
REMARK    1  A    between atoms: C_1  and  C_2
REMARK    2  A    between atoms: C_2  and  O_3
REMARK    3  A    between atoms: O_3  and  C_4
REMARK    4  A    between atoms: C_4  and  C_6
REMARK    5  A    between atoms: C_9  and  N_12
REMARK    6  A    between atoms: N_12  and  C_13
REMARK    7  A    between atoms: C_13  and  N_15
REMARK    8  A    between atoms: N_15  and  N_16
REMARK    9  A    between atoms: C_17  and  C_19
REMARK   10  A    between atoms: C_20  and  C_32
REMARK                            x       y       z     vdW  Elec       q    Type
REMARK                         _______ _______ _______ _____ _____    ______ ____
ROOT
ATOM      1  N   UNL     1      -4.982   9.040   0.425  0.00  0.00    -0.231 N 
ATOM      2  C   UNL     1      -4.521   8.237  -0.554  0.00  0.00    +0.267 C 
ATOM      3  O   UNL     1      -4.477   8.641  -1.702  0.00  0.00    -0.268 OA
ATOM      4  H   UNL     1      -5.022   8.676   1.462  0.00  0.00    +0.173 HD
ENDROOT
BRANCH   2   5
ATOM      5  C   UNL     1      -4.072   6.878  -0.237  0.00  0.00    +0.081 A 
ATOM      6  C   UNL     1      -3.579   5.926  -1.081  0.00  0.00    -0.017 A 
ATOM      7  C   UNL     1      -3.204   4.678  -0.577  0.00  0.00    +0.076 A 
ATOM      8  C   UNL     1      -3.373   4.500   0.815  0.00  0.00    +0.116 A 
ATOM      9  S   UNL     1      -4.037   6.058   1.347  0.00  0.00    -0.064 S 
ATOM     10  N   UNL     1      -3.054   3.362   1.413  0.00  0.00    -0.226 NA
ATOM     11  C   UNL     1      -2.564   2.339   0.755  0.00  0.00    +0.114 A 
ATOM     12  N   UNL     1      -2.360   2.389  -0.585  0.00  0.00    -0.296 N 
ATOM     13  C   UNL     1      -2.652   3.507  -1.291  0.00  0.00    +0.263 A 
ATOM     14  O   UNL     1      -2.463   3.547  -2.494  0.00  0.00    -0.267 OA
ATOM     15  C   UNL     1      -1.811   1.113  -1.079  0.00  0.00    +0.127 C 
ATOM     16  C   UNL     1      -1.269   0.383   0.168  0.00  0.00    +0.029 C 
ATOM     17  C   UNL     1      -2.145   0.981   1.290  0.00  0.00    +0.076 C 
ATOM     18  C   UNL     1      -3.439   6.220  -2.552  0.00  0.00    +0.046 C 
ENDBRANCH   2   5
BRANCH   1  19
ATOM     19  N   UNL     1      -5.411  10.339   0.122  0.00  0.00    -0.245 N 
ATOM     20  H   UNL     1      -5.371  10.704  -0.915  0.00  0.00    +0.172 HD
BRANCH  19  21
ATOM     21  C   UNL     1      -5.872  11.142   1.101  0.00  0.00    +0.151 C 
ATOM     22  S   UNL     1      -6.396  12.729   0.732  0.00  0.00    -0.017 S 
BRANCH  21  23
ATOM     23  N   UNL     1      -5.921  10.695   2.372  0.00  0.00    -0.296 N 
ATOM     24  H   UNL     1      -5.671   9.648   2.597  0.00  0.00    +0.154 HD
BRANCH  23  28
ATOM     25  C   UNL     1      -7.017  13.281   5.447  0.00  0.00    +0.059 A 
ATOM     26  C   UNL     1      -7.510  11.972   5.423  0.00  0.00    +0.017 A 
ATOM     27  C   UNL     1      -7.145  11.121   4.405  0.00  0.00    +0.024 A 
ATOM     28  C   UNL     1      -6.288  11.560   3.401  0.00  0.00    +0.033 A 
ATOM     29  C   UNL     1      -5.791  12.860   3.425  0.00  0.00    +0.024 A 
ATOM     30  C   UNL     1      -6.156  13.719   4.437  0.00  0.00    +0.017 A 
BRANCH  25  31
ATOM     31  C   UNL     1      -7.406  14.196   6.536  0.00  0.00    +0.339 C 
ATOM     32  O   UNL     1      -8.155  13.814   7.413  0.00  0.00    -0.245 OA
BRANCH  31  33
ATOM     33  O   UNL     1      -6.930  15.457   6.558  0.00  0.00    -0.461 OA
BRANCH  33  35
ATOM     34  C   UNL     1      -6.718  17.686   7.515  0.00  0.00    +0.048 C 
ATOM     35  C   UNL     1      -7.355  16.303   7.659  0.00  0.00    +0.229 C 
ENDBRANCH  33  35
ENDBRANCH  31  33
ENDBRANCH  25  31
ENDBRANCH  23  28
ENDBRANCH  21  23
ENDBRANCH  19  21
ENDBRANCH   1  19
TORSDOF 8
