REMARK  Name = ZINC03839139
REMARK  13 active torsions:
REMARK  status: ('A' for Active; 'I' for Inactive)
REMARK    1  A    between atoms: C_1  and  C_2
REMARK    2  A    between atoms: C_2  and  C_3
REMARK    3  A    between atoms: C_2  and  C_4
REMARK    4  A    between atoms: C_2  and  C_5
REMARK    5  A    between atoms: C_5  and  C_6
REMARK    6  A    between atoms: C_11  and  N_29
REMARK    7  A    between atoms: C_13  and  C_15
REMARK    8  A    between atoms: N_17  and  C_18
REMARK    9  A    between atoms: C_18  and  C_20
REMARK   10  A    between atoms: C_18  and  C_26
REMARK   11  A    between atoms: C_20  and  C_21
REMARK   12  A    between atoms: N_32  and  C_33
REMARK   13  A    between atoms: C_33  and  C_34
REMARK                            x       y       z     vdW  Elec       q    Type
REMARK                         _______ _______ _______ _____ _____    ______ ____
ROOT
ATOM      1  C   UNL     1       3.603   2.428  -1.664  0.00  0.00    +0.217 C 
ATOM      2  O   UNL     1       2.729   2.245  -2.485  0.00  0.00    -0.276 OA
ATOM      3  N   UNL     1       3.534   1.822  -0.462  0.00  0.00    -0.288 N 
ATOM      4  C   UNL     1       4.521   1.956   0.625  0.00  0.00    +0.110 C 
ATOM      5  C   UNL     1       4.355   0.669   1.472  0.00  0.00    +0.043 C 
ATOM      6  C   UNL     1       2.820   0.452   1.410  0.00  0.00    +0.105 C 
ATOM      7  C   UNL     1       2.462   0.920  -0.017  0.00  0.00    +0.182 C 
ENDROOT
BRANCH   6   8
ATOM      8  N   UNL     1       2.489  -0.964   1.589  0.00  0.00    -0.294 N 
ATOM      9  C   UNL     1       2.238  -1.446   2.822  0.00  0.00    +0.300 C 
ATOM     10  O   UNL     1       2.285  -0.706   3.786  0.00  0.00    -0.253 OA
ATOM     11  N   UNL     1       1.933  -2.749   2.988  0.00  0.00    -0.296 N 
ATOM     12  H   UNL     1       2.451  -1.554   0.821  0.00  0.00    +0.151 HD
ATOM     13  H   UNL     1       1.895  -3.339   2.219  0.00  0.00    +0.151 HD
BRANCH  11  14
ATOM     14  C   UNL     1       1.660  -3.273   4.328  0.00  0.00    +0.132 C 
BRANCH  14  15
ATOM     15  C   UNL     1       1.349  -4.745   4.238  0.00  0.00    -0.016 C 
ATOM     16  C   UNL     1       2.035  -5.604   4.951  0.00  0.00    +0.005 C 
ENDBRANCH  14  15
ENDBRANCH  11  14
ENDBRANCH   6   8
BRANCH   7  17
ATOM     17  C   UNL     1       1.147   1.655   0.000  0.00  0.00    +0.236 C 
ATOM     18  O   UNL     1       1.130   2.868   0.007  0.00  0.00    -0.274 OA
ATOM     19  N   UNL     1      -0.011   0.966   0.007  0.00  0.00    -0.302 N 
ATOM     20  H   UNL     1       0.002  -0.004   0.002  0.00  0.00    +0.150 HD
BRANCH  19  21
ATOM     21  C   UNL     1      -1.290   1.681   0.017  0.00  0.00    +0.163 C 
BRANCH  21  22
ATOM     22  C   UNL     1      -1.661   2.027   1.436  0.00  0.00    +0.231 C 
ATOM     23  O   UNL     1      -0.929   1.707   2.349  0.00  0.00    -0.274 OA
ATOM     24  N   UNL     1      -2.806   2.691   1.691  0.00  0.00    -0.328 N 
ATOM     25  H   UNL     1      -3.391   2.946   0.960  0.00  0.00    +0.145 HD
ATOM     26  H   UNL     1      -3.045   2.913   2.604  0.00  0.00    +0.145 HD
ENDBRANCH  21  22
BRANCH  21  27
ATOM     27  C   UNL     1      -2.376   0.792  -0.592  0.00  0.00    +0.074 C 
BRANCH  27  28
ATOM     28  C   UNL     1      -2.067   0.548  -2.047  0.00  0.00    -0.008 A 
ATOM     29  C   UNL     1      -1.339  -0.447  -2.609  0.00  0.00    +0.011 A 
ATOM     30  C   UNL     1      -1.187  -0.473  -3.983  0.00  0.00    +0.008 A 
ATOM     31  C   UNL     1      -1.772   0.497  -4.727  0.00  0.00    +0.045 A 
ATOM     32  S   UNL     1      -2.573   1.489  -3.477  0.00  0.00    -0.102 S 
ENDBRANCH  27  28
ENDBRANCH  21  27
ENDBRANCH  19  21
ENDBRANCH   7  17
BRANCH   1  33
ATOM     33  C   UNL     1       4.764   3.331  -1.987  0.00  0.00    +0.102 C 
BRANCH  33  35
ATOM     34  C   UNL     1       3.296   4.681  -3.492  0.00  0.00    +0.011 C 
ATOM     35  C   UNL     1       4.600   3.886  -3.404  0.00  0.00    -0.029 C 
ATOM     36  C   UNL     1       5.780   4.803  -3.732  0.00  0.00    +0.011 C 
ATOM     37  C   UNL     1       4.561   2.728  -4.403  0.00  0.00    +0.011 C 
ENDBRANCH  33  35
ENDBRANCH   1  33
TORSDOF 10
