REMARK  Name = ZINC24765939
REMARK  14 active torsions:
REMARK  status: ('A' for Active; 'I' for Inactive)
REMARK    1  A    between atoms: C_1  and  C_2
REMARK    2  A    between atoms: C_2  and  C_3
REMARK    3  A    between atoms: C_2  and  C_4
REMARK    4  A    between atoms: C_4  and  N_5
REMARK    5  A    between atoms: C_6  and  N_34
REMARK    6  A    between atoms: C_7  and  C_14
REMARK    7  A    between atoms: C_14  and  C_16
REMARK    8  A    between atoms: C_16  and  S_17
REMARK    9  A    between atoms: S_17  and  C_18
REMARK   10  A    between atoms: C_21  and  C_27
REMARK   11  A    between atoms: N_22  and  C_23
REMARK   12  A    between atoms: C_23  and  C_24
REMARK   13  A    between atoms: C_24  and  C_25
REMARK   14  A    between atoms: C_24  and  C_26
REMARK                            x       y       z     vdW  Elec       q    Type
REMARK                         _______ _______ _______ _____ _____    ______ ____
ROOT
ATOM      1  C   UNL     1       1.154  -7.306   0.275  0.00  0.00    +0.182 C 
ATOM      2  O   UNL     1       2.308  -7.501  -0.047  0.00  0.00    -0.291 OA
ENDROOT
BRANCH   1   5
ATOM      3  N   UNL     1      -0.058 -10.737   0.865  0.00  0.00    -0.281 N 
ATOM      4  C   UNL     1       0.801  -9.713   0.584  0.00  0.00    +0.116 A 
ATOM      5  C   UNL     1       0.305  -8.398   0.554  0.00  0.00    +0.120 A 
ATOM      6  C   UNL     1      -1.126  -8.199   0.818  0.00  0.00    +0.266 A 
ATOM      7  O   UNL     1      -1.611  -7.082   0.800  0.00  0.00    -0.267 OA
ATOM      8  N   UNL     1      -1.891  -9.278   1.079  0.00  0.00    -0.274 N 
ATOM      9  H   UNL     1      -2.966  -9.155   1.280  0.00  0.00    +0.173 HD
ATOM     10  C   UNL     1      -1.359 -10.511   1.100  0.00  0.00    +0.331 A 
ATOM     11  O   UNL     1      -2.084 -11.457   1.340  0.00  0.00    -0.246 OA
BRANCH   4  12
ATOM     12  N   UNL     1       2.117  -9.961   0.342  0.00  0.00    -0.344 N 
ATOM     13  H   UNL     1       2.801  -9.130   0.117  0.00  0.00    +0.144 HD
ATOM     14  H   UNL     1       2.497 -10.993   0.372  0.00  0.00    +0.144 HD
ENDBRANCH   4  12
BRANCH   3  15
ATOM     15  C   UNL     1       0.451 -12.111   0.904  0.00  0.00    +0.131 C 
BRANCH  15  17
ATOM     16  C   UNL     1       1.276 -11.985  -1.451  0.00  0.00    +0.009 C 
ATOM     17  C   UNL     1       0.349 -12.732  -0.490  0.00  0.00    +0.003 C 
ATOM     18  C   UNL     1       0.763 -14.204  -0.424  0.00  0.00    +0.009 C 
ENDBRANCH  15  17
ENDBRANCH   3  15
ENDBRANCH   1   5
BRANCH   1  19
ATOM     19  C   UNL     1       0.627  -5.897   0.375  0.00  0.00    +0.157 C 
BRANCH  19  20
ATOM     20  S   UNL     1       1.945  -4.729  -0.041  0.00  0.00    -0.078 S 
BRANCH  20  21
ATOM     21  C   UNL     1       1.077  -3.208   0.153  0.00  0.00    +0.192 A 
ATOM     22  N   UNL     1      -0.180  -3.067   0.506  0.00  0.00    -0.122 NA
ATOM     23  N   UNL     1      -0.490  -1.820   0.551  0.00  0.00    -0.128 NA
ATOM     24  C   UNL     1       0.551  -1.089   0.229  0.00  0.00    +0.168 A 
ATOM     25  N   UNL     1       1.586  -1.955  -0.041  0.00  0.00    -0.302 N 
BRANCH  24  26
ATOM     26  C   UNL     1       0.601   0.387   0.162  0.00  0.00    +0.054 A 
ATOM     27  C   UNL     1       1.636   1.083   0.789  0.00  0.00    +0.014 A 
ATOM     28  C   UNL     1       1.677   2.460   0.723  0.00  0.00    +0.001 A 
ATOM     29  C   UNL     1       0.694   3.154   0.038  0.00  0.00    +0.003 A 
ATOM     30  C   UNL     1      -0.335   2.473  -0.586  0.00  0.00    +0.039 A 
ATOM     31  C   UNL     1      -0.388   1.093  -0.528  0.00  0.00    +0.134 A 
ATOM     32  F   UNL     1      -1.394   0.428  -1.138  0.00  0.00    -0.205 F 
ENDBRANCH  24  26
BRANCH  25  33
ATOM     33  C   UNL     1       2.949  -1.606  -0.449  0.00  0.00    +0.129 C 
BRANCH  33  34
ATOM     34  C   UNL     1       2.990  -1.398  -1.965  0.00  0.00    +0.003 C 
ATOM     35  C   UNL     1       4.379  -0.904  -2.374  0.00  0.00    +0.009 C 
ATOM     36  C   UNL     1       2.693  -2.724  -2.669  0.00  0.00    +0.009 C 
ENDBRANCH  33  34
ENDBRANCH  25  33
ENDBRANCH  20  21
ENDBRANCH  19  20
ENDBRANCH   1  19
TORSDOF 10
