REMARK  Name = ZINC38120924
REMARK  2 active torsions:
REMARK  status: ('A' for Active; 'I' for Inactive)
REMARK    1  A    between atoms: C_8  and  C_10
REMARK    2  A    between atoms: C_8  and  N_12
REMARK                            x       y       z     vdW  Elec       q    Type
REMARK                         _______ _______ _______ _____ _____    ______ ____
ROOT
ATOM      1  C   UNL     1      -0.017   1.377   0.010  0.00  0.00    +0.000 A 
ATOM      2  C   UNL     1       1.172   2.083   0.002  0.00  0.00    +0.000 A 
ATOM      3  C   UNL     1       2.376   1.406  -0.013  0.00  0.00    +0.004 A 
ATOM      4  C   UNL     1       2.396   0.021  -0.021  0.00  0.00    -0.045 A 
ATOM      5  C   UNL     1       1.208  -0.685  -0.013  0.00  0.00    -0.045 A 
ATOM      6  C   UNL     1       0.002  -0.004   0.002  0.00  0.00    +0.004 A 
ATOM      7  C   UNL     1       1.496  -2.171  -0.024  0.00  0.00    +0.026 C 
ATOM      8  C   UNL     1       2.966  -2.294  -0.479  0.00  0.00    -0.031 C 
ATOM      9  C   UNL     1       3.564  -0.942  -0.037  0.00  0.00    +0.026 C 
ENDROOT
BRANCH   8  10
ATOM     10  N   UNL     1       3.632  -3.409   0.207  0.00  0.00    +0.387 N 
ATOM     11  C   UNL     1       2.932  -4.663  -0.103  0.00  0.00    -0.063 C 
ATOM     12  C   UNL     1       3.615  -5.822   0.626  0.00  0.00    +0.062 C 
ATOM     13  N   UNL     1       5.019  -5.907   0.200  0.00  0.00    -0.319 NA
ATOM     14  C   UNL     1       5.727  -4.649   0.481  0.00  0.00    +0.062 C 
ATOM     15  C   UNL     1       5.026  -3.500  -0.247  0.00  0.00    -0.063 C 
ATOM     16  H   UNL     1       5.484  -6.688   0.637  0.00  0.00    +0.122 HD
ATOM     17  H   UNL     1       3.613  -3.251   1.203  0.00  0.00    -0.081 HD
ENDBRANCH   8  10
BRANCH   8  18
ATOM     18  C   UNL     1       3.053  -2.458  -1.998  0.00  0.00    +0.190 C 
ATOM     19  O   UNL     1       2.454  -1.327  -2.633  0.00  0.00    -0.236 OA
ENDBRANCH   8  18
TORSDOF 2
