REMARK  Name = ZINC59302014
REMARK  6 active torsions:
REMARK  status: ('A' for Active; 'I' for Inactive)
REMARK    1  A    between atoms: C_1  and  C_2
REMARK    2  A    between atoms: C_11  and  C_14
REMARK    3  A    between atoms: C_14  and  N_15
REMARK    4  A    between atoms: N_18  and  C_19
REMARK    5  A    between atoms: N_18  and  C_27
REMARK    6  A    between atoms: C_19  and  C_20
REMARK                            x       y       z     vdW  Elec       q    Type
REMARK                         _______ _______ _______ _____ _____    ______ ____
ROOT
ATOM      1  N   UNL     1      -1.969  -7.693   4.619  0.00  0.00    -0.295 N 
ATOM      2  C   UNL     1      -2.502  -8.810   5.154  0.00  0.00    +0.303 C 
ATOM      3  O   UNL     1      -3.103  -8.751   6.209  0.00  0.00    -0.253 OA
ATOM      4  N   UNL     1      -2.367  -9.992   4.521  0.00  0.00    -0.278 N 
ATOM      5  H   UNL     1      -1.553  -7.726   3.743  0.00  0.00    +0.151 HD
ENDROOT
BRANCH   4   6
ATOM      6  C   UNL     1      -1.549 -10.084   3.308  0.00  0.00    +0.078 C 
ATOM      7  C   UNL     1      -1.491 -11.436   2.596  0.00  0.00    +0.024 C 
ATOM      8  C   UNL     1      -0.277 -10.931   3.377  0.00  0.00    +0.024 C 
ENDBRANCH   4   6
BRANCH   1   9
ATOM      9  C   UNL     1      -2.020  -6.430   5.359  0.00  0.00    +0.142 C 
BRANCH   9  20
ATOM     10  C   UNL     1       2.894  -1.346  -1.001  0.00  0.00    +0.007 C 
ATOM     11  C   UNL     1       2.096  -1.287   0.303  0.00  0.00    -0.011 C 
ATOM     12  C   UNL     1       2.752  -2.197   1.343  0.00  0.00    +0.022 C 
ATOM     13  C   UNL     1       1.971  -2.108   2.658  0.00  0.00    +0.107 C 
ATOM     14  N   UNL     1       0.559  -2.416   2.392  0.00  0.00    -0.317 N 
ATOM     15  C   UNL     1      -0.143  -1.660   1.345  0.00  0.00    +0.107 C 
ATOM     16  C   UNL     1       0.662  -1.754   0.045  0.00  0.00    +0.022 C 
ATOM     17  C   UNL     1      -0.100  -3.403   3.115  0.00  0.00    +0.099 A 
ATOM     18  C   UNL     1      -1.465  -3.597   2.931  0.00  0.00    +0.042 A 
ATOM     19  C   UNL     1      -2.108  -4.583   3.658  0.00  0.00    +0.010 A 
ATOM     20  C   UNL     1      -1.361  -5.345   4.546  0.00  0.00    -0.014 A 
ATOM     21  C   UNL     1      -0.009  -5.099   4.678  0.00  0.00    +0.089 A 
ATOM     22  N   UNL     1       0.579  -4.154   3.968  0.00  0.00    -0.349 N 
ATOM     23  H   UNL     1       1.531  -4.005   4.077  0.00  0.00    +0.167 HD
ENDBRANCH   9  20
ENDBRANCH   1   9
BRANCH   4  24
ATOM     24  C   UNL     1      -3.038 -11.184   5.044  0.00  0.00    +0.144 C 
BRANCH  24  25
ATOM     25  C   UNL     1      -4.448 -11.240   4.515  0.00  0.00    -0.030 A 
ATOM     26  C   UNL     1      -5.455 -10.548   5.162  0.00  0.00    +0.008 A 
ATOM     27  C   UNL     1      -6.749 -10.598   4.678  0.00  0.00    +0.038 A 
ATOM     28  C   UNL     1      -7.036 -11.341   3.546  0.00  0.00    +0.123 A 
ATOM     29  C   UNL     1      -6.026 -12.033   2.899  0.00  0.00    +0.038 A 
ATOM     30  C   UNL     1      -4.732 -11.977   3.381  0.00  0.00    +0.008 A 
ATOM     31  F   UNL     1      -8.300 -11.390   3.072  0.00  0.00    -0.205 F 
ENDBRANCH  24  25
ENDBRANCH   4  24
TORSDOF 5
