REMARK  Name = ZINC05106237
REMARK  5 active torsions:
REMARK  status: ('A' for Active; 'I' for Inactive)
REMARK    1  A    between atoms: C_1  and  C_2
REMARK    2  A    between atoms: C_7  and  N_8
REMARK    3  A    between atoms: C_22  and  S_23
REMARK    4  A    between atoms: S_23  and  C_24
REMARK    5  A    between atoms: C_24  and  C_25
REMARK                            x       y       z     vdW  Elec       q    Type
REMARK                         _______ _______ _______ _____ _____    ______ ____
ROOT
ATOM      1  N   UNL     1      -1.185   1.889   0.018  0.00  0.00    -0.254 N 
ATOM      2  C   UNL     1      -0.015   1.216   0.009  0.00  0.00    +0.283 A 
ATOM      3  O   UNL     1       0.002  -0.004   0.002  0.00  0.00    -0.265 OA
ATOM      4  C   UNL     1       1.188   1.952   0.001  0.00  0.00    +0.132 A 
ATOM      5  C   UNL     1       1.117   3.344   0.009  0.00  0.00    +0.104 A 
ATOM      6  C   UNL     1       2.502   3.833  -0.002  0.00  0.00    +0.026 A 
ATOM      7  C   UNL     1       3.072   5.107  -0.001  0.00  0.00    +0.012 A 
ATOM      8  C   UNL     1       4.432   5.245  -0.014  0.00  0.00    +0.001 A 
ATOM      9  C   UNL     1       5.253   4.126  -0.027  0.00  0.00    +0.002 A 
ATOM     10  C   UNL     1       4.712   2.860  -0.029  0.00  0.00    +0.026 A 
ATOM     11  C   UNL     1       3.328   2.696  -0.016  0.00  0.00    +0.049 A 
ATOM     12  N   UNL     1       2.523   1.577  -0.014  0.00  0.00    -0.349 N 
ATOM     13  H   UNL     1       2.843   0.661  -0.023  0.00  0.00    +0.166 HD
ATOM     14  N   UNL     1      -0.081   3.952   0.025  0.00  0.00    -0.221 NA
ATOM     15  C   UNL     1      -1.195   3.255   0.033  0.00  0.00    +0.177 A 
ENDROOT
BRANCH   1  22
ATOM     16  C   UNL     1      -2.359   1.226  -2.488  0.00  0.00    +0.046 C 
ATOM     17  C   UNL     1      -3.001   0.839  -1.181  0.00  0.00    -0.026 A 
ATOM     18  C   UNL     1      -4.194   0.143  -1.176  0.00  0.00    +0.005 A 
ATOM     19  C   UNL     1      -4.784  -0.212   0.023  0.00  0.00    +0.000 A 
ATOM     20  C   UNL     1      -4.183   0.130   1.221  0.00  0.00    +0.002 A 
ATOM     21  C   UNL     1      -2.987   0.821   1.222  0.00  0.00    +0.026 A 
ATOM     22  C   UNL     1      -2.395   1.183   0.020  0.00  0.00    +0.055 A 
ENDBRANCH   1  22
BRANCH  15  23
ATOM     23  S   UNL     1      -2.739   4.103   0.054  0.00  0.00    -0.078 S 
BRANCH  23  24
ATOM     24  C   UNL     1      -2.156   5.817   0.057  0.00  0.00    +0.172 C 
BRANCH  24  25
ATOM     25  C   UNL     1      -3.340   6.750   0.074  0.00  0.00    +0.221 C 
ATOM     26  O   UNL     1      -4.466   6.300   0.084  0.00  0.00    -0.275 OA
ATOM     27  N   UNL     1      -3.146   8.084   0.079  0.00  0.00    -0.329 N 
ATOM     28  H   UNL     1      -2.245   8.443   0.072  0.00  0.00    +0.145 HD
ATOM     29  H   UNL     1      -3.908   8.684   0.091  0.00  0.00    +0.145 HD
ENDBRANCH  24  25
ENDBRANCH  23  24
ENDBRANCH  15  23
TORSDOF 4
