REMARK  Name = ZINC22861624
REMARK  5 active torsions:
REMARK  status: ('A' for Active; 'I' for Inactive)
REMARK    1  A    between atoms: C_1  and  C_2
REMARK    2  A    between atoms: C_4  and  N_12
REMARK    3  A    between atoms: N_12  and  C_13
REMARK    4  A    between atoms: C_13  and  C_14
REMARK    5  A    between atoms: C_14  and  N_15
REMARK                            x       y       z     vdW  Elec       q    Type
REMARK                         _______ _______ _______ _____ _____    ______ ____
ROOT
ATOM      1  C   UNL     1      -0.918   1.576  -0.107  0.00  0.00    +0.044 C 
ATOM      2  C   UNL     1      -0.700   0.085  -0.074  0.00  0.00    -0.038 A 
ATOM      3  C   UNL     1      -0.528  -0.622  -1.226  0.00  0.00    +0.045 A 
ATOM      4  C   UNL     1      -0.326  -2.008  -1.171  0.00  0.00    +0.097 A 
ATOM      5  N   UNL     1      -0.297  -2.656  -0.024  0.00  0.00    -0.343 N 
ATOM      6  C   UNL     1      -0.461  -2.015   1.139  0.00  0.00    +0.048 A 
ATOM      7  C   UNL     1      -0.663  -0.613   1.150  0.00  0.00    +0.001 A 
ATOM      8  C   UNL     1      -0.828   0.054   2.374  0.00  0.00    +0.010 A 
ATOM      9  C   UNL     1      -0.786  -0.654   3.537  0.00  0.00    +0.001 A 
ATOM     10  C   UNL     1      -0.581  -2.031   3.529  0.00  0.00    +0.002 A 
ATOM     11  C   UNL     1      -0.430  -2.711   2.359  0.00  0.00    +0.026 A 
ATOM     12  H   UNL     1      -0.156  -3.615  -0.023  0.00  0.00    +0.167 HD
ENDROOT
BRANCH   4  13
ATOM     13  N   UNL     1      -0.152  -2.715  -2.352  0.00  0.00    -0.329 N 
ATOM     14  H   UNL     1      -0.011  -3.674  -2.327  0.00  0.00    +0.147 HD
BRANCH  13  15
ATOM     15  C   UNL     1      -0.181  -2.011  -3.637  0.00  0.00    +0.126 C 
BRANCH  15  16
ATOM     16  C   UNL     1       0.034  -3.015  -4.772  0.00  0.00    +0.160 C 
BRANCH  16  17
ATOM     17  N   UNL     1       0.005  -2.312  -6.057  0.00  0.00    -0.287 NA
ATOM     18  C   UNL     1       1.059  -2.304  -6.817  0.00  0.00    +0.039 C 
ATOM     19  C   UNL     1       2.180  -3.096  -6.473  0.00  0.00    +0.069 C 
ATOM     20  C   UNL     1       3.287  -3.109  -7.225  0.00  0.00    +0.158 C 
ATOM     21  O   UNL     1       4.328  -3.886  -6.856  0.00  0.00    -0.293 OA
ATOM     22  C   UNL     1       3.394  -2.277  -8.474  0.00  0.00    +0.079 C 
ATOM     23  C   UNL     1       2.006  -2.101  -9.094  0.00  0.00    +0.014 C 
ATOM     24  C   UNL     1       1.078  -1.456  -8.063  0.00  0.00    +0.055 C 
ENDBRANCH  16  17
ENDBRANCH  15  16
ENDBRANCH  13  15
ENDBRANCH   4  13
TORSDOF 4
