REMARK  Name = ZINC20123530
REMARK  6 active torsions:
REMARK  status: ('A' for Active; 'I' for Inactive)
REMARK    1  A    between atoms: C_3  and  N_10
REMARK    2  A    between atoms: C_6  and  C_7
REMARK    3  A    between atoms: C_11  and  S_27
REMARK    4  A    between atoms: N_14  and  C_15
REMARK    5  A    between atoms: S_27  and  C_28
REMARK    6  A    between atoms: C_28  and  C_29
REMARK                            x       y       z     vdW  Elec       q    Type
REMARK                         _______ _______ _______ _____ _____    ______ ____
ROOT
ATOM      1  N   UNL     1       4.662   3.046   2.693  0.00  0.00    -0.268 N 
ATOM      2  C   UNL     1       5.428   4.186   2.746  0.00  0.00    +0.141 C 
ATOM      3  N   UNL     1       6.361   4.202   1.820  0.00  0.00    -0.326 N 
ATOM      4  C   UNL     1       6.337   3.103   1.051  0.00  0.00    +0.111 C 
ATOM      5  N   UNL     1       7.131   2.818   0.047  0.00  0.00    -0.343 N 
ATOM      6  C   UNL     1       5.210   2.265   1.587  0.00  0.00    +0.097 C 
ATOM      7  C   UNL     1       5.690   0.880   2.043  0.00  0.00    +0.034 C 
ATOM      8  C   UNL     1       4.415   0.007   1.996  0.00  0.00    +0.003 C 
ATOM      9  C   UNL     1       3.442   0.699   1.024  0.00  0.00    +0.003 C 
ATOM     10  C   UNL     1       4.156   1.970   0.511  0.00  0.00    +0.034 C 
ATOM     11  H   UNL     1       6.995   4.927   1.706  0.00  0.00    +0.169 HD
ATOM     12  H   UNL     1       7.220   3.439  -0.693  0.00  0.00    +0.167 HD
ENDROOT
BRANCH   5  13
ATOM     13  C   UNL     1       7.835   1.644   0.043  0.00  0.00    +0.041 A 
ATOM     14  C   UNL     1       9.223   1.658   0.197  0.00  0.00    +0.027 A 
ATOM     15  C   UNL     1       9.926   0.471   0.192  0.00  0.00    +0.022 A 
ATOM     16  C   UNL     1       9.258  -0.732   0.035  0.00  0.00    +0.041 A 
ATOM     17  C   UNL     1       7.882  -0.752  -0.119  0.00  0.00    +0.022 A 
ATOM     18  C   UNL     1       7.167   0.427  -0.109  0.00  0.00    +0.027 A 
ATOM     19 CL   UNL     1      10.151  -2.221   0.029  0.00  0.00    -0.084 Cl
ENDBRANCH   5  13
BRANCH   1  22
ATOM     20  C   UNL     1       2.769   2.113   5.687  0.00  0.00    +0.017 A 
ATOM     21  C   UNL     1       3.818   2.447   4.869  0.00  0.00    +0.024 A 
ATOM     22  C   UNL     1       3.595   2.706   3.519  0.00  0.00    +0.037 A 
ATOM     23  C   UNL     1       2.308   2.627   2.994  0.00  0.00    +0.024 A 
ATOM     24  C   UNL     1       1.254   2.293   3.806  0.00  0.00    +0.017 A 
ATOM     25  C   UNL     1       1.474   2.032   5.163  0.00  0.00    +0.063 A 
BRANCH  25  26
ATOM     26  C   UNL     1       0.346   1.673   6.037  0.00  0.00    +0.387 C 
ATOM     27  O   UNL     1       0.539   1.446   7.224  0.00  0.00    -0.241 OA
ATOM     28  O   UNL     1      -0.786   1.602   5.578  0.00  0.00    -0.241 OA
ENDBRANCH  25  26
ENDBRANCH   1  22
BRANCH   2  29
ATOM     29  S   UNL     1       5.186   5.477   3.920  0.00  0.00    -0.080 S 
BRANCH  29  30
ATOM     30  C   UNL     1       6.470   6.691   3.508  0.00  0.00    +0.202 C 
BRANCH  30  31
ATOM     31  C   UNL     1       6.374   7.863   4.450  0.00  0.00    +0.366 C 
ATOM     32  O   UNL     1       5.519   7.878   5.319  0.00  0.00    -0.245 OA
ATOM     33  O   UNL     1       7.151   8.796   4.343  0.00  0.00    -0.245 OA
ENDBRANCH  30  31
ENDBRANCH  29  30
ENDBRANCH   2  29
TORSDOF 6
