REMARK  Name = ZINC36747857
REMARK  11 active torsions:
REMARK  status: ('A' for Active; 'I' for Inactive)
REMARK    1  A    between atoms: C_1  and  C_2
REMARK    2  A    between atoms: C_3  and  C_33
REMARK    3  A    between atoms: C_11  and  C_13
REMARK    4  A    between atoms: C_13  and  S_14
REMARK    5  A    between atoms: S_14  and  C_15
REMARK    6  A    between atoms: C_15  and  C_17
REMARK    7  A    between atoms: C_15  and  C_18
REMARK    8  A    between atoms: N_20  and  C_21
REMARK    9  A    between atoms: N_20  and  C_27
REMARK   10  A    between atoms: C_21  and  C_22
REMARK   11  A    between atoms: C_27  and  C_28
REMARK                            x       y       z     vdW  Elec       q    Type
REMARK                         _______ _______ _______ _____ _____    ______ ____
ROOT
ATOM      1  C   UNL     1      -0.236  -6.527   5.113  0.00  0.00    +0.130 C 
ATOM      2  C   UNL     1      -1.710  -6.264   4.796  0.00  0.00    +0.029 C 
ENDROOT
BRANCH   1   3
ATOM      3  C   UNL     1       0.102  -7.957   4.777  0.00  0.00    +0.229 C 
ATOM      4  O   UNL     1       0.011  -8.349   3.633  0.00  0.00    -0.274 OA
ATOM      5  N   UNL     1       0.505  -8.800   5.748  0.00  0.00    -0.286 N 
BRANCH   5   6
ATOM      6  C   UNL     1       0.921 -10.163   5.409  0.00  0.00    +0.182 C 
BRANCH   6   7
ATOM      7  C   UNL     1       2.384 -10.166   5.045  0.00  0.00    +0.122 A 
ATOM      8  C   UNL     1       3.402 -10.432   5.883  0.00  0.00    +0.046 A 
ATOM      9  C   UNL     1       4.593 -10.322   5.128  0.00  0.00    +0.041 A 
ATOM     10  C   UNL     1       4.230  -9.996   3.874  0.00  0.00    +0.195 A 
ATOM     11  O   UNL     1       2.891  -9.908   3.828  0.00  0.00    -0.466 OA
ENDBRANCH   6   7
ENDBRANCH   5   6
BRANCH   5  12
ATOM     12  C   UNL     1       0.526  -8.354   7.143  0.00  0.00    +0.182 C 
BRANCH  12  13
ATOM     13  C   UNL     1      -0.809  -8.637   7.782  0.00  0.00    +0.122 A 
ATOM     14  C   UNL     1      -1.185  -9.805   8.335  0.00  0.00    +0.046 A 
ATOM     15  C   UNL     1      -2.505  -9.627   8.809  0.00  0.00    +0.041 A 
ATOM     16  C   UNL     1      -2.857  -8.362   8.518  0.00  0.00    +0.195 A 
ATOM     17  O   UNL     1      -1.824  -7.765   7.901  0.00  0.00    -0.466 OA
ENDBRANCH  12  13
ENDBRANCH   5  12
ENDBRANCH   1   3
BRANCH   1  18
ATOM     18  S   UNL     1       0.802  -5.413   4.128  0.00  0.00    -0.141 S 
BRANCH  18  19
ATOM     19  C   UNL     1       0.388  -3.761   4.751  0.00  0.00    +0.144 C 
BRANCH  19  30
ATOM     20  C   UNL     1       3.518   1.485   1.989  0.00  0.00    +0.045 C 
ATOM     21  C   UNL     1       3.518  -0.013   1.824  0.00  0.00    -0.026 A 
ATOM     22  C   UNL     1       4.317  -0.596   0.915  0.00  0.00    -0.008 A 
ATOM     23  S   UNL     1       3.958  -2.332   1.105  0.00  0.00    -0.073 S 
ATOM     24  C   UNL     1       2.748  -2.224   2.397  0.00  0.00    +0.116 A 
ATOM     25  C   UNL     1       2.660  -0.842   2.649  0.00  0.00    +0.075 A 
ATOM     26  C   UNL     1       1.737  -0.457   3.675  0.00  0.00    +0.260 A 
ATOM     27  O   UNL     1       1.587   0.717   3.963  0.00  0.00    -0.267 OA
ATOM     28  N   UNL     1       1.039  -1.413   4.315  0.00  0.00    -0.310 N 
ATOM     29  H   UNL     1       0.412  -1.159   5.011  0.00  0.00    +0.170 HD
ATOM     30  C   UNL     1       1.192  -2.727   4.007  0.00  0.00    +0.121 A 
ATOM     31  N   UNL     1       2.019  -3.109   3.070  0.00  0.00    -0.226 NA
ATOM     32  C   UNL     1       5.284   0.060  -0.036  0.00  0.00    +0.052 C 
ENDBRANCH  19  30
ENDBRANCH  18  19
ENDBRANCH   1  18
TORSDOF 8
