REMARK  Name = ZINC13204178
REMARK  7 active torsions:
REMARK  status: ('A' for Active; 'I' for Inactive)
REMARK    1  A    between atoms: C_6  and  C_7
REMARK    2  A    between atoms: C_10  and  S_15
REMARK    3  A    between atoms: N_11  and  C_12
REMARK    4  A    between atoms: C_12  and  C_13
REMARK    5  A    between atoms: S_15  and  C_16
REMARK    6  A    between atoms: C_16  and  C_17
REMARK    7  A    between atoms: N_19  and  C_20
REMARK                            x       y       z     vdW  Elec       q    Type
REMARK                         _______ _______ _______ _____ _____    ______ ____
ROOT
ATOM      1  C   UNL     1      -1.917   0.858   2.559  0.00  0.00    +0.165 A 
ATOM      2  N   UNL     1      -2.316   1.833   3.341  0.00  0.00    -0.128 NA
ATOM      3  N   UNL     1      -1.448   2.780   3.340  0.00  0.00    -0.122 NA
ATOM      4  C   UNL     1      -0.437   2.465   2.561  0.00  0.00    +0.193 A 
ATOM      5  N   UNL     1      -0.703   1.233   2.033  0.00  0.00    -0.291 N 
ENDROOT
BRANCH   1  11
ATOM      6  C   UNL     1      -2.312  -1.176   1.176  0.00  0.00    +0.013 A 
ATOM      7  C   UNL     1      -2.983  -2.357   0.936  0.00  0.00    +0.021 A 
ATOM      8  C   UNL     1      -3.983  -2.775   1.798  0.00  0.00    +0.041 A 
ATOM      9  C   UNL     1      -4.313  -2.013   2.906  0.00  0.00    +0.021 A 
ATOM     10  C   UNL     1      -3.646  -0.833   3.158  0.00  0.00    +0.013 A 
ATOM     11  C   UNL     1      -2.636  -0.407   2.294  0.00  0.00    +0.019 A 
ATOM     12 CL   UNL     1      -4.828  -4.259   1.486  0.00  0.00    -0.084 Cl
ENDBRANCH   1  11
BRANCH   5  13
ATOM     13  C   UNL     1       0.134   0.470   1.104  0.00  0.00    +0.250 C 
BRANCH  13  14
ATOM     14  C   UNL     1      -0.230   0.830  -0.313  0.00  0.00    +0.375 C 
ATOM     15  O   UNL     1      -1.099   1.642  -0.526  0.00  0.00    -0.244 OA
ATOM     16  O   UNL     1       0.411   0.249  -1.339  0.00  0.00    -0.244 OA
ENDBRANCH  13  14
ENDBRANCH   5  13
BRANCH   4  17
ATOM     17  S   UNL     1       0.992   3.448   2.253  0.00  0.00    -0.077 S 
BRANCH  17  18
ATOM     18  C   UNL     1       0.612   4.886   3.284  0.00  0.00    +0.173 C 
BRANCH  18  19
ATOM     19  C   UNL     1       1.729   5.892   3.175  0.00  0.00    +0.227 C 
ATOM     20  O   UNL     1       2.688   5.659   2.470  0.00  0.00    -0.275 OA
ATOM     21  N   UNL     1       1.663   7.050   3.862  0.00  0.00    -0.285 N 
ATOM     22  H   UNL     1       0.936   7.203   4.486  0.00  0.00    +0.155 HD
BRANCH  21  23
ATOM     23  C   UNL     1       2.642   8.031   3.674  0.00  0.00    +0.034 A 
ATOM     24  C   UNL     1       3.235   8.195   2.429  0.00  0.00    +0.023 A 
ATOM     25  C   UNL     1       4.200   9.165   2.250  0.00  0.00    +0.006 A 
ATOM     26  C   UNL     1       4.581   9.976   3.307  0.00  0.00    -0.044 A 
ATOM     27  C   UNL     1       3.993   9.815   4.547  0.00  0.00    -0.042 A 
ATOM     28  C   UNL     1       3.020   8.848   4.730  0.00  0.00    +0.027 A 
ATOM     29  C   UNL     1       4.576  10.814   5.524  0.00  0.00    +0.036 C 
ATOM     30  C   UNL     1       5.261  11.884   4.646  0.00  0.00    +0.009 C 
ATOM     31  C   UNL     1       5.601  11.094   3.365  0.00  0.00    +0.036 C 
ENDBRANCH  21  23
ENDBRANCH  18  19
ENDBRANCH  17  18
ENDBRANCH   4  17
TORSDOF 7
