REMARK  Name = ZINC01045331
REMARK  4 active torsions:
REMARK  status: ('A' for Active; 'I' for Inactive)
REMARK    1  A    between atoms: C_1  and  C_2
REMARK    2  A    between atoms: C_2  and  C_3
REMARK    3  A    between atoms: C_8  and  C_12
REMARK    4  A    between atoms: C_8  and  C_18
REMARK                            x       y       z     vdW  Elec       q    Type
REMARK                         _______ _______ _______ _____ _____    ______ ____
ROOT
ATOM      1  C   UNL     1       2.094   1.415  -1.162  0.00  0.00    +0.229 C 
ATOM      2  O   UNL     1       2.099   0.391  -1.803  0.00  0.00    -0.275 OA
ATOM      3  N   UNL     1       0.946   1.865  -0.619  0.00  0.00    -0.161 N 
ATOM      4  C   UNL     1      -0.243   1.242  -0.738  0.00  0.00    +0.262 C 
ATOM      5  O   UNL     1      -0.472   0.213  -1.328  0.00  0.00    -0.272 OA
ATOM      6  C   UNL     1      -1.235   2.103   0.018  0.00  0.00    +0.164 C 
ATOM      7  N   UNL     1      -0.411   3.212   0.530  0.00  0.00    -0.277 N 
ATOM      8  C   UNL     1       0.845   2.986   0.103  0.00  0.00    +0.316 C 
ATOM      9  O   UNL     1       1.783   3.719   0.347  0.00  0.00    -0.252 OA
ATOM     10  H   UNL     1      -0.715   3.961   1.066  0.00  0.00    +0.152 HD
ENDROOT
BRANCH   6  11
ATOM     11  C   UNL     1      -2.305   2.618  -0.909  0.00  0.00    -0.011 A 
ATOM     12  C   UNL     1      -2.957   1.748  -1.763  0.00  0.00    +0.006 A 
ATOM     13  C   UNL     1      -3.941   2.220  -2.611  0.00  0.00    +0.000 A 
ATOM     14  C   UNL     1      -4.268   3.564  -2.611  0.00  0.00    +0.000 A 
ATOM     15  C   UNL     1      -3.612   4.434  -1.761  0.00  0.00    +0.000 A 
ATOM     16  C   UNL     1      -2.630   3.962  -0.910  0.00  0.00    +0.006 A 
ENDBRANCH   6  11
BRANCH   6  17
ATOM     17  C   UNL     1      -1.847   1.331   1.159  0.00  0.00    -0.011 A 
ATOM     18  C   UNL     1      -2.405   0.087   0.930  0.00  0.00    +0.006 A 
ATOM     19  C   UNL     1      -2.962  -0.623   1.977  0.00  0.00    +0.000 A 
ATOM     20  C   UNL     1      -2.969  -0.086   3.251  0.00  0.00    +0.000 A 
ATOM     21  C   UNL     1      -2.415   1.160   3.478  0.00  0.00    +0.000 A 
ATOM     22  C   UNL     1      -1.854   1.869   2.432  0.00  0.00    +0.006 A 
ENDBRANCH   6  17
BRANCH   1  24
ATOM     23  C   UNL     1       4.519   1.467  -1.682  0.00  0.00    +0.013 C 
ATOM     24  C   UNL     1       3.373   2.189  -0.970  0.00  0.00    +0.093 C 
ENDBRANCH   1  24
TORSDOF 3
