REMARK  Name = ZINC39684142
REMARK  6 active torsions:
REMARK  status: ('A' for Active; 'I' for Inactive)
REMARK    1  A    between atoms: C_1  and  C_2
REMARK    2  A    between atoms: C_7  and  C_11
REMARK    3  A    between atoms: C_11  and  C_12
REMARK    4  A    between atoms: C_12  and  N_13
REMARK    5  A    between atoms: C_14  and  C_16
REMARK    6  A    between atoms: C_27  and  C_29
REMARK                            x       y       z     vdW  Elec       q    Type
REMARK                         _______ _______ _______ _____ _____    ______ ____
ROOT
ATOM      1  C   UNL     1      -8.251   1.264  -6.116  0.00  0.00    +0.100 C 
ATOM      2  C   UNL     1      -7.937   2.522  -6.956  0.00  0.00    +0.121 C 
ATOM      3  N   UNL     1      -7.693   2.008  -8.325  0.00  0.00    -0.296 N 
ATOM      4  C   UNL     1      -8.701   0.935  -8.501  0.00  0.00    +0.115 C 
ATOM      5  C   UNL     1      -8.755   0.226  -7.133  0.00  0.00    -0.004 C 
ATOM      6  C   UNL     1      -7.842  -0.997  -7.138  0.00  0.00    -0.010 C 
ATOM      7  C   UNL     1      -8.396  -2.038  -8.115  0.00  0.00    -0.082 C 
ATOM      8  N   UNL     1      -9.754  -2.418  -7.709  0.00  0.00    +0.379 N 
ATOM      9  C   UNL     1     -10.647  -1.256  -7.796  0.00  0.00    -0.082 C 
ATOM     10  C   UNL     1     -10.189  -0.182  -6.806  0.00  0.00    -0.010 C 
ATOM     11  C   UNL     1      -6.764   2.421  -9.209  0.00  0.00    +0.248 C 
ATOM     12  O   UNL     1      -6.749   1.963 -10.334  0.00  0.00    -0.270 OA
ATOM     13  H   UNL     1     -10.094  -3.148  -8.318  0.00  0.00    -0.086 HD
ATOM     14  H   UNL     1      -9.738  -2.757  -6.759  0.00  0.00    -0.086 HD
ENDROOT
BRANCH  11  15
ATOM     15  C   UNL     1      -5.763   3.432  -8.810  0.00  0.00    +0.057 A 
ATOM     16  C   UNL     1      -6.116   4.463  -7.937  0.00  0.00    +0.014 A 
ATOM     17  C   UNL     1      -5.178   5.404  -7.568  0.00  0.00    +0.002 A 
ATOM     18  C   UNL     1      -3.887   5.329  -8.061  0.00  0.00    +0.021 A 
ATOM     19  C   UNL     1      -3.527   4.312  -8.927  0.00  0.00    +0.060 A 
ATOM     20  C   UNL     1      -4.457   3.358  -9.300  0.00  0.00    +0.071 A 
ATOM     21 CL   UNL     1      -4.004   2.077 -10.380  0.00  0.00    -0.081 Cl
ATOM     22 CL   UNL     1      -1.906   4.228  -9.540  0.00  0.00    -0.082 Cl
ENDBRANCH  11  15
BRANCH   1  24
ATOM     23  N   UNL     1      -7.099   0.077  -4.277  0.00  0.00    -0.315 N 
ATOM     24  C   UNL     1      -7.005   0.765  -5.432  0.00  0.00    +0.218 C 
ATOM     25  O   UNL     1      -5.916   0.983  -5.921  0.00  0.00    -0.275 OA
ATOM     26  H   UNL     1      -7.969  -0.097  -3.886  0.00  0.00    +0.149 HD
BRANCH  23  27
ATOM     27  C   UNL     1      -5.887  -0.407  -3.612  0.00  0.00    +0.109 C 
BRANCH  27  28
ATOM     28  C   UNL     1      -6.271  -1.151  -2.331  0.00  0.00    +0.056 C 
BRANCH  28  35
ATOM     29  C   UNL     1      -1.044  -2.241   0.959  0.00  0.00    +0.046 C 
ATOM     30  C   UNL     1      -2.163  -1.321   0.542  0.00  0.00    -0.027 A 
ATOM     31  C   UNL     1      -2.222  -0.036   1.036  0.00  0.00    +0.005 A 
ATOM     32  C   UNL     1      -3.247   0.821   0.660  0.00  0.00    +0.001 A 
ATOM     33  C   UNL     1      -4.216   0.405  -0.209  0.00  0.00    +0.010 A 
ATOM     34  C   UNL     1      -4.176  -0.893  -0.722  0.00  0.00    +0.003 A 
ATOM     35  C   UNL     1      -5.024  -1.649  -1.647  0.00  0.00    -0.021 A 
ATOM     36  C   UNL     1      -4.481  -2.870  -1.768  0.00  0.00    +0.087 A 
ATOM     37  N   UNL     1      -3.353  -2.958  -0.997  0.00  0.00    -0.360 N 
ATOM     38  C   UNL     1      -3.136  -1.764  -0.348  0.00  0.00    +0.050 A 
ATOM     39  H   UNL     1      -2.790  -3.744  -0.922  0.00  0.00    +0.165 HD
ENDBRANCH  28  35
ENDBRANCH  27  28
ENDBRANCH  23  27
ENDBRANCH   1  24
TORSDOF 5
