REMARK  Name = ZINC36522899
REMARK  20 active torsions:
REMARK  status: ('A' for Active; 'I' for Inactive)
REMARK    1  A    between atoms: C_1  and  C_2
REMARK    2  A    between atoms: C_2  and  C_3
REMARK    3  A    between atoms: C_3  and  C_4
REMARK    4  A    between atoms: C_4  and  C_5
REMARK    5  A    between atoms: C_5  and  C_6
REMARK    6  A    between atoms: C_6  and  N_7
REMARK    7  A    between atoms: N_7  and  C_8
REMARK    8  A    between atoms: C_8  and  C_10
REMARK    9  A    between atoms: C_8  and  C_15
REMARK   10  A    between atoms: C_11  and  C_12
REMARK   11  A    between atoms: C_12  and  C_13
REMARK   12  A    between atoms: C_13  and  C_14
REMARK   13  A    between atoms: N_17  and  C_18
REMARK   14  A    between atoms: C_18  and  S_19
REMARK   15  A    between atoms: S_19  and  C_22
REMARK   16  A    between atoms: C_25  and  C_28
REMARK   17  A    between atoms: C_29  and  C_31
REMARK   18  A    between atoms: C_31  and  C_32
REMARK   19  A    between atoms: C_32  and  C_33
REMARK   20  A    between atoms: C_33  and  C_34
REMARK                            x       y       z     vdW  Elec       q    Type
REMARK                         _______ _______ _______ _____ _____    ______ ____
ROOT
ATOM      1  C   UNL     1       3.609  -4.748  -3.716  0.00  0.00    +0.185 C 
ENDROOT
BRANCH   1   2
ATOM      2  C   UNL     1       3.898  -6.191  -4.039  0.00  0.00    +0.239 C 
ATOM      3  O   UNL     1       2.985  -6.957  -4.265  0.00  0.00    -0.273 OA
ATOM      4  N   UNL     1       5.171  -6.631  -4.077  0.00  0.00    -0.294 N 
ATOM      5  H   UNL     1       5.902  -6.019  -3.897  0.00  0.00    +0.150 HD
BRANCH   4   6
ATOM      6  C   UNL     1       5.453  -8.034  -4.391  0.00  0.00    +0.278 C 
BRANCH   6   7
ATOM      7  S   UNL     1       5.799  -8.200  -6.164  0.00  0.00    +0.013 S 
ATOM      8  O   UNL     1       6.136  -9.545  -6.473  0.00  0.00    -0.168 OA
ATOM      9  O   UNL     1       4.817  -7.506  -6.921  0.00  0.00    -0.168 OA
BRANCH   7  10
ATOM     10  C   UNL     1       7.288  -7.293  -6.421  0.00  0.00    +0.090 A 
ATOM     11  C   UNL     1       7.233  -5.948  -6.733  0.00  0.00    +0.027 A 
ATOM     12  C   UNL     1       8.401  -5.237  -6.935  0.00  0.00    +0.005 A 
ATOM     13  C   UNL     1       9.624  -5.871  -6.823  0.00  0.00    -0.050 A 
ATOM     14  C   UNL     1       9.680  -7.216  -6.510  0.00  0.00    +0.005 A 
ATOM     15  C   UNL     1       8.511  -7.926  -6.304  0.00  0.00    +0.027 A 
ATOM     16  C   UNL     1      10.898  -5.096  -7.044  0.00  0.00    +0.044 C 
ENDBRANCH   7  10
ENDBRANCH   6   7
ENDBRANCH   4   6
ENDBRANCH   1   2
BRANCH   1  17
ATOM     17  N   UNL     1       2.162  -4.523  -3.738  0.00  0.00    -0.286 N 
ATOM     18  C   UNL     1       1.461  -4.751  -4.866  0.00  0.00    +0.216 C 
ATOM     19  O   UNL     1       2.028  -5.142  -5.864  0.00  0.00    -0.276 OA
BRANCH  18  20
ATOM     20  C   UNL     1      -0.028  -4.520  -4.888  0.00  0.00    +0.096 C 
BRANCH  20  21
ATOM     21  C   UNL     1      -0.575  -4.851  -6.278  0.00  0.00    +0.009 C 
BRANCH  21  22
ATOM     22  C   UNL     1      -2.087  -4.616  -6.300  0.00  0.00    -0.003 C 
ATOM     23  C   UNL     1      -2.634  -4.948  -7.690  0.00  0.00    +0.004 C 
ENDBRANCH  21  22
ENDBRANCH  20  21
ENDBRANCH  18  20
BRANCH  17  24
ATOM     24  C   UNL     1       1.476  -4.051  -2.532  0.00  0.00    +0.109 C 
BRANCH  24  25
ATOM     25  C   UNL     1       1.455  -2.521  -2.524  0.00  0.00    +0.019 C 
BRANCH  25  26
ATOM     26  C   UNL     1       0.739  -2.027  -1.265  0.00  0.00    +0.002 C 
BRANCH  26  27
ATOM     27  C   UNL     1       0.718  -0.497  -1.257  0.00  0.00    -0.000 C 
BRANCH  27  29
ATOM     28  C   UNL     1      -0.019   1.526   0.010  0.00  0.00    +0.004 C 
ATOM     29  C   UNL     1       0.002  -0.004   0.002  0.00  0.00    -0.003 C 
ENDBRANCH  27  29
ENDBRANCH  26  27
ENDBRANCH  25  26
ENDBRANCH  24  25
ENDBRANCH  17  24
ENDBRANCH   1  17
BRANCH   1  30
ATOM     30  C   UNL     1       4.270  -3.862  -4.741  0.00  0.00    +0.000 C 
ATOM     31  C   UNL     1       3.558  -2.987  -5.407  0.00  0.00    -0.029 C 
BRANCH  31  32
ATOM     32  C   UNL     1       4.219  -2.101  -6.431  0.00  0.00    +0.027 C 
BRANCH  32  33
ATOM     33  C   UNL     1       3.503  -2.252  -7.775  0.00  0.00    +0.001 C 
ATOM     34  C   UNL     1       4.174  -1.353  -8.815  0.00  0.00    +0.004 C 
ENDBRANCH  32  33
ENDBRANCH  31  32
ENDBRANCH   1  30
TORSDOF 16
