REMARK  Name = ZINC50959899
REMARK  12 active torsions:
REMARK  status: ('A' for Active; 'I' for Inactive)
REMARK    1  A    between atoms: C_1  and  O_2
REMARK    2  A    between atoms: O_2  and  C_3
REMARK    3  A    between atoms: C_3  and  C_4
REMARK    4  A    between atoms: C_4  and  N_5
REMARK    5  A    between atoms: N_5  and  C_6
REMARK    6  A    between atoms: N_5  and  C_12
REMARK    7  A    between atoms: C_6  and  C_7
REMARK    8  A    between atoms: C_12  and  C_13
REMARK    9  A    between atoms: C_16  and  C_18
REMARK   10  A    between atoms: C_21  and  C_24
REMARK   11  A    between atoms: C_24  and  O_26
REMARK   12  A    between atoms: O_26  and  C_27
REMARK                            x       y       z     vdW  Elec       q    Type
REMARK                         _______ _______ _______ _____ _____    ______ ____
ROOT
ATOM      1  C   UNL     1      -0.420  -4.131  -0.814  0.00  0.00    +0.033 A 
ATOM      2  C   UNL     1      -0.915  -4.083  -2.082  0.00  0.00    +0.068 A 
ATOM      3  S   UNL     1      -2.649  -4.386  -1.770  0.00  0.00    -0.075 S 
ATOM      4  C   UNL     1      -2.527  -4.544   0.007  0.00  0.00    +0.108 A 
ATOM      5  N   UNL     1      -1.226  -4.363   0.193  0.00  0.00    -0.246 NA
ENDROOT
BRANCH   4   6
ATOM      6  C   UNL     1      -3.588  -4.810   0.999  0.00  0.00    +0.007 A 
ATOM      7  C   UNL     1      -3.270  -4.888   2.358  0.00  0.00    +0.011 A 
ATOM      8  C   UNL     1      -4.255  -5.134   3.280  0.00  0.00    +0.015 A 
ATOM      9  C   UNL     1      -5.577  -5.306   2.860  0.00  0.00    +0.059 A 
ATOM     10  C   UNL     1      -5.895  -5.227   1.501  0.00  0.00    +0.015 A 
ATOM     11  C   UNL     1      -4.911  -4.976   0.581  0.00  0.00    +0.011 A 
BRANCH   9  12
ATOM     12  C   UNL     1      -6.637  -5.571   3.852  0.00  0.00    +0.339 C 
ATOM     13  O   UNL     1      -6.361  -5.640   5.033  0.00  0.00    -0.245 OA
BRANCH  12  14
ATOM     14  O   UNL     1      -7.912  -5.736   3.448  0.00  0.00    -0.464 OA
ATOM     15  C   UNL     1      -8.886  -5.989   4.462  0.00  0.00    +0.280 C 
ENDBRANCH  12  14
ENDBRANCH   9  12
ENDBRANCH   4   6
BRANCH   1  16
ATOM     16  C   UNL     1       1.052  -3.924  -0.570  0.00  0.00    -0.021 C 
BRANCH  16  17
ATOM     17  N   UNL     1       1.300  -2.516  -0.231  0.00  0.00    +0.390 N 
ATOM     18  H   UNL     1       0.925  -1.925  -0.958  0.00  0.00    -0.081 HD
BRANCH  17  19
ATOM     19  C   UNL     1       0.645  -2.198   1.045  0.00  0.00    -0.049 C 
BRANCH  19  20
ATOM     20  C   UNL     1       0.776  -0.699   1.325  0.00  0.00    +0.141 C 
BRANCH  20  22
ATOM     21  C   UNL     1       0.139   1.454   0.486  0.00  0.00    +0.193 C 
ATOM     22  O   UNL     1       0.079   0.036   0.317  0.00  0.00    -0.385 OA
ENDBRANCH  20  22
ENDBRANCH  19  20
ENDBRANCH  17  19
BRANCH  17  23
ATOM     23  C   UNL     1       2.746  -2.288  -0.110  0.00  0.00    -0.003 C 
BRANCH  23  24
ATOM     24  C   UNL     1       3.399  -2.482  -1.454  0.00  0.00    +0.089 A 
ATOM     25  C   UNL     1       3.506  -1.550  -2.419  0.00  0.00    +0.042 A 
ATOM     26  C   UNL     1       4.184  -2.157  -3.501  0.00  0.00    +0.041 A 
ATOM     27  C   UNL     1       4.450  -3.423  -3.134  0.00  0.00    +0.195 A 
ATOM     28  O   UNL     1       3.978  -3.613  -1.891  0.00  0.00    -0.470 OA
ENDBRANCH  23  24
ENDBRANCH  17  23
ENDBRANCH  16  17
ENDBRANCH   1  16
TORSDOF 10
