REMARK  Name = ZINC32879761
REMARK  6 active torsions:
REMARK  status: ('A' for Active; 'I' for Inactive)
REMARK    1  A    between atoms: C_1  and  C_2
REMARK    2  A    between atoms: C_7  and  C_10
REMARK    3  A    between atoms: C_11  and  C_13
REMARK    4  A    between atoms: C_13  and  C_15
REMARK    5  A    between atoms: C_13  and  N_16
REMARK    6  A    between atoms: C_19  and  C_22
REMARK                            x       y       z     vdW  Elec       q    Type
REMARK                         _______ _______ _______ _____ _____    ______ ____
ROOT
ATOM      1  N   UNL     1       0.990   9.281   0.042  0.00  0.00    +0.387 N 
ATOM      2  C   UNL     1       1.246   8.496  -1.172  0.00  0.00    -0.077 C 
ATOM      3  C   UNL     1       0.304   7.290  -1.209  0.00  0.00    -0.011 C 
ATOM      4  C   UNL     1       0.535   6.430   0.036  0.00  0.00    +0.018 C 
ATOM      5  C   UNL     1       0.309   7.284   1.286  0.00  0.00    -0.011 C 
ATOM      6  C   UNL     1       1.251   8.490   1.251  0.00  0.00    -0.077 C 
ATOM      7  H   UNL     1      -0.075   9.557   0.045  0.00  0.00    -0.081 HD
ENDROOT
BRANCH   4   8
ATOM      8  C   UNL     1      -0.431   5.273   0.035  0.00  0.00    -0.019 A 
ATOM      9  C   UNL     1      -1.772   5.352   0.042  0.00  0.00    +0.087 A 
ATOM     10  N   UNL     1      -2.313   4.096   0.039  0.00  0.00    -0.360 N 
ATOM     11  H   UNL     1      -3.406   3.968   0.044  0.00  0.00    +0.165 HD
ATOM     12  C   UNL     1      -1.309   3.153   0.030  0.00  0.00    +0.047 A 
ATOM     13  C   UNL     1      -0.087   3.849   0.027  0.00  0.00    +0.003 A 
ATOM     14  C   UNL     1       1.117   3.143   0.019  0.00  0.00    +0.010 A 
ATOM     15  C   UNL     1       1.101   1.776   0.013  0.00  0.00    +0.001 A 
ATOM     16  C   UNL     1      -0.102   1.085   0.017  0.00  0.00    +0.002 A 
ATOM     17  C   UNL     1      -1.302   1.763   0.019  0.00  0.00    +0.026 A 
ENDBRANCH   4   8
BRANCH   1  18
ATOM     18  C   UNL     1       1.780  10.520   0.043  0.00  0.00    +0.016 C 
ATOM     19  C   UNL     1       3.269  10.176   0.112  0.00  0.00    -0.004 C 
BRANCH  18  28
ATOM     20  C   UNL     1       1.094  15.672   3.420  0.00  0.00    +0.039 C 
ATOM     21  C   UNL     1       1.188  14.770   2.188  0.00  0.00    +0.133 C 
ATOM     22  C   UNL     1       1.663  13.375   2.609  0.00  0.00    +0.139 C 
ATOM     23  N   UNL     1       1.925  12.587   1.394  0.00  0.00    -0.298 N 
ATOM     24  C   UNL     1       2.782  13.182   0.356  0.00  0.00    +0.139 C 
ATOM     25  C   UNL     1       2.248  14.589   0.042  0.00  0.00    +0.133 C 
ATOM     26  O   UNL     1       2.124  15.326   1.260  0.00  0.00    -0.371 OA
ATOM     27  C   UNL     1       0.878  14.481  -0.632  0.00  0.00    +0.039 C 
ATOM     28  C   UNL     1       1.401  11.355   1.239  0.00  0.00    +0.202 C 
ATOM     29  O   UNL     1       0.625  10.919   2.062  0.00  0.00    -0.277 OA
ENDBRANCH  18  28
ENDBRANCH   1  18
TORSDOF 3
