REMARK  Name = ZINC67232331
REMARK  11 active torsions:
REMARK  status: ('A' for Active; 'I' for Inactive)
REMARK    1  A    between atoms: C_1  and  N_2
REMARK    2  A    between atoms: N_2  and  C_3
REMARK    3  A    between atoms: N_2  and  C_24
REMARK    4  A    between atoms: C_3  and  C_4
REMARK    5  A    between atoms: C_4  and  N_5
REMARK    6  A    between atoms: C_6  and  C_8
REMARK    7  A    between atoms: C_8  and  C_9
REMARK    8  A    between atoms: C_9  and  C_10
REMARK    9  A    between atoms: C_10  and  C_11
REMARK   10  A    between atoms: C_11  and  C_12
REMARK   11  A    between atoms: C_24  and  C_25
REMARK                            x       y       z     vdW  Elec       q    Type
REMARK                         _______ _______ _______ _____ _____    ______ ____
ROOT
ATOM      1  N   UNL     1       2.889  -0.551   2.306  0.00  0.00    -0.317 N 
ATOM      2  C   UNL     1       4.203  -0.293   2.458  0.00  0.00    +0.213 C 
ATOM      3  O   UNL     1       4.799   0.340   1.613  0.00  0.00    -0.276 OA
ATOM      4  H   UNL     1       2.412  -1.058   2.982  0.00  0.00    +0.149 HD
ENDROOT
BRANCH   1   5
ATOM      5  C   UNL     1       2.180  -0.066   1.119  0.00  0.00    +0.085 C 
BRANCH   5   6
ATOM      6  C   UNL     1       0.713  -0.491   1.192  0.00  0.00    -0.060 C 
BRANCH   6   8
ATOM      7  C   UNL     1      -0.018   1.465   0.010  0.00  0.00    -0.096 C 
ATOM      8  N   UNL     1       0.002  -0.004   0.002  0.00  0.00    +0.382 N 
ATOM      9  H   UNL     1       0.474  -0.330  -0.828  0.00  0.00    -0.082 HD
BRANCH   8  10
ATOM     10  C   UNL     1      -1.376  -0.512   0.012  0.00  0.00    -0.043 C 
BRANCH  10  11
ATOM     11  C   UNL     1      -2.067  -0.116  -1.267  0.00  0.00    -0.064 A 
ATOM     12  C   UNL     1      -2.750   1.083  -1.340  0.00  0.00    +0.002 A 
ATOM     13  C   UNL     1      -3.385   1.447  -2.513  0.00  0.00    +0.000 A 
ATOM     14  C   UNL     1      -3.335   0.611  -3.613  0.00  0.00    +0.000 A 
ATOM     15  C   UNL     1      -2.652  -0.588  -3.540  0.00  0.00    +0.000 A 
ATOM     16  C   UNL     1      -2.014  -0.950  -2.368  0.00  0.00    +0.002 A 
ENDBRANCH  10  11
ENDBRANCH   8  10
ENDBRANCH   6   8
ENDBRANCH   5   6
ENDBRANCH   1   5
BRANCH   2  17
ATOM     17  C   UNL     1       4.932  -0.793   3.679  0.00  0.00    +0.096 C 
BRANCH  17  18
ATOM     18  C   UNL     1       6.400  -0.367   3.606  0.00  0.00    +0.009 C 
BRANCH  18  19
ATOM     19  C   UNL     1       7.140  -0.874   4.846  0.00  0.00    +0.002 C 
BRANCH  19  20
ATOM     20  C   UNL     1       8.608  -0.449   4.773  0.00  0.00    +0.016 C 
BRANCH  20  21
ATOM     21  C   UNL     1       9.348  -0.956   6.012  0.00  0.00    +0.069 C 
ATOM     22  C   UNL     1      10.808  -0.586   5.964  0.00  0.00    +0.108 C 
ATOM     23  C   UNL     1      10.965   0.885   6.460  0.00  0.00    +0.105 C 
ATOM     24  C   UNL     1      10.396   0.898   7.877  0.00  0.00    +0.093 C 
ATOM     25  S   UNL     1       8.812  -0.042   7.533  0.00  0.00    -0.154 S 
ATOM     26  N   UNL     1      12.377   1.066   6.212  0.00  0.00    -0.294 N 
ATOM     27  C   UNL     1      12.652   0.311   5.106  0.00  0.00    +0.300 C 
ATOM     28  O   UNL     1      13.678   0.411   4.461  0.00  0.00    -0.253 OA
ATOM     29  N   UNL     1      11.644  -0.550   4.801  0.00  0.00    -0.294 N 
ATOM     30  H   UNL     1      12.998   1.608   6.723  0.00  0.00    +0.151 HD
ATOM     31  H   UNL     1      11.524  -1.040   3.972  0.00  0.00    +0.151 HD
ENDBRANCH  20  21
ENDBRANCH  19  20
ENDBRANCH  18  19
ENDBRANCH  17  18
ENDBRANCH   2  17
TORSDOF 10
