REMARK  Name = ZINC64050683
REMARK  9 active torsions:
REMARK  status: ('A' for Active; 'I' for Inactive)
REMARK    1  A    between atoms: C_1  and  C_2
REMARK    2  A    between atoms: C_2  and  C_4
REMARK    3  A    between atoms: C_2  and  O_15
REMARK    4  A    between atoms: C_4  and  C_6
REMARK    5  A    between atoms: O_15  and  C_16
REMARK    6  A    between atoms: C_16  and  C_18
REMARK    7  A    between atoms: N_26  and  C_29
REMARK    8  A    between atoms: C_32  and  N_35
REMARK    9  A    between atoms: C_36  and  C_38
REMARK                            x       y       z     vdW  Elec       q    Type
REMARK                         _______ _______ _______ _____ _____    ______ ____
ROOT
ATOM      1  C   UNL     1       2.780  -1.215   2.205  0.00  0.00    +0.060 A 
ATOM      2  C   UNL     1       2.179  -1.293   3.462  0.00  0.00    +0.016 A 
ATOM      3  C   UNL     1       2.923  -1.657   4.571  0.00  0.00    +0.014 A 
ATOM      4  C   UNL     1       4.272  -1.945   4.434  0.00  0.00    +0.050 A 
ATOM      5  C   UNL     1       4.886  -1.869   3.167  0.00  0.00    +0.051 A 
ATOM      6  C   UNL     1       4.139  -1.510   2.058  0.00  0.00    +0.028 A 
ATOM      7  C   UNL     1       6.302  -2.233   3.381  0.00  0.00    +0.258 C 
ATOM      8  O   UNL     1       7.159  -2.283   2.521  0.00  0.00    -0.269 OA
ATOM      9  N   UNL     1       6.485  -2.501   4.686  0.00  0.00    -0.202 N 
ATOM     10  C   UNL     1       5.339  -2.355   5.375  0.00  0.00    +0.258 C 
ATOM     11  O   UNL     1       5.203  -2.528   6.569  0.00  0.00    -0.269 OA
ENDROOT
BRANCH   9  12
ATOM     12  C   UNL     1       7.709  -2.882   5.254  0.00  0.00    +0.045 A 
ATOM     13  C   UNL     1       8.839  -2.998   4.455  0.00  0.00    +0.026 A 
ATOM     14  C   UNL     1      10.044  -3.373   5.014  0.00  0.00    +0.025 A 
ATOM     15  C   UNL     1      10.127  -3.633   6.376  0.00  0.00    +0.033 A 
ATOM     16  C   UNL     1       8.997  -3.516   7.175  0.00  0.00    +0.025 A 
ATOM     17  C   UNL     1       7.793  -3.136   6.617  0.00  0.00    +0.026 A 
BRANCH  15  18
ATOM     18  N   UNL     1      11.350  -4.014   6.943  0.00  0.00    -0.286 N 
ATOM     19  C   UNL     1      11.372  -4.871   7.984  0.00  0.00    +0.214 C 
ATOM     20  O   UNL     1      10.343  -5.386   8.367  0.00  0.00    -0.276 OA
ATOM     21  C   UNL     1      12.675  -5.188   8.670  0.00  0.00    +0.109 C 
ATOM     22  H   UNL     1      12.180  -3.661   6.588  0.00  0.00    +0.155 HD
ENDBRANCH  15  18
ENDBRANCH   9  12
BRANCH   1  23
ATOM     23  C   UNL     1       1.978  -0.826   1.026  0.00  0.00    +0.340 C 
ATOM     24  O   UNL     1       2.498  -0.763  -0.069  0.00  0.00    -0.245 OA
BRANCH  23  25
ATOM     25  O   UNL     1       0.668  -0.542   1.167  0.00  0.00    -0.450 OA
BRANCH  25  27
ATOM     26  C   UNL     1       0.025   1.344  -0.201  0.00  0.00    +0.061 C 
ATOM     27  C   UNL     1      -0.046  -0.173  -0.015  0.00  0.00    +0.244 C 
BRANCH  27  28
ATOM     28  C   UNL     1      -1.486  -0.596   0.116  0.00  0.00    +0.202 C 
ATOM     29  O   UNL     1      -1.957  -0.817   1.214  0.00  0.00    -0.288 OA
BRANCH  28  30
ATOM     30  C   UNL     1      -2.288  -0.735  -1.036  0.00  0.00    +0.027 C 
ATOM     31  C   UNL     1      -3.620  -1.106  -1.089  0.00  0.00    +0.006 A 
ATOM     32  C   UNL     1      -4.564  -1.448  -0.091  0.00  0.00    +0.010 A 
ATOM     33  C   UNL     1      -5.829  -1.779  -0.435  0.00  0.00    +0.001 A 
ATOM     34  C   UNL     1      -6.266  -1.802  -1.770  0.00  0.00    +0.002 A 
ATOM     35  C   UNL     1      -5.444  -1.492  -2.796  0.00  0.00    +0.026 A 
ATOM     36  C   UNL     1      -4.049  -1.120  -2.509  0.00  0.00    +0.043 A 
ATOM     37  N   UNL     1      -3.061  -0.782  -3.288  0.00  0.00    -0.380 N 
ATOM     38  C   UNL     1      -1.875  -0.503  -2.473  0.00  0.00    +0.152 C 
ATOM     39  H   UNL     1      -3.105  -0.721  -4.255  0.00  0.00    +0.160 HD
ENDBRANCH  28  30
ENDBRANCH  27  28
ENDBRANCH  25  27
ENDBRANCH  23  25
ENDBRANCH   1  23
TORSDOF 7
