REMARK  Name = ZINC33364521
REMARK  11 active torsions:
REMARK  status: ('A' for Active; 'I' for Inactive)
REMARK    1  A    between atoms: C_1  and  C_2
REMARK    2  A    between atoms: C_2  and  O_3
REMARK    3  A    between atoms: O_3  and  C_4
REMARK    4  A    between atoms: C_8  and  C_10
REMARK    5  A    between atoms: C_10  and  C_11
REMARK    6  A    between atoms: C_12  and  C_30
REMARK    7  A    between atoms: C_21  and  C_29
REMARK    8  A    between atoms: C_22  and  C_24
REMARK    9  A    between atoms: C_24  and  O_26
REMARK   10  A    between atoms: O_26  and  C_27
REMARK   11  A    between atoms: C_27  and  C_28
REMARK                            x       y       z     vdW  Elec       q    Type
REMARK                         _______ _______ _______ _____ _____    ______ ____
ROOT
ATOM      1  C   UNL     1      -6.166   2.796   3.573  0.00  0.00    +0.080 C 
ATOM      2  C   UNL     1      -4.688   2.618   3.834  0.00  0.00    +0.187 C 
ATOM      3  N   UNL     1      -4.170   1.773   2.754  0.00  0.00    -0.229 N 
ATOM      4  C   UNL     1      -5.176   1.462   1.921  0.00  0.00    +0.293 C 
ATOM      5  O   UNL     1      -5.068   0.777   0.924  0.00  0.00    -0.266 OA
ATOM      6  C   UNL     1      -6.444   2.076   2.398  0.00  0.00    +0.250 C 
ATOM      7  O   UNL     1      -7.533   1.977   1.862  0.00  0.00    -0.282 OA
ATOM      8  C   UNL     1      -2.857   1.366   2.613  0.00  0.00    +0.169 A 
ATOM      9  N   UNL     1      -2.320   0.611   1.667  0.00  0.00    -0.229 NA
ATOM     10  C   UNL     1      -1.049   0.306   1.672  0.00  0.00    +0.062 A 
ATOM     11  C   UNL     1      -0.267   0.810   2.703  0.00  0.00    +0.120 A 
ATOM     12  S   UNL     1      -1.494   1.722   3.629  0.00  0.00    -0.045 S 
ATOM     13  C   UNL     1      -0.451  -0.558   0.592  0.00  0.00    +0.067 C 
ENDROOT
BRANCH   2  14
ATOM     14  C   UNL     1      -3.997   3.957   3.817  0.00  0.00    +0.130 A 
ATOM     15  C   UNL     1      -3.621   4.662   4.900  0.00  0.00    +0.047 A 
ATOM     16  C   UNL     1      -3.014   5.848   4.426  0.00  0.00    +0.041 A 
ATOM     17  C   UNL     1      -3.055   5.796   3.083  0.00  0.00    +0.195 A 
ATOM     18  O   UNL     1      -3.646   4.646   2.719  0.00  0.00    -0.466 OA
ENDBRANCH   2  14
BRANCH   1  19
ATOM     19  C   UNL     1      -7.061   3.518   4.334  0.00  0.00    +0.195 C 
ATOM     20  O   UNL     1      -6.672   4.045   5.514  0.00  0.00    -0.287 OA
BRANCH  19  25
ATOM     21  C   UNL     1     -10.815   3.607   4.244  0.00  0.00    +0.121 A 
ATOM     22  C   UNL     1     -11.039   4.084   2.958  0.00  0.00    +0.045 A 
ATOM     23  C   UNL     1      -9.973   4.376   2.127  0.00  0.00    +0.004 A 
ATOM     24  C   UNL     1      -8.679   4.200   2.569  0.00  0.00    +0.012 A 
ATOM     25  C   UNL     1      -8.442   3.714   3.859  0.00  0.00    +0.026 A 
ATOM     26  C   UNL     1      -9.521   3.420   4.697  0.00  0.00    +0.057 A 
BRANCH  21  27
ATOM     27  O   UNL     1     -11.867   3.322   5.055  0.00  0.00    -0.492 OA
BRANCH  27  29
ATOM     28  C   UNL     1     -14.223   3.166   5.573  0.00  0.00    +0.048 C 
ATOM     29  C   UNL     1     -13.175   3.538   4.522  0.00  0.00    +0.225 C 
ENDBRANCH  27  29
ENDBRANCH  21  27
ENDBRANCH  19  25
ENDBRANCH   1  19
BRANCH  11  30
ATOM     30  C   UNL     1       1.162   0.642   2.959  0.00  0.00    +0.348 C 
ATOM     31  O   UNL     1       1.841  -0.026   2.203  0.00  0.00    -0.244 OA
BRANCH  30  32
ATOM     32  O   UNL     1       1.728   1.228   4.035  0.00  0.00    -0.461 OA
BRANCH  32  33
ATOM     33  C   UNL     1       3.129   1.021   4.224  0.00  0.00    +0.229 C 
ATOM     34  C   UNL     1       3.587   1.756   5.486  0.00  0.00    +0.048 C 
ENDBRANCH  32  33
ENDBRANCH  30  32
ENDBRANCH  11  30
TORSDOF 8
