REMARK  Name = ZINC51360828
REMARK  5 active torsions:
REMARK  status: ('A' for Active; 'I' for Inactive)
REMARK    1  A    between atoms: C_1  and  C_2
REMARK    2  A    between atoms: C_7  and  C_23
REMARK    3  A    between atoms: N_9  and  C_10
REMARK    4  A    between atoms: C_10  and  C_11
REMARK    5  A    between atoms: C_12  and  C_20
REMARK                            x       y       z     vdW  Elec       q    Type
REMARK                         _______ _______ _______ _____ _____    ______ ____
ROOT
ATOM      1  C   UNL     1       1.486   1.693   1.790  0.00  0.00    +0.104 A 
ATOM      2  C   UNL     1       1.437   2.080   3.096  0.00  0.00    +0.110 A 
ATOM      3  C   UNL     1       1.099   3.518   3.074  0.00  0.00    +0.035 A 
ATOM      4  C   UNL     1       0.903   4.484   4.056  0.00  0.00    +0.012 A 
ATOM      5  C   UNL     1       0.588   5.775   3.688  0.00  0.00    +0.001 A 
ATOM      6  C   UNL     1       0.467   6.108   2.347  0.00  0.00    +0.004 A 
ATOM      7  C   UNL     1       0.659   5.158   1.367  0.00  0.00    +0.047 A 
ATOM      8  C   UNL     1       0.978   3.852   1.718  0.00  0.00    +0.136 A 
ATOM      9  O   UNL     1       1.222   2.738   0.998  0.00  0.00    -0.461 OA
ENDROOT
BRANCH   2  10
ATOM     10  C   UNL     1       1.670   1.243   4.277  0.00  0.00    +0.390 C 
ATOM     11  O   UNL     1       1.944   0.057   4.143  0.00  0.00    -0.240 OA
ATOM     12  O   UNL     1       1.592   1.730   5.398  0.00  0.00    -0.240 OA
ENDBRANCH   2  10
BRANCH   1  13
ATOM     13  C   UNL     1       1.798   0.299   1.310  0.00  0.00    -0.001 C 
BRANCH  13  20
ATOM     14  C   UNL     1      -0.794   1.171   0.674  0.00  0.00    -0.013 C 
ATOM     15  C   UNL     1      -0.413  -0.310   0.612  0.00  0.00    -0.071 C 
ATOM     16  C   UNL     1      -1.638  -1.165   0.943  0.00  0.00    -0.016 C 
ATOM     17  C   UNL     1      -1.251  -2.646   0.880  0.00  0.00    -0.003 C 
ATOM     18  C   UNL     1      -0.088  -2.901   1.843  0.00  0.00    -0.016 C 
ATOM     19  C   UNL     1       1.079  -1.981   1.479  0.00  0.00    -0.071 C 
ATOM     20  N   UNL     1       0.653  -0.580   1.584  0.00  0.00    +0.388 N 
ATOM     21  C   UNL     1       2.244  -2.232   2.438  0.00  0.00    -0.013 C 
ATOM     22  H   UNL     1       0.311  -0.403   2.516  0.00  0.00    -0.080 HD
ENDBRANCH  13  20
ENDBRANCH   1  13
TORSDOF 3
