REMARK  Name = ZINC35311305
REMARK  8 active torsions:
REMARK  status: ('A' for Active; 'I' for Inactive)
REMARK    1  A    between atoms: C_1  and  C_2
REMARK    2  A    between atoms: C_7  and  N_8
REMARK    3  A    between atoms: N_8  and  C_9
REMARK    4  A    between atoms: C_9  and  N_11
REMARK    5  A    between atoms: N_11  and  C_12
REMARK    6  A    between atoms: C_12  and  C_13
REMARK    7  A    between atoms: C_13  and  N_14
REMARK    8  A    between atoms: C_16  and  C_28
REMARK                            x       y       z     vdW  Elec       q    Type
REMARK                         _______ _______ _______ _____ _____    ______ ____
ROOT
ATOM      1  N   UNL     1      -0.435  -0.516   8.431  0.00  0.00    -0.327 N 
ATOM      2  C   UNL     1      -0.537   0.170   9.629  0.00  0.00    +0.137 A 
ATOM      3  C   UNL     1      -0.616  -0.558  10.840  0.00  0.00    +0.092 A 
ATOM      4  C   UNL     1      -0.718   0.131  12.043  0.00  0.00    +0.032 A 
ATOM      5  C   UNL     1      -0.740   1.535  12.003  0.00  0.00    +0.005 A 
ATOM      6  C   UNL     1      -0.843   2.290  13.185  0.00  0.00    +0.059 A 
ATOM      7  C   UNL     1      -0.863   3.652  13.123  0.00  0.00    +0.167 A 
ATOM      8  C   UNL     1      -0.780   4.313  11.885  0.00  0.00    +0.168 A 
ATOM      9  C   UNL     1      -0.678   3.598  10.714  0.00  0.00    +0.078 A 
ATOM     10  C   UNL     1      -0.656   2.195  10.751  0.00  0.00    +0.077 A 
ATOM     11  N   UNL     1      -0.553   1.485   9.620  0.00  0.00    -0.231 NA
ATOM     12  O   UNL     1      -0.822   5.658  12.112  0.00  0.00    -0.453 OA
ATOM     13  C   UNL     1      -1.344   5.809  13.445  0.00  0.00    +0.466 C 
ATOM     14  O   UNL     1      -0.955   4.593  14.109  0.00  0.00    -0.453 OA
ATOM     15  H   UNL     1      -0.422  -1.486   8.428  0.00  0.00    +0.148 HD
ENDROOT
BRANCH   3  16
ATOM     16  C   UNL     1      -0.591  -1.989  10.827  0.00  0.00    +0.103 C 
ATOM     17  N   UNL     1      -0.571  -3.125  10.816  0.00  0.00    -0.191 NA
ENDBRANCH   3  16
BRANCH   1  18
ATOM     18  C   UNL     1      -0.346   0.223   7.170  0.00  0.00    +0.121 C 
BRANCH  18  19
ATOM     19  C   UNL     1      -0.244  -0.766   6.006  0.00  0.00    +0.122 C 
BRANCH  19  20
ATOM     20  N   UNL     1      -0.155  -0.027   4.744  0.00  0.00    -0.325 N 
ATOM     21  H   UNL     1      -0.168   0.943   4.748  0.00  0.00    +0.148 HD
BRANCH  20  22
ATOM     22  C   UNL     1      -0.056  -0.695   3.578  0.00  0.00    +0.135 C 
ATOM     23  S   UNL     1      -0.034  -2.406   3.571  0.00  0.00    -0.019 S 
BRANCH  22  24
ATOM     24  N   UNL     1       0.026  -0.015   2.417  0.00  0.00    -0.297 N 
ATOM     25  H   UNL     1       0.076   0.954   2.425  0.00  0.00    +0.154 HD
BRANCH  24  32
ATOM     26  C   UNL     1      -1.703   0.884   0.343  0.00  0.00    +0.045 C 
ATOM     27  C   UNL     1      -0.790  -0.301   0.162  0.00  0.00    -0.029 A 
ATOM     28  C   UNL     1      -0.771  -0.982  -1.040  0.00  0.00    +0.005 A 
ATOM     29  C   UNL     1       0.066  -2.070  -1.207  0.00  0.00    +0.000 A 
ATOM     30  C   UNL     1       0.887  -2.479  -0.172  0.00  0.00    +0.002 A 
ATOM     31  C   UNL     1       0.873  -1.803   1.032  0.00  0.00    +0.023 A 
ATOM     32  C   UNL     1       0.037  -0.706   1.201  0.00  0.00    +0.036 A 
ENDBRANCH  24  32
ENDBRANCH  22  24
ENDBRANCH  20  22
ENDBRANCH  19  20
ENDBRANCH  18  19
ENDBRANCH   1  18
TORSDOF 7
