REMARK  Name = ZINC39261226
REMARK  11 active torsions:
REMARK  status: ('A' for Active; 'I' for Inactive)
REMARK    1  A    between atoms: C_1  and  C_2
REMARK    2  A    between atoms: C_5  and  C_32
REMARK    3  A    between atoms: C_6  and  C_8
REMARK    4  A    between atoms: C_8  and  C_9
REMARK    5  A    between atoms: N_11  and  C_12
REMARK    6  A    between atoms: C_12  and  C_13
REMARK    7  A    between atoms: C_13  and  C_14
REMARK    8  A    between atoms: N_16  and  C_24
REMARK    9  A    between atoms: C_20  and  C_23
REMARK   10  A    between atoms: C_24  and  C_25
REMARK   11  A    between atoms: C_25  and  N_26
REMARK                            x       y       z     vdW  Elec       q    Type
REMARK                         _______ _______ _______ _____ _____    ______ ____
ROOT
ATOM      1  C   UNL     1       4.556  -5.317   6.023  0.00  0.00    -0.021 A 
ATOM      2  C   UNL     1       5.197  -6.465   5.748  0.00  0.00    +0.090 A 
ATOM      3  N   UNL     1       6.475  -6.413   6.234  0.00  0.00    -0.348 N 
ATOM      4  C   UNL     1       6.694  -5.201   6.848  0.00  0.00    +0.049 A 
ATOM      5  C   UNL     1       5.504  -4.458   6.737  0.00  0.00    +0.003 A 
ATOM      6  C   UNL     1       5.433  -3.171   7.271  0.00  0.00    +0.013 A 
ATOM      7  C   UNL     1       6.524  -2.635   7.897  0.00  0.00    -0.050 A 
ATOM      8  C   UNL     1       7.702  -3.362   8.006  0.00  0.00    +0.005 A 
ATOM      9  C   UNL     1       7.790  -4.638   7.494  0.00  0.00    +0.026 A 
ATOM     10  C   UNL     1       6.447  -1.245   8.474  0.00  0.00    +0.044 C 
ENDROOT
BRANCH   1  11
ATOM     11  C   UNL     1       3.135  -4.975   5.659  0.00  0.00    +0.056 C 
BRANCH  11  12
ATOM     12  C   UNL     1       3.118  -4.203   4.338  0.00  0.00    +0.109 C 
BRANCH  12  15
ATOM     13  C   UNL     1       1.476  -3.187   2.852  0.00  0.00    +0.217 C 
ATOM     14  O   UNL     1       2.386  -2.846   2.127  0.00  0.00    -0.275 OA
ATOM     15  N   UNL     1       1.736  -3.871   3.984  0.00  0.00    -0.315 N 
ATOM     16  H   UNL     1       1.008  -4.143   4.564  0.00  0.00    +0.149 HD
BRANCH  13  17
ATOM     17  C   UNL     1       0.054  -2.845   2.489  0.00  0.00    +0.131 C 
BRANCH  17  23
ATOM     18  C   UNL     1      -0.018   1.503   0.010  0.00  0.00    +0.044 C 
ATOM     19  C   UNL     1       0.002  -0.004   0.002  0.00  0.00    -0.050 A 
ATOM     20  C   UNL     1       0.006  -0.689  -1.199  0.00  0.00    +0.003 A 
ATOM     21  C   UNL     1       0.025  -2.071  -1.207  0.00  0.00    +0.004 A 
ATOM     22  C   UNL     1       0.040  -2.768  -0.013  0.00  0.00    -0.047 A 
ATOM     23  C   UNL     1       0.037  -2.084   1.188  0.00  0.00    -0.035 A 
ATOM     24  C   UNL     1       0.023  -0.702   1.195  0.00  0.00    +0.007 A 
ATOM     25  C   UNL     1       0.059  -4.275  -0.021  0.00  0.00    +0.044 C 
ENDBRANCH  17  23
ENDBRANCH  13  17
ENDBRANCH  12  15
ENDBRANCH  11  12
ENDBRANCH   1  11
BRANCH   3  26
ATOM     26  C   UNL     1       7.463  -7.488   6.118  0.00  0.00    +0.103 C 
BRANCH  26  27
ATOM     27  C   UNL     1       7.439  -8.343   7.386  0.00  0.00    -0.057 C 
BRANCH  27  28
ATOM     28  N   UNL     1       8.430  -9.421   7.270  0.00  0.00    +0.381 N 
ATOM     29  C   UNL     1       8.045 -10.322   6.177  0.00  0.00    -0.079 C 
ATOM     30  C   UNL     1       9.115 -11.400   5.998  0.00  0.00    -0.019 C 
ATOM     31  C   UNL     1       9.249 -12.200   7.298  0.00  0.00    -0.004 C 
ATOM     32  C   UNL     1       9.579 -11.239   8.444  0.00  0.00    -0.019 C 
ATOM     33  C   UNL     1       8.491 -10.167   8.533  0.00  0.00    -0.079 C 
ATOM     34  H   UNL     1       9.336  -9.024   7.071  0.00  0.00    -0.082 HD
ENDBRANCH  27  28
ENDBRANCH  26  27
ENDBRANCH   3  26
TORSDOF 8
