REMARK  Name = ZINC09447138
REMARK  10 active torsions:
REMARK  status: ('A' for Active; 'I' for Inactive)
REMARK    1  A    between atoms: C_1  and  C_2
REMARK    2  A    between atoms: C_5  and  N_8
REMARK    3  A    between atoms: C_10  and  N_15
REMARK    4  A    between atoms: C_26  and  C_28
REMARK    5  A    between atoms: C_30  and  O_38
REMARK    6  A    between atoms: C_31  and  O_36
REMARK    7  A    between atoms: C_32  and  O_34
REMARK    8  A    between atoms: O_34  and  C_35
REMARK    9  A    between atoms: O_36  and  C_37
REMARK   10  A    between atoms: O_38  and  C_39
REMARK                            x       y       z     vdW  Elec       q    Type
REMARK                         _______ _______ _______ _____ _____    ______ ____
ROOT
ATOM      1  N   UNL     1       0.336   1.029   1.239  0.00  0.00    -0.294 N 
ATOM      2  C   UNL     1       0.276  -0.251   0.821  0.00  0.00    +0.303 C 
ATOM      3  O   UNL     1       1.300  -0.886   0.658  0.00  0.00    -0.253 OA
ATOM      4  N   UNL     1      -0.920  -0.826   0.584  0.00  0.00    -0.271 N 
ATOM      5  C   UNL     1      -2.166  -0.051   0.680  0.00  0.00    +0.132 C 
ATOM      6  C   UNL     1      -2.825   0.011  -0.707  0.00  0.00    +0.140 C 
ATOM      7  N   UNL     1      -2.826  -1.330  -1.302  0.00  0.00    -0.347 N 
ATOM      8  C   UNL     1      -3.604  -1.769  -2.329  0.00  0.00    +0.086 A 
ATOM      9  C   UNL     1      -3.288  -3.057  -2.579  0.00  0.00    +0.019 A 
ATOM     10  C   UNL     1      -2.277  -3.429  -1.668  0.00  0.00    +0.025 A 
ATOM     11  C   UNL     1      -2.018  -2.359  -0.900  0.00  0.00    +0.044 A 
ATOM     12  C   UNL     1      -1.017  -2.254   0.228  0.00  0.00    +0.155 C 
ATOM     13  H   UNL     1      -0.474   1.560   1.295  0.00  0.00    +0.151 HD
ENDROOT
BRANCH   1  16
ATOM     14  N   UNL     1       1.348   3.997   1.768  0.00  0.00    -0.270 N 
ATOM     15  C   UNL     1       1.439   2.789   2.596  0.00  0.00    +0.136 C 
ATOM     16  C   UNL     1       1.627   1.621   1.602  0.00  0.00    +0.101 C 
ATOM     17  C   UNL     1       2.267   2.337   0.391  0.00  0.00    +0.120 C 
ATOM     18  C   UNL     1       1.812   3.774   0.526  0.00  0.00    +0.222 C 
ATOM     19  O   UNL     1       1.859   4.603  -0.358  0.00  0.00    -0.275 OA
BRANCH  14  24
ATOM     20  C   UNL     1      -0.698   8.970   3.574  0.00  0.00    +0.044 C 
ATOM     21  C   UNL     1      -0.154   7.649   3.095  0.00  0.00    -0.050 A 
ATOM     22  C   UNL     1      -0.218   6.538   3.915  0.00  0.00    +0.005 A 
ATOM     23  C   UNL     1       0.279   5.326   3.478  0.00  0.00    +0.024 A 
ATOM     24  C   UNL     1       0.844   5.224   2.213  0.00  0.00    +0.036 A 
ATOM     25  C   UNL     1       0.912   6.343   1.395  0.00  0.00    +0.024 A 
ATOM     26  C   UNL     1       0.408   7.551   1.835  0.00  0.00    +0.005 A 
ENDBRANCH  14  24
ENDBRANCH   1  16
BRANCH  12  27
ATOM     27  C   UNL     1       0.326  -2.764  -0.227  0.00  0.00    -0.014 A 
ATOM     28  C   UNL     1       0.986  -2.135  -1.267  0.00  0.00    +0.055 A 
ATOM     29  C   UNL     1       2.224  -2.597  -1.684  0.00  0.00    +0.165 A 
ATOM     30  C   UNL     1       2.798  -3.701  -1.064  0.00  0.00    +0.204 A 
ATOM     31  C   UNL     1       2.128  -4.334  -0.023  0.00  0.00    +0.165 A 
ATOM     32  C   UNL     1       0.892  -3.862   0.392  0.00  0.00    +0.055 A 
BRANCH  31  33
ATOM     33  O   UNL     1       2.685  -5.414   0.587  0.00  0.00    -0.491 OA
ATOM     34  C   UNL     1       1.940  -6.014   1.649  0.00  0.00    +0.277 C 
ENDBRANCH  31  33
BRANCH  30  35
ATOM     35  O   UNL     1       4.011  -4.161  -1.474  0.00  0.00    -0.488 OA
ATOM     36  C   UNL     1       4.014  -5.149  -2.507  0.00  0.00    +0.277 C 
ENDBRANCH  30  35
BRANCH  29  37
ATOM     37  O   UNL     1       2.876  -1.975  -2.703  0.00  0.00    -0.491 OA
ATOM     38  C   UNL     1       2.227  -0.847  -3.294  0.00  0.00    +0.277 C 
ENDBRANCH  29  37
ENDBRANCH  12  27
TORSDOF 6
