REMARK  Name = ZINC13515952
REMARK  9 active torsions:
REMARK  status: ('A' for Active; 'I' for Inactive)
REMARK    1  A    between atoms: C_1  and  C_2
REMARK    2  A    between atoms: C_2  and  C_3
REMARK    3  A    between atoms: C_3  and  C_4
REMARK    4  A    between atoms: N_15  and  C_18
REMARK    5  A    between atoms: C_20  and  O_32
REMARK    6  A    between atoms: O_32  and  C_33
REMARK    7  A    between atoms: C_33  and  C_35
REMARK    8  A    between atoms: C_35  and  C_36
REMARK    9  A    between atoms: C_36  and  C_37
REMARK                            x       y       z     vdW  Elec       q    Type
REMARK                         _______ _______ _______ _____ _____    ______ ____
ROOT
ATOM      1  C   UNL     1       0.748   1.614  -0.525  0.00  0.00    +0.219 C 
ATOM      2  O   UNL     1       1.783   2.221  -0.352  0.00  0.00    -0.275 OA
ATOM      3  N   UNL     1      -0.410   2.287  -0.679  0.00  0.00    -0.256 N 
ATOM      4  C   UNL     1      -0.403   3.664  -0.753  0.00  0.00    +0.204 A 
ATOM      5  N   UNL     1      -1.590   4.330  -0.794  0.00  0.00    -0.293 N 
ATOM      6  H   UNL     1      -2.449   3.818  -0.775  0.00  0.00    +0.172 HD
ATOM      7  C   UNL     1      -1.614   5.680  -0.861  0.00  0.00    +0.280 A 
ATOM      8  O   UNL     1      -2.671   6.286  -0.894  0.00  0.00    -0.265 OA
ATOM      9  C   UNL     1      -0.380   6.372  -0.900  0.00  0.00    +0.172 A 
ATOM     10  C   UNL     1       0.805   5.629  -0.860  0.00  0.00    +0.171 A 
ATOM     11  N   UNL     1       0.749   4.294  -0.788  0.00  0.00    -0.196 NA
ATOM     12  N   UNL     1       1.826   6.540  -0.910  0.00  0.00    -0.284 N 
ATOM     13  C   UNL     1       1.264   7.781  -0.977  0.00  0.00    +0.204 A 
ATOM     14  N   UNL     1      -0.033   7.680  -0.971  0.00  0.00    -0.229 NA
ATOM     15  H   UNL     1      -0.851   2.002  -1.530  0.00  0.00    +0.158 HD
ENDROOT
BRANCH  12  16
ATOM     16  C   UNL     1       3.259   6.236  -0.894  0.00  0.00    +0.266 C 
ATOM     17  C   UNL     1       3.747   5.918  -2.330  0.00  0.00    +0.258 C 
ATOM     18  C   UNL     1       4.782   7.016  -2.603  0.00  0.00    +0.206 C 
ATOM     19  C   UNL     1       5.233   7.361  -1.158  0.00  0.00    +0.180 C 
ATOM     20  O   UNL     1       4.003   7.393  -0.438  0.00  0.00    -0.344 OA
ATOM     21  C   UNL     1       6.036   8.647  -1.185  0.00  0.00    +0.206 C 
ATOM     22  O   UNL     1       7.262   8.357  -1.899  0.00  0.00    -0.282 OA
ATOM     23  P   UNL     1       7.211   7.612  -3.340  0.00  0.00    +0.505 P 
ATOM     24  O   UNL     1       8.473   6.874  -3.572  0.00  0.00    -0.225 OA
ATOM     25  O   UNL     1       5.955   6.572  -3.291  0.00  0.00    -0.275 OA
ATOM     26  O   UNL     1       6.985   8.694  -4.511  0.00  0.00    -0.116 OA
BRANCH  17  27
ATOM     27  O   UNL     1       4.363   4.604  -2.382  0.00  0.00    -0.454 OA
BRANCH  27  28
ATOM     28  C   UNL     1       3.639   3.612  -2.923  0.00  0.00    +0.308 C 
ATOM     29  O   UNL     1       2.524   3.832  -3.334  0.00  0.00    -0.251 OA
BRANCH  28  30
ATOM     30  C   UNL     1       4.215   2.223  -3.017  0.00  0.00    +0.120 C 
BRANCH  30  31
ATOM     31  C   UNL     1       3.228   1.309  -3.747  0.00  0.00    +0.008 C 
ATOM     32  C   UNL     1       3.787  -0.115  -3.789  0.00  0.00    +0.004 C 
ENDBRANCH  30  31
ENDBRANCH  28  30
ENDBRANCH  27  28
ENDBRANCH  17  27
ENDBRANCH  12  16
BRANCH   1  33
ATOM     33  C   UNL     1       0.756   0.108  -0.574  0.00  0.00    +0.096 C 
BRANCH  33  35
ATOM     34  C   UNL     1       2.211  -1.923  -0.536  0.00  0.00    +0.004 C 
ATOM     35  C   UNL     1       2.186  -0.401  -0.380  0.00  0.00    +0.006 C 
ENDBRANCH  33  35
ENDBRANCH   1  33
TORSDOF 7
