REMARK  Name = ZINC39852712
REMARK  7 active torsions:
REMARK  status: ('A' for Active; 'I' for Inactive)
REMARK    1  A    between atoms: C_5  and  C_7
REMARK    2  A    between atoms: C_9  and  C_18
REMARK    3  A    between atoms: C_18  and  C_19
REMARK    4  A    between atoms: C_19  and  C_20
REMARK    5  A    between atoms: C_20  and  C_21
REMARK    6  A    between atoms: N_23  and  C_24
REMARK    7  A    between atoms: C_26  and  N_31
REMARK                            x       y       z     vdW  Elec       q    Type
REMARK                         _______ _______ _______ _____ _____    ______ ____
ROOT
ATOM      1  C   UNL     1       1.276  -2.183  -0.030  0.00  0.00    +0.069 A 
ATOM      2  H   UNL     1      -0.544  -2.709   0.854  0.00  0.00    +0.166 HD
ATOM      3  C   UNL     1       2.300  -2.933  -0.507  0.00  0.00    -0.013 A 
ATOM      4  C   UNL     1       1.931  -4.334  -0.311  0.00  0.00    +0.005 A 
ATOM      5  C   UNL     1       2.560  -5.550  -0.593  0.00  0.00    +0.030 A 
ATOM      6  C   UNL     1       1.937  -6.725  -0.280  0.00  0.00    +0.042 A 
ATOM      7  C   UNL     1       0.682  -6.721   0.317  0.00  0.00    +0.022 A 
ATOM      8  C   UNL     1       0.044  -5.535   0.603  0.00  0.00    +0.027 A 
ATOM      9  C   UNL     1       0.659  -4.326   0.293  0.00  0.00    +0.047 A 
ATOM     10  N   UNL     1       0.288  -3.009   0.457  0.00  0.00    -0.353 N 
ATOM     11 CL   UNL     1       2.719  -8.235  -0.630  0.00  0.00    -0.084 Cl
ENDROOT
BRANCH   1  16
ATOM     12  C   UNL     1      -0.030   1.331  -0.018  0.00  0.00    +0.004 A 
ATOM     13  C   UNL     1       1.176   2.018  -0.027  0.00  0.00    +0.020 A 
ATOM     14  C   UNL     1       2.362   1.306  -0.036  0.00  0.00    +0.111 A 
ATOM     15  N   UNL     1       2.361  -0.011  -0.037  0.00  0.00    -0.254 NA
ATOM     16  C   UNL     1       1.229  -0.706  -0.029  0.00  0.00    +0.087 A 
ATOM     17  C   UNL     1      -0.004  -0.052  -0.019  0.00  0.00    +0.030 A 
ENDBRANCH   1  16
BRANCH   3  18
ATOM     18  C   UNL     1       3.577  -2.421  -1.121  0.00  0.00    +0.038 C 
BRANCH  18  19
ATOM     19  C   UNL     1       4.629  -2.229  -0.027  0.00  0.00    +0.014 C 
BRANCH  19  20
ATOM     20  C   UNL     1       5.925  -1.708  -0.651  0.00  0.00    +0.096 C 
BRANCH  20  21
ATOM     21  C   UNL     1       6.961  -1.519   0.427  0.00  0.00    +0.217 C 
ATOM     22  O   UNL     1       6.689  -1.776   1.581  0.00  0.00    -0.275 OA
ATOM     23  N   UNL     1       8.190  -1.065   0.109  0.00  0.00    -0.285 N 
ATOM     24  H   UNL     1       8.428  -0.922  -0.820  0.00  0.00    +0.155 HD
BRANCH  23  25
ATOM     25  C   UNL     1       9.121  -0.800   1.120  0.00  0.00    +0.050 A 
ATOM     26  C   UNL     1       9.152  -1.589   2.262  0.00  0.00    +0.057 A 
ATOM     27  C   UNL     1      10.072  -1.325   3.258  0.00  0.00    +0.128 A 
ATOM     28  C   UNL     1      10.963  -0.276   3.118  0.00  0.00    +0.034 A 
ATOM     29  C   UNL     1      10.935   0.512   1.982  0.00  0.00    +0.019 A 
ATOM     30  C   UNL     1      10.021   0.249   0.980  0.00  0.00    +0.039 A 
ATOM     31 BR   UNL     1       9.990   1.322  -0.578  0.00  0.00    -0.048 Br
BRANCH  27  32
ATOM     32  N   UNL     1      10.105  -2.165   4.476  0.00  0.00    +0.056 N 
ATOM     33  O   UNL     1       9.326  -3.082   4.599  0.00  0.00    -0.126 OA
ATOM     34  O   UNL     1      10.910  -1.935   5.348  0.00  0.00    -0.126 OA
ENDBRANCH  27  32
ENDBRANCH  23  25
ENDBRANCH  20  21
ENDBRANCH  19  20
ENDBRANCH  18  19
ENDBRANCH   3  18
TORSDOF 7
