REMARK  Name = ZINC26677527
REMARK  11 active torsions:
REMARK  status: ('A' for Active; 'I' for Inactive)
REMARK    1  A    between atoms: C_1  and  C_2
REMARK    2  A    between atoms: C_2  and  C_3
REMARK    3  A    between atoms: C_3  and  N_4
REMARK    4  A    between atoms: N_4  and  C_5
REMARK    5  A    between atoms: C_5  and  N_7
REMARK    6  A    between atoms: N_7  and  N_8
REMARK    7  A    between atoms: C_9  and  C_11
REMARK    8  A    between atoms: C_14  and  N_20
REMARK    9  A    between atoms: C_15  and  N_17
REMARK   10  A    between atoms: C_22  and  C_29
REMARK   11  A    between atoms: C_25  and  C_28
REMARK                            x       y       z     vdW  Elec       q    Type
REMARK                         _______ _______ _______ _____ _____    ______ ____
ROOT
ATOM      1  C   UNL     1      -1.136  -2.169   0.001  0.00  0.00    +0.040 A 
ATOM      2  C   UNL     1       0.084  -2.853  -0.014  0.00  0.00    +0.015 A 
ATOM      3  C   UNL     1       0.099  -4.229  -0.021  0.00  0.00    +0.026 A 
ATOM      4  C   UNL     1      -1.098  -4.940  -0.013  0.00  0.00    +0.060 A 
ATOM      5  C   UNL     1      -2.314  -4.262   0.002  0.00  0.00    +0.148 A 
ATOM      6  C   UNL     1      -2.336  -2.886   0.015  0.00  0.00    +0.047 A 
ENDROOT
BRANCH   4   7
ATOM      7  N   UNL     1      -1.079  -6.330  -0.021  0.00  0.00    -0.328 N 
ATOM      8  C   UNL     1      -0.464  -6.854   1.205  0.00  0.00    +0.108 C 
ATOM      9  C   UNL     1      -0.591  -8.379   1.230  0.00  0.00    +0.003 C 
ATOM     10  C   UNL     1       0.104  -8.964  -0.003  0.00  0.00    +0.009 C 
ATOM     11  C   UNL     1      -0.523  -8.365  -1.265  0.00  0.00    +0.003 C 
ATOM     12  C   UNL     1      -0.398  -6.841  -1.217  0.00  0.00    +0.108 C 
ATOM     13  C   UNL     1       0.206  -8.899  -2.500  0.00  0.00    +0.009 C 
ATOM     14  C   UNL     1      -2.071  -8.769   1.215  0.00  0.00    +0.009 C 
ENDBRANCH   4   7
BRANCH   1  16
ATOM     15  N   UNL     1       0.002  -0.004   0.002  0.00  0.00    -0.231 N 
ATOM     16  C   UNL     1      -1.156  -0.694   0.009  0.00  0.00    +0.260 C 
ATOM     17  O   UNL     1      -2.217  -0.100   0.023  0.00  0.00    -0.269 OA
ATOM     18  H   UNL     1       0.962  -0.541  -0.010  0.00  0.00    +0.173 HD
BRANCH  15  19
ATOM     19  N   UNL     1      -0.017   1.397   0.010  0.00  0.00    -0.246 N 
ATOM     20  H   UNL     1      -0.977   1.934   0.022  0.00  0.00    +0.172 HD
BRANCH  19  21
ATOM     21  C   UNL     1       1.141   2.087   0.002  0.00  0.00    +0.147 C 
ATOM     22  S   UNL     1       1.118   3.798   0.012  0.00  0.00    -0.017 S 
BRANCH  21  23
ATOM     23  N   UNL     1       2.317   1.429  -0.012  0.00  0.00    -0.325 N 
ATOM     24  H   UNL     1       2.332   0.329  -0.018  0.00  0.00    +0.148 HD
BRANCH  23  25
ATOM     25  C   UNL     1       3.576   2.178  -0.020  0.00  0.00    +0.103 C 
BRANCH  25  27
ATOM     26  C   UNL     1       6.066   1.983  -0.045  0.00  0.00    +0.005 C 
ATOM     27  C   UNL     1       4.752   1.200  -0.037  0.00  0.00    +0.015 C 
ENDBRANCH  25  27
ENDBRANCH  23  25
ENDBRANCH  21  23
ENDBRANCH  19  21
ENDBRANCH  15  19
ENDBRANCH   1  16
BRANCH   5  28
ATOM     28  N   UNL     1      -3.584  -5.021   0.010  0.00  0.00    +0.058 N 
ATOM     29  O   UNL     1      -4.648  -4.429   0.023  0.00  0.00    -0.126 OA
ATOM     30  O   UNL     1      -3.565  -6.239   0.003  0.00  0.00    -0.126 OA
ENDBRANCH   5  28
TORSDOF 8
