REMARK  Name = ZINC13460443
REMARK  11 active torsions:
REMARK  status: ('A' for Active; 'I' for Inactive)
REMARK    1  A    between atoms: C_1  and  C_2
REMARK    2  A    between atoms: C_3  and  C_26
REMARK    3  A    between atoms: C_4  and  C_18
REMARK    4  A    between atoms: N_9  and  C_10
REMARK    5  A    between atoms: C_15  and  O_16
REMARK    6  A    between atoms: O_16  and  C_17
REMARK    7  A    between atoms: C_21  and  C_24
REMARK    8  A    between atoms: C_26  and  O_28
REMARK    9  A    between atoms: O_28  and  C_29
REMARK   10  A    between atoms: C_29  and  C_30
REMARK   11  A    between atoms: C_29  and  C_31
REMARK                            x       y       z     vdW  Elec       q    Type
REMARK                         _______ _______ _______ _____ _____    ______ ____
ROOT
ATOM      1  C   UNL     1      -5.686   6.305  -2.990  0.00  0.00    +0.062 C 
ATOM      2  C   UNL     1      -5.450   5.803  -1.589  0.00  0.00    +0.027 C 
ATOM      3  C   UNL     1      -5.530   4.478  -1.335  0.00  0.00    +0.078 C 
ATOM      4  C   UNL     1      -5.285   4.017   0.087  0.00  0.00    +0.141 C 
ATOM      5  N   UNL     1      -4.979   5.058   1.083  0.00  0.00    -0.315 N 
ATOM      6  C   UNL     1      -4.935   6.341   0.676  0.00  0.00    +0.142 C 
ATOM      7  S   UNL     1      -4.580   7.562   1.823  0.00  0.00    -0.018 S 
ATOM      8  N   UNL     1      -5.159   6.694  -0.596  0.00  0.00    -0.251 N 
ATOM      9  H   UNL     1      -4.813   4.824   2.010  0.00  0.00    +0.149 HD
ENDROOT
BRANCH   8  10
ATOM     10  C   UNL     1      -5.092   8.055  -0.927  0.00  0.00    +0.082 A 
ATOM     11  C   UNL     1      -6.230   8.845  -0.858  0.00  0.00    +0.027 A 
ATOM     12  C   UNL     1      -6.160  10.187  -1.180  0.00  0.00    +0.002 A 
ATOM     13  C   UNL     1      -4.960  10.744  -1.581  0.00  0.00    +0.004 A 
ATOM     14  C   UNL     1      -3.822   9.962  -1.657  0.00  0.00    +0.047 A 
ATOM     15  C   UNL     1      -3.883   8.616  -1.331  0.00  0.00    +0.142 A 
BRANCH  15  16
ATOM     16  O   UNL     1      -2.765   7.846  -1.407  0.00  0.00    -0.493 OA
ATOM     17  C   UNL     1      -1.561   8.489  -1.830  0.00  0.00    +0.277 C 
ENDBRANCH  15  16
ENDBRANCH   8  10
BRANCH   4  18
ATOM     18  C   UNL     1      -4.137   3.040   0.068  0.00  0.00    -0.023 A 
ATOM     19  C   UNL     1      -4.389   1.680   0.107  0.00  0.00    +0.006 A 
ATOM     20  C   UNL     1      -3.343   0.781   0.090  0.00  0.00    +0.015 A 
ATOM     21  C   UNL     1      -2.028   1.246   0.032  0.00  0.00    +0.063 A 
ATOM     22  C   UNL     1      -1.781   2.620  -0.002  0.00  0.00    +0.015 A 
ATOM     23  C   UNL     1      -2.836   3.508   0.011  0.00  0.00    +0.006 A 
BRANCH  21  24
ATOM     24  C   UNL     1      -0.903   0.289   0.013  0.00  0.00    +0.387 C 
ATOM     25  O   UNL     1      -1.121  -0.905   0.047  0.00  0.00    -0.241 OA
ATOM     26  O   UNL     1       0.365   0.741  -0.049  0.00  0.00    -0.241 OA
ENDBRANCH  21  24
ENDBRANCH   4  18
BRANCH   3  27
ATOM     27  C   UNL     1      -5.831   3.554  -2.362  0.00  0.00    +0.339 C 
ATOM     28  O   UNL     1      -6.143   3.954  -3.468  0.00  0.00    -0.245 OA
BRANCH  27  29
ATOM     29  O   UNL     1      -5.772   2.228  -2.116  0.00  0.00    -0.459 OA
BRANCH  29  30
ATOM     30  C   UNL     1      -6.089   1.352  -3.199  0.00  0.00    +0.171 C 
ATOM     31  C   UNL     1      -4.815   1.027  -3.982  0.00  0.00    +0.052 C 
ATOM     32  C   UNL     1      -6.694   0.059  -2.649  0.00  0.00    +0.052 C 
ENDBRANCH  29  30
ENDBRANCH  27  29
ENDBRANCH   3  27
TORSDOF 7
