REMARK  Name = ZINC02492893
REMARK  2 active torsions:
REMARK  status: ('A' for Active; 'I' for Inactive)
REMARK    1  A    between atoms: C_1  and  C_2
REMARK    2  A    between atoms: C_14  and  C_17
REMARK                            x       y       z     vdW  Elec       q    Type
REMARK                         _______ _______ _______ _____ _____    ______ ____
ROOT
ATOM      1  C   UNL     1      -0.019   1.526   0.010  0.00  0.00    +0.008 C 
ATOM      2  C   UNL     1       0.002  -0.004   0.002  0.00  0.00    -0.009 C 
ATOM      3  C   UNL     1       0.724  -0.500  -1.254  0.00  0.00    +0.008 C 
ATOM      4  C   UNL     1       0.537  -2.012  -1.398  0.00  0.00    +0.037 C 
ATOM      5  C   UNL     1       0.939  -2.682  -0.091  0.00  0.00    -0.023 A 
ATOM      6  C   UNL     1       1.022  -1.977   1.058  0.00  0.00    -0.004 A 
ATOM      7  S   UNL     1       1.514  -3.160   2.282  0.00  0.00    -0.078 S 
ATOM      8  C   UNL     1       1.603  -4.518   1.333  0.00  0.00    +0.080 A 
ATOM      9  C   UNL     1       1.261  -4.092   0.041  0.00  0.00    +0.068 A 
ATOM     10  C   UNL     1       1.269  -5.103  -1.042  0.00  0.00    +0.248 C 
ATOM     11  O   UNL     1       1.160  -4.782  -2.211  0.00  0.00    -0.270 OA
ATOM     12  N   UNL     1       1.403  -6.396  -0.678  0.00  0.00    -0.289 N 
ATOM     13  C   UNL     1       1.378  -6.849   0.709  0.00  0.00    +0.190 C 
ATOM     14  N   UNL     1       1.920  -5.823   1.618  0.00  0.00    -0.316 N 
ATOM     15  C   UNL     1       0.750  -0.515   1.242  0.00  0.00    +0.046 C 
ATOM     16  H   UNL     1       1.521  -7.060  -1.375  0.00  0.00    +0.151 HD
ATOM     17  H   UNL     1       2.473  -6.059   2.380  0.00  0.00    +0.149 HD
ENDROOT
BRANCH  13  18
ATOM     18  C   UNL     1      -0.044  -7.154   1.104  0.00  0.00    -0.008 A 
ATOM     19  C   UNL     1      -0.447  -6.990   2.416  0.00  0.00    +0.007 A 
ATOM     20  C   UNL     1      -1.752  -7.270   2.778  0.00  0.00    +0.002 A 
ATOM     21  C   UNL     1      -2.653  -7.713   1.829  0.00  0.00    +0.020 A 
ATOM     22  C   UNL     1      -2.250  -7.877   0.516  0.00  0.00    +0.041 A 
ATOM     23  C   UNL     1      -0.946  -7.591   0.152  0.00  0.00    +0.027 A 
ATOM     24 CL   UNL     1      -3.382  -8.434  -0.677  0.00  0.00    -0.084 Cl
ENDBRANCH  13  18
TORSDOF 1
