REMARK  Name = ZINC39699628
REMARK  6 active torsions:
REMARK  status: ('A' for Active; 'I' for Inactive)
REMARK    1  A    between atoms: C_4  and  C_7
REMARK    2  A    between atoms: C_11  and  C_13
REMARK    3  A    between atoms: N_14  and  N_15
REMARK    4  A    between atoms: C_16  and  C_18
REMARK    5  A    between atoms: C_21  and  C_22
REMARK    6  A    between atoms: C_21  and  C_28
REMARK                            x       y       z     vdW  Elec       q    Type
REMARK                         _______ _______ _______ _____ _____    ______ ____
ROOT
ATOM      1  N   UNL     1       1.463  -4.338   1.982  0.00  0.00    -0.207 N 
ATOM      2  C   UNL     1       1.237  -5.649   2.199  0.00  0.00    +0.236 C 
ATOM      3  O   UNL     1       1.644  -6.474   1.407  0.00  0.00    -0.274 OA
ATOM      4  H   UNL     1       1.137  -3.679   2.614  0.00  0.00    +0.177 HD
ENDROOT
BRANCH   2   5
ATOM      5  C   UNL     1       0.480  -6.091   3.424  0.00  0.00    +0.093 C 
ATOM      6  C   UNL     1       0.350  -7.595   3.671  0.00  0.00    +0.031 C 
ATOM      7  C   UNL     1      -0.866  -6.788   3.210  0.00  0.00    +0.033 C 
BRANCH   7   8
ATOM      8  C   UNL     1      -1.332  -6.980   1.790  0.00  0.00    -0.036 A 
ATOM      9  C   UNL     1      -1.438  -8.254   1.264  0.00  0.00    +0.004 A 
ATOM     10  C   UNL     1      -1.865  -8.430  -0.039  0.00  0.00    +0.000 A 
ATOM     11  C   UNL     1      -2.187  -7.333  -0.815  0.00  0.00    +0.000 A 
ATOM     12  C   UNL     1      -2.082  -6.059  -0.289  0.00  0.00    +0.000 A 
ATOM     13  C   UNL     1      -1.659  -5.883   1.016  0.00  0.00    +0.004 A 
ENDBRANCH   7   8
BRANCH   7  14
ATOM     14  C   UNL     1      -1.952  -6.528   4.222  0.00  0.00    -0.036 A 
ATOM     15  C   UNL     1      -1.770  -5.570   5.201  0.00  0.00    +0.004 A 
ATOM     16  C   UNL     1      -2.767  -5.332   6.129  0.00  0.00    +0.000 A 
ATOM     17  C   UNL     1      -3.946  -6.052   6.077  0.00  0.00    +0.000 A 
ATOM     18  C   UNL     1      -4.128  -7.009   5.097  0.00  0.00    +0.000 A 
ATOM     19  C   UNL     1      -3.133  -7.244   4.167  0.00  0.00    +0.004 A 
ENDBRANCH   7  14
ENDBRANCH   2   5
BRANCH   1  21
ATOM     20  C   UNL     1       2.381  -2.683   0.636  0.00  0.00    +0.118 C 
ATOM     21  N   UNL     1       2.167  -3.928   0.842  0.00  0.00    -0.192 NA
BRANCH  20  26
ATOM     22  C   UNL     1       2.283  -1.330  -1.447  0.00  0.00    +0.084 C 
ATOM     23  N   UNL     1       2.910  -0.187  -1.485  0.00  0.00    -0.153 NA
ATOM     24  N   UNL     1       4.096  -0.213  -0.758  0.00  0.00    -0.161 NA
ATOM     25  C   UNL     1       4.313  -1.363  -0.207  0.00  0.00    +0.123 C 
ATOM     26  C   UNL     1       3.139  -2.241  -0.590  0.00  0.00    +0.125 C 
BRANCH  22  30
ATOM     27  C   UNL     1      -1.398  -2.293  -3.321  0.00  0.00    +0.000 A 
ATOM     28  C   UNL     1      -0.863  -1.025  -3.467  0.00  0.00    +0.001 A 
ATOM     29  C   UNL     1       0.334  -0.705  -2.861  0.00  0.00    +0.010 A 
ATOM     30  C   UNL     1       1.006  -1.664  -2.097  0.00  0.00    -0.001 A 
ATOM     31  C   UNL     1       0.458  -2.943  -1.954  0.00  0.00    +0.010 A 
ATOM     32  C   UNL     1      -0.739  -3.248  -2.567  0.00  0.00    +0.001 A 
ENDBRANCH  22  30
ENDBRANCH  20  26
ENDBRANCH   1  21
TORSDOF 6
