REMARK  Name = ZINC06768712
REMARK  8 active torsions:
REMARK  status: ('A' for Active; 'I' for Inactive)
REMARK    1  A    between atoms: C_1  and  C_2
REMARK    2  A    between atoms: C_2  and  C_4
REMARK    3  A    between atoms: C_2  and  N_18
REMARK    4  A    between atoms: C_8  and  N_9
REMARK    5  A    between atoms: N_21  and  C_22
REMARK    6  A    between atoms: C_27  and  C_28
REMARK    7  A    between atoms: C_28  and  O_30
REMARK    8  A    between atoms: O_30  and  C_31
REMARK                            x       y       z     vdW  Elec       q    Type
REMARK                         _______ _______ _______ _____ _____    ______ ____
ROOT
ATOM      1  C   UNL     1       0.019   0.947   0.351  0.00  0.00    +0.033 C 
ATOM      2  C   UNL     1       0.332  -0.537   0.148  0.00  0.00    +0.104 C 
ENDROOT
BRANCH   2   3
ATOM      3  C   UNL     1       1.111  -0.716  -1.129  0.00  0.00    +0.007 A 
ATOM      4  C   UNL     1       0.497  -1.279  -2.249  0.00  0.00    -0.030 A 
ATOM      5  C   UNL     1       1.265  -1.408  -3.364  0.00  0.00    -0.005 A 
ATOM      6  S   UNL     1       2.838  -0.752  -2.876  0.00  0.00    -0.075 S 
ATOM      7  C   UNL     1       2.410  -0.324  -1.195  0.00  0.00    +0.090 A 
ATOM      8  C   UNL     1       0.862  -1.973  -4.687  0.00  0.00    +0.043 C 
ATOM      9  C   UNL     1      -0.460  -2.735  -4.505  0.00  0.00    +0.005 C 
ATOM     10  C   UNL     1      -1.428  -1.854  -3.709  0.00  0.00    +0.005 C 
ATOM     11  C   UNL     1      -0.958  -1.738  -2.259  0.00  0.00    +0.036 C 
BRANCH   7  12
ATOM     12  N   UNL     1       3.206   0.261  -0.203  0.00  0.00    -0.317 N 
ATOM     13  C   UNL     1       2.769   0.695   1.015  0.00  0.00    +0.092 A 
ATOM     14  C   UNL     1       3.826   1.193   1.689  0.00  0.00    +0.019 A 
ATOM     15  C   UNL     1       4.955   1.071   0.855  0.00  0.00    +0.019 A 
ATOM     16  C   UNL     1       4.548   0.498  -0.296  0.00  0.00    +0.092 A 
ENDBRANCH   7  12
ENDBRANCH   2   3
BRANCH   2  17
ATOM     17  N   UNL     1       1.126  -1.028   1.277  0.00  0.00    -0.292 N 
ATOM     18  C   UNL     1       0.537  -1.253   2.468  0.00  0.00    +0.304 C 
ATOM     19  O   UNL     1      -0.654  -1.050   2.606  0.00  0.00    -0.252 OA
ATOM     20  N   UNL     1       1.268  -1.705   3.507  0.00  0.00    -0.269 N 
ATOM     21  H   UNL     1       2.076  -1.190   1.168  0.00  0.00    +0.151 HD
ATOM     22  H   UNL     1       2.230  -1.796   3.420  0.00  0.00    +0.156 HD
BRANCH  20  23
ATOM     23  C   UNL     1       0.642  -2.040   4.705  0.00  0.00    +0.049 A 
ATOM     24  C   UNL     1      -0.445  -1.303   5.154  0.00  0.00    +0.024 A 
ATOM     25  C   UNL     1      -1.067  -1.640   6.340  0.00  0.00    +0.002 A 
ATOM     26  C   UNL     1      -0.606  -2.707   7.095  0.00  0.00    +0.001 A 
ATOM     27  C   UNL     1       0.475  -3.447   6.667  0.00  0.00    +0.017 A 
ATOM     28  C   UNL     1       1.111  -3.121   5.467  0.00  0.00    +0.080 A 
BRANCH  28  29
ATOM     29  C   UNL     1       2.268  -3.908   5.004  0.00  0.00    +0.341 C 
ATOM     30  O   UNL     1       2.873  -3.570   4.005  0.00  0.00    -0.245 OA
BRANCH  29  31
ATOM     31  O   UNL     1       2.656  -5.002   5.688  0.00  0.00    -0.464 OA
ATOM     32  C   UNL     1       3.804  -5.728   5.174  0.00  0.00    +0.280 C 
ENDBRANCH  29  31
ENDBRANCH  28  29
ENDBRANCH  20  23
ENDBRANCH   2  17
TORSDOF 6
