REMARK  Name = ZINC09349777
REMARK  6 active torsions:
REMARK  status: ('A' for Active; 'I' for Inactive)
REMARK    1  A    between atoms: C_1  and  C_2
REMARK    2  A    between atoms: C_4  and  C_37
REMARK    3  A    between atoms: N_20  and  C_23
REMARK    4  A    between atoms: C_26  and  N_31
REMARK    5  A    between atoms: C_28  and  O_29
REMARK    6  A    between atoms: O_29  and  C_30
REMARK                            x       y       z     vdW  Elec       q    Type
REMARK                         _______ _______ _______ _____ _____    ______ ____
ROOT
ATOM      1  C   UNL     1       0.815   6.824  -0.431  0.00  0.00    +0.044 C 
ATOM      2  C   UNL     1      -0.271   6.066   0.288  0.00  0.00    -0.050 A 
ATOM      3  C   UNL     1      -1.147   6.735   1.123  0.00  0.00    +0.008 A 
ATOM      4  C   UNL     1      -2.143   6.046   1.783  0.00  0.00    -0.029 A 
ATOM      5  C   UNL     1      -2.274   4.670   1.614  0.00  0.00    +0.039 A 
ATOM      6  C   UNL     1      -1.387   4.007   0.771  0.00  0.00    -0.027 A 
ATOM      7  C   UNL     1      -0.394   4.699   0.114  0.00  0.00    +0.008 A 
ATOM      8  C   UNL     1      -1.791   2.560   0.804  0.00  0.00    +0.053 C 
ATOM      9  C   UNL     1      -0.646   1.670   1.301  0.00  0.00    +0.089 C 
ATOM     10  C   UNL     1      -0.013   1.086   0.008  0.00  0.00    +0.074 C 
ATOM     11  C   UNL     1      -0.831   1.670  -1.158  0.00  0.00    -0.054 C 
ATOM     12  C   UNL     1      -2.896   0.796  -0.427  0.00  0.00    -0.076 C 
ATOM     13  C   UNL     1      -2.534   0.000  -1.698  0.00  0.00    -0.020 C 
ATOM     14  C   UNL     1      -1.177   0.570  -2.157  0.00  0.00    -0.016 C 
ATOM     15  C   UNL     1       1.376   1.685  -0.002  0.00  0.00    +0.229 C 
ATOM     16  O   UNL     1       2.217   1.488  -0.852  0.00  0.00    -0.275 OA
ATOM     17  N   UNL     1       1.531   2.465   1.073  0.00  0.00    -0.206 N 
ATOM     18  C   UNL     1       0.459   2.529   1.872  0.00  0.00    +0.230 C 
ATOM     19  O   UNL     1       0.385   3.176   2.895  0.00  0.00    -0.275 OA
ATOM     20  C   UNL     1      -2.970   2.506   1.737  0.00  0.00    +0.212 C 
ATOM     21  O   UNL     1      -3.604   1.519   2.046  0.00  0.00    -0.277 OA
ATOM     22  N   UNL     1      -3.186   3.765   2.163  0.00  0.00    -0.286 N 
ATOM     23  C   UNL     1      -3.092   6.785   2.691  0.00  0.00    +0.045 C 
ATOM     24  H   UNL     1      -3.892   4.015   2.779  0.00  0.00    +0.155 HD
ATOM     25  N   UNL     1      -2.095   2.024  -0.538  0.00  0.00    +0.395 N 
ATOM     26  H   UNL     1      -2.594   2.725  -1.098  0.00  0.00    -0.079 HD
ENDROOT
BRANCH  17  27
ATOM     27  C   UNL     1       2.720   3.161   1.342  0.00  0.00    +0.086 A 
ATOM     28  C   UNL     1       2.900   4.445   0.851  0.00  0.00    +0.030 A 
ATOM     29  C   UNL     1       4.072   5.128   1.116  0.00  0.00    +0.035 A 
ATOM     30  C   UNL     1       5.066   4.534   1.871  0.00  0.00    +0.130 A 
ATOM     31  C   UNL     1       4.894   3.254   2.364  0.00  0.00    +0.080 A 
ATOM     32  C   UNL     1       3.720   2.565   2.106  0.00  0.00    +0.144 A 
BRANCH  30  33
ATOM     33  N   UNL     1       6.319   5.271   2.152  0.00  0.00    +0.057 N 
ATOM     34  O   UNL     1       6.473   6.398   1.718  0.00  0.00    -0.126 OA
ATOM     35  O   UNL     1       7.196   4.749   2.817  0.00  0.00    -0.126 OA
ENDBRANCH  30  33
BRANCH  32  36
ATOM     36  O   UNL     1       3.546   1.308   2.595  0.00  0.00    -0.493 OA
ATOM     37  C   UNL     1       4.614   0.761   3.371  0.00  0.00    +0.277 C 
ENDBRANCH  32  36
ENDBRANCH  17  27
TORSDOF 3
