REMARK  Name = ZINC33042631
REMARK  3 active torsions:
REMARK  status: ('A' for Active; 'I' for Inactive)
REMARK    1  A    between atoms: C_4  and  N_11
REMARK    2  A    between atoms: C_5  and  C_7
REMARK    3  A    between atoms: N_11  and  N_12
REMARK                            x       y       z     vdW  Elec       q    Type
REMARK                         _______ _______ _______ _____ _____    ______ ____
ROOT
ATOM      1  N   UNL     1       4.803   1.435  -0.037  0.00  0.00    -0.186 NA
ATOM      2  C   UNL     1       5.891   2.137  -0.130  0.00  0.00    +0.070 C 
ATOM      3  C   UNL     1       7.211   1.427  -0.255  0.00  0.00    +0.080 C 
ATOM      4  C   UNL     1       8.164   1.974   0.818  0.00  0.00    +0.178 C 
ATOM      5  S   UNL     1       8.496   3.719   0.437  0.00  0.00    -0.002 S 
ATOM      6  O   UNL     1       8.976   4.390   1.594  0.00  0.00    -0.169 OA
ATOM      7  O   UNL     1       9.182   3.829  -0.802  0.00  0.00    -0.169 OA
ATOM      8  C   UNL     1       6.905   4.417   0.138  0.00  0.00    +0.097 A 
ATOM      9  C   UNL     1       5.799   3.606  -0.117  0.00  0.00    +0.025 A 
ATOM     10  C   UNL     1       4.553   4.200  -0.352  0.00  0.00    +0.050 A 
ATOM     11  C   UNL     1       4.425   5.574  -0.337  0.00  0.00    +0.124 A 
ATOM     12  C   UNL     1       5.530   6.371  -0.084  0.00  0.00    +0.040 A 
ATOM     13  C   UNL     1       6.763   5.792   0.152  0.00  0.00    +0.030 A 
ATOM     14  F   UNL     1       3.222   6.142  -0.571  0.00  0.00    -0.205 F 
ENDROOT
BRANCH   1  15
ATOM     15  N   UNL     1       3.644   2.008   0.503  0.00  0.00    -0.237 N 
ATOM     16  H   UNL     1       3.681   3.017   0.940  0.00  0.00    +0.174 HD
BRANCH  15  20
ATOM     17  C   UNL     1       0.060  -0.108   0.454  0.00  0.00    +0.001 A 
ATOM     18  C   UNL     1       1.203  -0.675  -0.080  0.00  0.00    +0.002 A 
ATOM     19  C   UNL     1       2.394   0.023  -0.065  0.00  0.00    +0.025 A 
ATOM     20  C   UNL     1       2.443   1.298   0.487  0.00  0.00    +0.060 A 
ATOM     21  C   UNL     1       1.292   1.865   1.021  0.00  0.00    +0.077 A 
ATOM     22  C   UNL     1       0.104   1.160   1.003  0.00  0.00    +0.014 A 
BRANCH  21  23
ATOM     23  C   UNL     1       1.339   3.248   1.619  0.00  0.00    +0.419 C 
ATOM     24  F   UNL     1       0.068   3.597   2.087  0.00  0.00    -0.166 F 
ATOM     25  F   UNL     1       2.249   3.264   2.683  0.00  0.00    -0.166 F 
ATOM     26  F   UNL     1       1.746   4.164   0.644  0.00  0.00    -0.166 F 
ENDBRANCH  21  23
ENDBRANCH  15  20
ENDBRANCH   1  15
TORSDOF 3
