REMARK  Name = ZINC20745702
REMARK  4 active torsions:
REMARK  status: ('A' for Active; 'I' for Inactive)
REMARK    1  A    between atoms: C_1  and  C_2
REMARK    2  A    between atoms: C_14  and  O_28
REMARK    3  A    between atoms: C_16  and  C_18
REMARK    4  A    between atoms: C_23  and  C_24
REMARK                            x       y       z     vdW  Elec       q    Type
REMARK                         _______ _______ _______ _____ _____    ______ ____
ROOT
ATOM      1  C   UNL     1       0.430   0.949  -0.192  0.00  0.00    +0.068 C 
ATOM      2  C   UNL     1       0.400  -0.539  -0.426  0.00  0.00    +0.066 A 
ATOM      3  C   UNL     1       0.139  -1.163  -1.632  0.00  0.00    +0.027 A 
ATOM      4  C   UNL     1       0.209  -2.534  -1.428  0.00  0.00    +0.167 A 
ATOM      5  N   UNL     1       0.501  -2.727  -0.119  0.00  0.00    -0.179 N 
ATOM      6  N   UNL     1       0.623  -1.463   0.481  0.00  0.00    -0.167 NA
ATOM      7  C   UNL     1       0.656  -3.958   0.515  0.00  0.00    +0.253 A 
ATOM      8  N   UNL     1       0.519  -5.070  -0.189  0.00  0.00    -0.219 NA
ATOM      9  C   UNL     1       0.660  -6.254   0.382  0.00  0.00    +0.116 A 
ATOM     10  C   UNL     1       0.954  -6.321   1.735  0.00  0.00    +0.039 A 
ATOM     11  C   UNL     1       1.091  -5.137   2.442  0.00  0.00    +0.116 A 
ATOM     12  N   UNL     1       0.942  -3.986   1.808  0.00  0.00    -0.219 NA
ATOM     13  N   UNL     1       0.010  -3.418  -2.446  0.00  0.00    -0.197 NA
ATOM     14  C   UNL     1       0.033  -2.987  -3.672  0.00  0.00    +0.190 C 
ATOM     15  C   UNL     1       0.330  -1.565  -4.047  0.00  0.00    +0.108 C 
ATOM     16  C   UNL     1      -0.180  -0.582  -2.987  0.00  0.00    +0.064 C 
ENDROOT
BRANCH  16  17
ATOM     17  C   UNL     1      -1.670  -0.406  -3.128  0.00  0.00    -0.028 A 
ATOM     18  C   UNL     1      -2.519  -1.470  -2.881  0.00  0.00    +0.005 A 
ATOM     19  C   UNL     1      -3.885  -1.308  -3.011  0.00  0.00    +0.000 A 
ATOM     20  C   UNL     1      -4.404  -0.083  -3.388  0.00  0.00    +0.001 A 
ATOM     21  C   UNL     1      -3.556   0.980  -3.634  0.00  0.00    +0.012 A 
ATOM     22  C   UNL     1      -2.189   0.820  -3.500  0.00  0.00    +0.059 A 
BRANCH  22  23
ATOM     23  C   UNL     1      -1.265   1.981  -3.763  0.00  0.00    +0.418 C 
ATOM     24  F   UNL     1      -2.007   3.071  -4.231  0.00  0.00    -0.166 F 
ATOM     25  F   UNL     1      -0.612   2.335  -2.578  0.00  0.00    -0.166 F 
ATOM     26  F   UNL     1      -0.318   1.614  -4.725  0.00  0.00    -0.166 F 
ENDBRANCH  22  23
ENDBRANCH  16  17
BRANCH  14  27
ATOM     27  O   UNL     1      -0.224  -3.866  -4.662  0.00  0.00    -0.495 OA
ATOM     28  H   UNL     1      -0.407  -4.764  -4.352  0.00  0.00    +0.293 HD
ENDBRANCH  14  27
TORSDOF 3
