REMARK  Name = ZINC14889044
REMARK  7 active torsions:
REMARK  status: ('A' for Active; 'I' for Inactive)
REMARK    1  A    between atoms: C_1  and  C_2
REMARK    2  A    between atoms: C_2  and  O_3
REMARK    3  A    between atoms: O_3  and  C_4
REMARK    4  A    between atoms: C_6  and  N_31
REMARK    5  A    between atoms: C_19  and  C_20
REMARK    6  A    between atoms: C_19  and  N_67
REMARK    7  A    between atoms: C_32  and  C_34
REMARK                            x       y       z     vdW  Elec       q    Type
REMARK                         _______ _______ _______ _____ _____    ______ ____
ROOT
ATOM      1  C   UNL     1      -2.132   0.953   1.348  0.00  0.00    +0.153 C 
ATOM      2  C   UNL     1      -2.316   0.766   2.870  0.00  0.00    +0.133 C 
ATOM      3  C   UNL     1      -0.914   0.646   3.428  0.00  0.00    -0.021 A 
ATOM      4  C   UNL     1      -0.472   0.165   4.649  0.00  0.00    +0.006 A 
ATOM      5  C   UNL     1       0.877   0.152   4.945  0.00  0.00    +0.000 A 
ATOM      6  C   UNL     1       1.790   0.621   4.019  0.00  0.00    +0.000 A 
ATOM      7  C   UNL     1       1.352   1.101   2.801  0.00  0.00    +0.004 A 
ATOM      8  C   UNL     1      -0.000   1.115   2.501  0.00  0.00    -0.034 A 
ATOM      9  C   UNL     1      -0.729   1.579   1.263  0.00  0.00    +0.021 C 
ATOM     10  C   UNL     1      -0.013   1.086   0.008  0.00  0.00    -0.005 C 
ATOM     11  C   UNL     1      -0.755   1.594  -1.232  0.00  0.00    -0.077 C 
ATOM     12  C   UNL     1      -1.554   3.544  -0.033  0.00  0.00    -0.077 C 
ATOM     13  C   UNL     1      -0.837   3.101   1.246  0.00  0.00    -0.005 C 
ATOM     14  N   UNL     1      -0.780   3.072  -1.202  0.00  0.00    +0.383 N 
ATOM     15  H   UNL     1       0.183   3.420  -1.126  0.00  0.00    -0.081 HD
ENDROOT
BRANCH   2  16
ATOM     16  N   UNL     1      -2.995   1.930   3.446  0.00  0.00    -0.299 N 
ATOM     17  C   UNL     1      -3.697   1.803   4.590  0.00  0.00    +0.280 C 
ATOM     18  O   UNL     1      -3.767   0.722   5.144  0.00  0.00    -0.267 OA
ATOM     19  H   UNL     1      -2.938   2.792   3.005  0.00  0.00    +0.150 HD
BRANCH  17  20
ATOM     20  C   UNL     1      -4.376   2.968   5.167  0.00  0.00    +0.189 A 
ATOM     21  C   UNL     1      -5.116   2.978   6.314  0.00  0.00    +0.054 A 
ATOM     22  C   UNL     1      -5.574   4.294   6.486  0.00  0.00    +0.042 A 
ATOM     23  C   UNL     1      -5.099   5.020   5.450  0.00  0.00    +0.196 A 
ATOM     24  O   UNL     1      -4.373   4.218   4.660  0.00  0.00    -0.458 OA
ENDBRANCH  17  20
ENDBRANCH   2  16
BRANCH   1  25
ATOM     25  O   UNL     1      -2.169  -0.307   0.674  0.00  0.00    -0.374 OA
BRANCH  25  27
ATOM     26  C   UNL     1      -3.368  -1.991  -0.578  0.00  0.00    +0.034 C 
ATOM     27  C   UNL     1      -3.445  -0.630   0.116  0.00  0.00    +0.157 C 
ENDBRANCH  25  27
ENDBRANCH   1  25
BRANCH  14  28
ATOM     28  C   UNL     1      -1.382   3.591  -2.447  0.00  0.00    -0.036 C 
BRANCH  28  29
ATOM     29  C   UNL     1      -1.650   5.066  -2.288  0.00  0.00    +0.018 A 
ATOM     30  C   UNL     1      -2.894   5.503  -2.026  0.00  0.00    +0.201 A 
ATOM     31  O   UNL     1      -3.190   6.798  -1.870  0.00  0.00    -0.462 OA
ATOM     32  C   UNL     1      -2.261   7.770  -1.975  0.00  0.00    +0.138 A 
ATOM     33  C   UNL     1      -2.602   9.107  -1.813  0.00  0.00    +0.047 A 
ATOM     34  C   UNL     1      -1.634  10.082  -1.925  0.00  0.00    +0.004 A 
ATOM     35  C   UNL     1      -0.317   9.744  -2.200  0.00  0.00    +0.001 A 
ATOM     36  C   UNL     1       0.043   8.424  -2.365  0.00  0.00    +0.015 A 
ATOM     37  C   UNL     1      -0.927   7.429  -2.253  0.00  0.00    +0.064 A 
ATOM     38  C   UNL     1      -0.590   6.002  -2.421  0.00  0.00    +0.194 A 
ATOM     39  O   UNL     1       0.549   5.643  -2.664  0.00  0.00    -0.287 OA
ENDBRANCH  28  29
ENDBRANCH  14  28
TORSDOF 6
