REMARK  Name = ZINC17836192
REMARK  5 active torsions:
REMARK  status: ('A' for Active; 'I' for Inactive)
REMARK    1  A    between atoms: C_1  and  C_2
REMARK    2  A    between atoms: N_13  and  C_16
REMARK    3  A    between atoms: C_20  and  C_22
REMARK    4  A    between atoms: N_24  and  C_25
REMARK    5  A    between atoms: C_30  and  C_31
REMARK                            x       y       z     vdW  Elec       q    Type
REMARK                         _______ _______ _______ _____ _____    ______ ____
ROOT
ATOM      1  C   UNL     1       5.544  -0.589   2.323  0.00  0.00    +0.045 A 
ATOM      2  C   UNL     1       5.558  -0.538   3.712  0.00  0.00    +0.024 A 
ATOM      3  C   UNL     1       6.755  -0.607   4.399  0.00  0.00    +0.003 A 
ATOM      4  C   UNL     1       7.946  -0.727   3.710  0.00  0.00    +0.013 A 
ATOM      5  C   UNL     1       7.942  -0.779   2.315  0.00  0.00    +0.039 A 
ATOM      6  C   UNL     1       6.733  -0.714   1.623  0.00  0.00    +0.037 A 
ENDROOT
BRANCH   1  16
ATOM      7  C   UNL     1      -0.033   1.476   0.024  0.00  0.00    +0.007 C 
ATOM      8  C   UNL     1      -0.004  -0.053   0.007  0.00  0.00    -0.013 C 
ATOM      9  C   UNL     1       0.690  -0.522  -1.267  0.00  0.00    +0.004 C 
ATOM     10  C   UNL     1       2.188  -0.166  -1.277  0.00  0.00    +0.014 C 
ATOM     11  C   UNL     1       2.787  -0.779  -0.033  0.00  0.00    +0.088 C 
ATOM     12  C   UNL     1       2.140  -0.042   1.178  0.00  0.00    +0.088 C 
ATOM     13  C   UNL     1       0.722  -0.555   1.272  0.00  0.00    +0.016 C 
ATOM     14  C   UNL     1       3.122  -0.395   2.251  0.00  0.00    +0.230 C 
ATOM     15  O   UNL     1       2.890  -0.542   3.432  0.00  0.00    -0.275 OA
ATOM     16  N   UNL     1       4.327  -0.519   1.631  0.00  0.00    -0.210 N 
ATOM     17  C   UNL     1       4.237  -0.574   0.271  0.00  0.00    +0.230 C 
ATOM     18  O   UNL     1       5.143  -0.473  -0.529  0.00  0.00    -0.275 OA
ENDBRANCH   1  16
BRANCH   5  19
ATOM     19  C   UNL     1       9.215  -0.906   1.575  0.00  0.00    +0.248 C 
ATOM     20  O   UNL     1       9.210  -0.951   0.360  0.00  0.00    -0.270 OA
ATOM     21  N   UNL     1      10.382  -0.973   2.246  0.00  0.00    -0.281 N 
ATOM     22  H   UNL     1      10.394  -0.857   3.209  0.00  0.00    +0.155 HD
BRANCH  21  23
ATOM     23  C   UNL     1      11.574  -1.210   1.555  0.00  0.00    +0.045 A 
ATOM     24  C   UNL     1      11.551  -1.869   0.333  0.00  0.00    +0.024 A 
ATOM     25  C   UNL     1      12.730  -2.101  -0.347  0.00  0.00    +0.002 A 
ATOM     26  C   UNL     1      13.934  -1.678   0.188  0.00  0.00    +0.001 A 
ATOM     27  C   UNL     1      13.960  -1.021   1.404  0.00  0.00    +0.014 A 
ATOM     28  C   UNL     1      12.784  -0.781   2.086  0.00  0.00    +0.076 A 
BRANCH  28  29
ATOM     29  C   UNL     1      12.813  -0.059   3.409  0.00  0.00    +0.419 C 
ATOM     30  F   UNL     1      14.134   0.270   3.732  0.00  0.00    -0.166 F 
ATOM     31  F   UNL     1      12.050   1.110   3.320  0.00  0.00    -0.166 F 
ATOM     32  F   UNL     1      12.282  -0.887   4.404  0.00  0.00    -0.166 F 
ENDBRANCH  28  29
ENDBRANCH  21  23
ENDBRANCH   5  19
TORSDOF 4
