REMARK  Name = ZINC15731699
REMARK  4 active torsions:
REMARK  status: ('A' for Active; 'I' for Inactive)
REMARK    1  A    between atoms: C_10  and  C_11
REMARK    2  A    between atoms: C_10  and  N_49
REMARK    3  A    between atoms: N_16  and  S_18
REMARK    4  A    between atoms: S_18  and  C_21
REMARK                            x       y       z     vdW  Elec       q    Type
REMARK                         _______ _______ _______ _____ _____    ______ ____
ROOT
ATOM      1  C   UNL     1       1.426   1.978  -0.001  0.00  0.00    -0.012 C 
ATOM      2  C   UNL     1       2.194   1.353   1.166  0.00  0.00    +0.004 C 
ATOM      3  C   UNL     1       2.220  -0.169   1.005  0.00  0.00    +0.017 C 
ATOM      4  C   UNL     1       0.786  -0.706   1.028  0.00  0.00    +0.109 C 
ATOM      5  N   UNL     1       0.002  -0.004   0.002  0.00  0.00    -0.175 NA
ATOM      6  C   UNL     1      -0.018   1.465   0.010  0.00  0.00    +0.111 C 
ENDROOT
BRANCH   5   7
ATOM      7  S   UNL     1      -0.842  -0.853  -1.142  0.00  0.00    +0.080 S 
ATOM      8  O   UNL     1      -1.094  -2.138  -0.590  0.00  0.00    -0.151 OA
ATOM      9  O   UNL     1      -1.885   0.000  -1.593  0.00  0.00    -0.151 OA
BRANCH   7  10
ATOM     10  C   UNL     1       0.238  -1.096  -2.513  0.00  0.00    +0.211 A 
ATOM     11  C   UNL     1       0.373  -0.273  -3.570  0.00  0.00    +0.133 A 
ATOM     12  N   UNL     1       1.312  -0.834  -4.392  0.00  0.00    -0.349 N 
ATOM     13  H   UNL     1       1.641  -0.461  -5.259  0.00  0.00    +0.166 HD
ATOM     14  C   UNL     1       1.712  -1.987  -3.813  0.00  0.00    +0.198 A 
ATOM     15  N   UNL     1       1.065  -2.137  -2.689  0.00  0.00    -0.217 NA
ENDBRANCH   7  10
ENDBRANCH   5   7
BRANCH   1  16
ATOM     16  C   UNL     1       1.428   3.501   0.143  0.00  0.00    -0.074 C 
BRANCH  16  26
ATOM     17  C   UNL     1       7.216   5.459  -1.850  0.00  0.00    +0.000 A 
ATOM     18  C   UNL     1       6.740   4.508  -2.732  0.00  0.00    +0.000 A 
ATOM     19  C   UNL     1       5.479   3.975  -2.554  0.00  0.00    +0.002 A 
ATOM     20  C   UNL     1       4.686   4.388  -1.493  0.00  0.00    -0.061 A 
ATOM     21  C   UNL     1       5.164   5.334  -0.611  0.00  0.00    -0.048 A 
ATOM     22  C   UNL     1       6.429   5.870  -0.793  0.00  0.00    +0.004 A 
ATOM     23  C   UNL     1       4.344   5.806   0.562  0.00  0.00    +0.017 C 
ATOM     24  C   UNL     1       2.876   5.432   0.358  0.00  0.00    -0.074 C 
ATOM     25  C   UNL     1       3.316   3.781  -1.342  0.00  0.00    -0.043 C 
ATOM     26  N   UNL     1       2.818   3.993   0.027  0.00  0.00    +0.383 N 
ATOM     27  H   UNL     1       3.412   3.473   0.684  0.00  0.00    -0.081 HD
ENDBRANCH  16  26
ENDBRANCH   1  16
TORSDOF 4
