REMARK  Name = ZINC16840803
REMARK  6 active torsions:
REMARK  status: ('A' for Active; 'I' for Inactive)
REMARK    1  A    between atoms: C_1  and  C_2
REMARK    2  A    between atoms: C_3  and  C_14
REMARK    3  A    between atoms: C_5  and  C_7
REMARK    4  A    between atoms: C_14  and  S_15
REMARK    5  A    between atoms: S_15  and  C_16
REMARK    6  A    between atoms: C_20  and  O_22
REMARK                            x       y       z     vdW  Elec       q    Type
REMARK                         _______ _______ _______ _____ _____    ______ ____
ROOT
ATOM      1  C   UNL     1      -0.013   1.086   0.008  0.00  0.00    +0.088 C 
ATOM      2  C   UNL     1      -0.718   1.572   1.248  0.00  0.00    +0.127 A 
ATOM      3  C   UNL     1      -0.923   2.854   1.598  0.00  0.00    +0.093 A 
ATOM      4  N   UNL     1      -1.587   2.861   2.764  0.00  0.00    -0.213 NA
ATOM      5  C   UNL     1      -1.786   1.620   3.140  0.00  0.00    +0.228 A 
ATOM      6  O   UNL     1      -1.256   0.802   2.215  0.00  0.00    -0.440 OA
ENDROOT
BRANCH   5   7
ATOM      7  C   UNL     1      -2.479   1.193   4.375  0.00  0.00    +0.037 A 
ATOM      8  C   UNL     1      -2.983   2.147   5.261  0.00  0.00    +0.014 A 
ATOM      9  C   UNL     1      -3.632   1.742   6.408  0.00  0.00    +0.021 A 
ATOM     10  C   UNL     1      -3.775   0.393   6.688  0.00  0.00    +0.041 A 
ATOM     11  C   UNL     1      -3.272  -0.557   5.815  0.00  0.00    +0.021 A 
ATOM     12  C   UNL     1      -2.626  -0.165   4.662  0.00  0.00    +0.014 A 
ATOM     13 CL   UNL     1      -4.588  -0.108   8.137  0.00  0.00    -0.084 Cl
ENDBRANCH   5   7
BRANCH   3  14
ATOM     14  C   UNL     1      -0.486   4.068   0.818  0.00  0.00    +0.136 C 
BRANCH  14  15
ATOM     15  S   UNL     1      -1.796   4.546  -0.336  0.00  0.00    -0.080 S 
BRANCH  15  16
ATOM     16  C   UNL     1      -1.040   5.947  -1.093  0.00  0.00    +0.192 A 
ATOM     17  N   UNL     1      -1.701   6.609  -2.031  0.00  0.00    -0.226 NA
ATOM     18  C   UNL     1      -1.165   7.667  -2.623  0.00  0.00    +0.052 A 
ATOM     19  C   UNL     1       0.099   8.078  -2.249  0.00  0.00    +0.035 A 
ATOM     20  C   UNL     1       0.770   7.363  -1.259  0.00  0.00    +0.220 A 
ATOM     21  N   UNL     1       0.172   6.315  -0.704  0.00  0.00    -0.187 NA
ATOM     22  C   UNL     1       0.502   9.294  -3.050  0.00  0.00    +0.043 C 
ATOM     23  C   UNL     1      -0.814   9.842  -3.642  0.00  0.00    +0.011 C 
ATOM     24  C   UNL     1      -1.701   8.580  -3.704  0.00  0.00    +0.056 C 
BRANCH  20  25
ATOM     25  O   UNL     1       2.012   7.734  -0.865  0.00  0.00    -0.492 OA
ATOM     26  H   UNL     1       2.019   8.366  -0.132  0.00  0.00    +0.294 HD
ENDBRANCH  20  25
ENDBRANCH  15  16
ENDBRANCH  14  15
ENDBRANCH   3  14
TORSDOF 5
