REMARK  Name = ZINC44784641
REMARK  7 active torsions:
REMARK  status: ('A' for Active; 'I' for Inactive)
REMARK    1  A    between atoms: C_1  and  C_2
REMARK    2  A    between atoms: C_7  and  C_19
REMARK    3  A    between atoms: C_10  and  C_12
REMARK    4  A    between atoms: C_12  and  C_13
REMARK    5  A    between atoms: C_12  and  C_14
REMARK    6  A    between atoms: C_12  and  C_15
REMARK    7  A    between atoms: N_16  and  O_17
REMARK                            x       y       z     vdW  Elec       q    Type
REMARK                         _______ _______ _______ _____ _____    ______ ____
ROOT
ATOM      1  C   UNL     1       0.120   1.080  -0.302  0.00  0.00    +0.028 C 
ATOM      2  C   UNL     1       0.586  -0.376  -0.383  0.00  0.00    +0.073 C 
ATOM      3  C   UNL     1      -0.630  -1.296  -0.534  0.00  0.00    +0.022 C 
ATOM      4  C   UNL     1      -0.171  -2.755  -0.475  0.00  0.00    +0.004 C 
ATOM      5  C   UNL     1       0.480  -3.032   0.882  0.00  0.00    +0.022 C 
ATOM      6  C   UNL     1       1.708  -2.131   1.049  0.00  0.00    +0.073 C 
ATOM      7  N   UNL     1       1.303  -0.733   0.848  0.00  0.00    -0.295 N 
ATOM      8  C   UNL     1       1.581   0.203   1.777  0.00  0.00    +0.229 C 
ATOM      9  O   UNL     1       1.162   1.334   1.643  0.00  0.00    -0.275 OA
ATOM     10  C   UNL     1       2.768  -2.512   0.014  0.00  0.00    +0.028 C 
ENDROOT
BRANCH   8  11
ATOM     11  C   UNL     1       2.412  -0.154   2.982  0.00  0.00    +0.100 C 
ATOM     12  C   UNL     1       1.658  -1.175   3.837  0.00  0.00    +0.028 C 
ATOM     13  C   UNL     1       3.742  -0.756   2.524  0.00  0.00    +0.028 C 
BRANCH  11  14
ATOM     14  C   UNL     1       2.675   1.086   3.797  0.00  0.00    +0.146 C 
ATOM     15  N   UNL     1       2.272   1.151   5.023  0.00  0.00    -0.076 NA
ATOM     16  N   UNL     1       3.345   2.150   3.235  0.00  0.00    -0.343 N 
ATOM     17  H   UNL     1       3.647   2.101   2.314  0.00  0.00    +0.144 HD
ATOM     18  H   UNL     1       3.514   2.948   3.759  0.00  0.00    +0.144 HD
BRANCH  15  19
ATOM     19  O   UNL     1       2.520   2.316   5.788  0.00  0.00    -0.408 OA
ATOM     20  H   UNL     1       2.181   2.272   6.693  0.00  0.00    +0.328 HD
ENDBRANCH  15  19
ENDBRANCH  11  14
ENDBRANCH   8  11
TORSDOF 3
