REMARK  Name = ZINC12155164
REMARK  12 active torsions:
REMARK  status: ('A' for Active; 'I' for Inactive)
REMARK    1  A    between atoms: C_1  and  C_2
REMARK    2  A    between atoms: C_4  and  C_32
REMARK    3  A    between atoms: C_6  and  S_8
REMARK    4  A    between atoms: S_8  and  C_9
REMARK    5  A    between atoms: C_12  and  C_26
REMARK    6  A    between atoms: C_15  and  C_16
REMARK    7  A    between atoms: C_15  and  N_66
REMARK    8  A    between atoms: C_19  and  C_23
REMARK    9  A    between atoms: C_23  and  C_25
REMARK   10  A    between atoms: N_28  and  C_29
REMARK   11  A    between atoms: C_29  and  C_30
REMARK   12  A    between atoms: C_29  and  C_31
REMARK                            x       y       z     vdW  Elec       q    Type
REMARK                         _______ _______ _______ _____ _____    ______ ____
ROOT
ATOM      1  C   UNL     1       2.240   6.151   0.337  0.00  0.00    +0.037 C 
ATOM      2  C   UNL     1       3.257   7.322   0.365  0.00  0.00    +0.006 C 
ATOM      3  C   UNL     1       2.606   8.371  -0.560  0.00  0.00    +0.021 C 
ATOM      4  C   UNL     1       1.736   6.210  -1.127  0.00  0.00    -0.063 C 
ATOM      5  N   UNL     1       1.661   7.653  -1.431  0.00  0.00    +0.390 N 
ATOM      6  H   UNL     1       0.708   7.990  -1.249  0.00  0.00    -0.080 HD
ENDROOT
BRANCH   3   7
ATOM      7  C   UNL     1       3.666   9.059  -1.381  0.00  0.00    +0.200 C 
ATOM      8  O   UNL     1       4.266   8.442  -2.236  0.00  0.00    -0.278 OA
ATOM      9  N   UNL     1       3.947  10.359  -1.166  0.00  0.00    -0.314 N 
ATOM     10  H   UNL     1       3.467  10.852  -0.482  0.00  0.00    +0.149 HD
BRANCH   9  11
ATOM     11  C   UNL     1       4.978  11.028  -1.964  0.00  0.00    +0.067 C 
ATOM     12  C   UNL     1       4.699  12.532  -2.000  0.00  0.00    +0.027 C 
ATOM     13  C   UNL     1       6.351  10.778  -1.337  0.00  0.00    +0.027 C 
ENDBRANCH   9  11
ENDBRANCH   3   7
BRANCH   1  14
ATOM     14  S   UNL     1       3.058   4.573   0.677  0.00  0.00    -0.085 S 
BRANCH  14  20
ATOM     15  C   UNL     1       1.016  -0.083   1.263  0.00  0.00    +0.066 C 
ATOM     16  C   UNL     1       0.804   1.385   0.997  0.00  0.00    +0.043 A 
ATOM     17  C   UNL     1      -0.472   1.883   0.788  0.00  0.00    +0.046 A 
ATOM     18  C   UNL     1      -0.624   3.241   0.552  0.00  0.00    +0.043 A 
ATOM     19  N   UNL     1       0.449   4.014   0.524  0.00  0.00    -0.227 NA
ATOM     20  C   UNL     1       1.656   3.506   0.724  0.00  0.00    +0.189 A 
ATOM     21  N   UNL     1       1.835   2.213   0.956  0.00  0.00    -0.227 NA
ATOM     22  C   UNL     1      -1.993   3.827   0.324  0.00  0.00    +0.066 C 
ENDBRANCH  14  20
ENDBRANCH   1  14
BRANCH   5  23
ATOM     23  C   UNL     1       1.996   7.894  -2.859  0.00  0.00    -0.047 C 
BRANCH  23  24
ATOM     24  C   UNL     1       0.830   7.480  -3.719  0.00  0.00    -0.090 C 
ATOM     25  C   UNL     1      -0.024   8.391  -4.063  0.00  0.00    -0.029 C 
ATOM     26  C   UNL     1      -1.224   8.135  -4.927  0.00  0.00    +0.035 C 
ATOM     27  C   UNL     1      -1.530   6.636  -4.971  0.00  0.00    +0.018 C 
ATOM     28  C   UNL     1      -0.234   5.886  -5.301  0.00  0.00    +0.012 C 
ATOM     29  C   UNL     1       0.728   6.038  -4.120  0.00  0.00    +0.029 C 
BRANCH  27  30
ATOM     30  C   UNL     1      -2.560   6.361  -6.035  0.00  0.00    -0.076 C 
ATOM     31  C   UNL     1      -3.698   5.796  -5.715  0.00  0.00    +0.007 C 
ATOM     32  C   UNL     1      -2.281   6.734  -7.468  0.00  0.00    +0.039 C 
ENDBRANCH  27  30
ENDBRANCH  23  24
ENDBRANCH   5  23
TORSDOF 7
