REMARK  Name = ZINC10247876
REMARK  7 active torsions:
REMARK  status: ('A' for Active; 'I' for Inactive)
REMARK    1  A    between atoms: C_1  and  C_2
REMARK    2  A    between atoms: C_2  and  O_3
REMARK    3  A    between atoms: O_3  and  C_4
REMARK    4  A    between atoms: C_4  and  C_6
REMARK    5  A    between atoms: C_10  and  N_23
REMARK    6  A    between atoms: N_14  and  C_16
REMARK    7  A    between atoms: C_24  and  C_26
REMARK                            x       y       z     vdW  Elec       q    Type
REMARK                         _______ _______ _______ _____ _____    ______ ____
ROOT
ATOM      1  C   UNL     1      -3.471  10.360  -2.423  0.00  0.00    +0.177 A 
ATOM      2  C   UNL     1      -2.583   9.470  -1.619  0.00  0.00    +0.030 A 
ATOM      3  C   UNL     1      -1.895   9.813  -0.486  0.00  0.00    +0.058 A 
ATOM      4  S   UNL     1      -1.045   8.319  -0.036  0.00  0.00    -0.080 S 
ATOM      5  C   UNL     1      -1.584   7.279  -1.305  0.00  0.00    +0.085 A 
ATOM      6  C   UNL     1      -2.417   8.090  -2.080  0.00  0.00    +0.079 A 
ATOM      7  C   UNL     1      -3.129   7.698  -3.261  0.00  0.00    +0.282 A 
ATOM      8  O   UNL     1      -3.025   6.559  -3.679  0.00  0.00    -0.265 OA
ATOM      9  N   UNL     1      -3.903   8.576  -3.912  0.00  0.00    -0.195 N 
ATOM     10  N   UNL     1      -4.066   9.893  -3.487  0.00  0.00    -0.156 NA
ENDROOT
BRANCH   9  11
ATOM     11  C   UNL     1      -4.576   8.155  -5.064  0.00  0.00    +0.071 A 
ATOM     12  C   UNL     1      -3.887   7.481  -6.065  0.00  0.00    +0.028 A 
ATOM     13  C   UNL     1      -4.555   7.061  -7.198  0.00  0.00    +0.003 A 
ATOM     14  C   UNL     1      -5.906   7.319  -7.343  0.00  0.00    +0.020 A 
ATOM     15  C   UNL     1      -6.594   7.995  -6.351  0.00  0.00    +0.043 A 
ATOM     16  C   UNL     1      -5.933   8.413  -5.211  0.00  0.00    +0.048 A 
ATOM     17 CL   UNL     1      -8.290   8.317  -6.537  0.00  0.00    -0.083 Cl
ENDBRANCH   9  11
BRANCH   5  18
ATOM     18  N   UNL     1      -1.260   5.945  -1.511  0.00  0.00    -0.279 N 
ATOM     19  C   UNL     1      -0.428   5.314  -0.658  0.00  0.00    +0.224 C 
ATOM     20  O   UNL     1       0.036   5.912   0.289  0.00  0.00    -0.275 OA
ATOM     21  H   UNL     1      -1.631   5.467  -2.269  0.00  0.00    +0.155 HD
BRANCH  19  22
ATOM     22  C   UNL     1      -0.076   3.866  -0.882  0.00  0.00    +0.048 C 
ATOM     23  C   UNL     1       0.604   3.711  -2.243  0.00  0.00    +0.019 C 
ATOM     24  C   UNL     1       0.962   2.241  -2.470  0.00  0.00    -0.009 C 
ATOM     25  C   UNL     1       1.913   1.772  -1.368  0.00  0.00    +0.007 C 
ATOM     26  C   UNL     1       1.233   1.927  -0.007  0.00  0.00    -0.009 C 
ATOM     27  C   UNL     1       0.876   3.397   0.220  0.00  0.00    +0.019 C 
ATOM     28  C   UNL     1      -0.041   1.081   0.026  0.00  0.00    +0.007 C 
ATOM     29  C   UNL     1      -0.993   1.550  -1.076  0.00  0.00    -0.009 C 
ATOM     30  C   UNL     1      -0.313   1.395  -2.438  0.00  0.00    +0.007 C 
ATOM     31  C   UNL     1      -1.351   3.020  -0.849  0.00  0.00    +0.019 C 
ENDBRANCH  19  22
ENDBRANCH   5  18
BRANCH   1  32
ATOM     32  C   UNL     1      -3.677  11.762  -2.017  0.00  0.00    +0.360 C 
ATOM     33  O   UNL     1      -3.123  12.194  -1.025  0.00  0.00    -0.243 OA
BRANCH  32  34
ATOM     34  O   UNL     1      -4.479  12.564  -2.744  0.00  0.00    -0.460 OA
BRANCH  34  36
ATOM     35  C   UNL     1      -5.575  14.683  -3.230  0.00  0.00    +0.048 C 
ATOM     36  C   UNL     1      -4.636  13.932  -2.284  0.00  0.00    +0.229 C 
ENDBRANCH  34  36
ENDBRANCH  32  34
ENDBRANCH   1  32
TORSDOF 6
