REMARK  Name = ZINC14881806
REMARK  7 active torsions:
REMARK  status: ('A' for Active; 'I' for Inactive)
REMARK    1  A    between atoms: C_3  and  C_18
REMARK    2  A    between atoms: C_8  and  C_9
REMARK    3  A    between atoms: C_9  and  N_10
REMARK    4  A    between atoms: C_14  and  O_17
REMARK    5  A    between atoms: N_20  and  C_21
REMARK    6  A    between atoms: C_21  and  C_22
REMARK    7  A    between atoms: C_22  and  N_28
REMARK                            x       y       z     vdW  Elec       q    Type
REMARK                         _______ _______ _______ _____ _____    ______ ____
ROOT
ATOM      1  C   UNL     1       1.012   5.795   1.795  0.00  0.00    +0.020 A 
ATOM      2  C   UNL     1       0.139   6.199   2.804  0.00  0.00    +0.020 A 
ATOM      3  C   UNL     1       0.638   6.947   3.869  0.00  0.00    +0.101 A 
ATOM      4  C   UNL     1       2.019   7.272   3.888  0.00  0.00    +0.261 A 
ATOM      5  O   UNL     1       2.481   7.925   4.808  0.00  0.00    -0.267 OA
ATOM      6  N   UNL     1       2.820   6.851   2.890  0.00  0.00    -0.327 N 
ATOM      7  H   UNL     1       3.893   7.093   2.907  0.00  0.00    +0.169 HD
ATOM      8  C   UNL     1       2.326   6.129   1.856  0.00  0.00    +0.003 A 
ENDROOT
BRANCH   3   9
ATOM      9  C   UNL     1      -0.251   7.393   4.952  0.00  0.00    +0.249 C 
ATOM     10  O   UNL     1       0.170   8.138   5.817  0.00  0.00    -0.270 OA
ATOM     11  N   UNL     1      -1.532   6.975   4.988  0.00  0.00    -0.309 N 
ATOM     12  H   UNL     1      -1.935   6.368   4.164  0.00  0.00    +0.149 HD
BRANCH  11  13
ATOM     13  C   UNL     1      -2.386   7.330   6.124  0.00  0.00    +0.126 C 
BRANCH  13  14
ATOM     14  C   UNL     1      -3.716   6.581   6.015  0.00  0.00    +0.038 C 
ATOM     15  C   UNL     1      -4.322   6.818   4.630  0.00  0.00    +0.024 C 
ATOM     16  C   UNL     1      -4.562   8.315   4.427  0.00  0.00    +0.002 C 
ATOM     17  C   UNL     1      -5.525   8.828   5.500  0.00  0.00    +0.000 C 
ATOM     18  C   UNL     1      -4.919   8.591   6.884  0.00  0.00    +0.002 C 
ATOM     19  C   UNL     1      -4.680   7.093   7.087  0.00  0.00    +0.024 C 
BRANCH  14  20
ATOM     20  N   UNL     1      -3.486   5.143   6.209  0.00  0.00    -0.291 NA
ATOM     21  C   UNL     1      -2.892   4.878   7.528  0.00  0.00    +0.113 C 
ATOM     22  C   UNL     1      -2.726   3.368   7.712  0.00  0.00    +0.175 C 
ATOM     23  O   UNL     1      -1.929   2.847   6.645  0.00  0.00    -0.377 OA
ATOM     24  C   UNL     1      -2.478   3.087   5.346  0.00  0.00    +0.175 C 
ATOM     25  C   UNL     1      -2.642   4.595   5.138  0.00  0.00    +0.113 C 
ENDBRANCH  14  20
ENDBRANCH  13  14
ENDBRANCH  11  13
ENDBRANCH   3   9
BRANCH   8  26
ATOM     26  C   UNL     1       3.255   5.683   0.756  0.00  0.00    -0.024 C 
BRANCH  26  27
ATOM     27  N   UNL     1       3.689   6.851  -0.022  0.00  0.00    +0.385 N 
ATOM     28  C   UNL     1       2.549   7.490  -0.692  0.00  0.00    -0.078 C 
ATOM     29  C   UNL     1       3.054   8.609  -1.605  0.00  0.00    -0.016 C 
ATOM     30  C   UNL     1       3.820   9.638  -0.768  0.00  0.00    +0.027 C 
ATOM     31  C   UNL     1       4.973   8.937  -0.043  0.00  0.00    +0.098 C 
ATOM     32  C   UNL     1       4.412   7.808   0.825  0.00  0.00    -0.047 C 
ATOM     33  H   UNL     1       4.383   6.502  -0.801  0.00  0.00    -0.081 HD
BRANCH  31  34
ATOM     34  O   UNL     1       5.658   9.880   0.784  0.00  0.00    -0.394 OA
ATOM     35  H   UNL     1       6.521   9.557   1.386  0.00  0.00    +0.210 HD
ENDBRANCH  31  34
ENDBRANCH  26  27
ENDBRANCH   8  26
TORSDOF 7
