REMARK  Name = ZINC15085173
REMARK  5 active torsions:
REMARK  status: ('A' for Active; 'I' for Inactive)
REMARK    1  A    between atoms: C_1  and  C_2
REMARK    2  A    between atoms: C_11  and  C_17
REMARK    3  A    between atoms: C_20  and  O_25
REMARK    4  A    between atoms: C_21  and  O_23
REMARK    5  A    between atoms: O_23  and  C_24
REMARK                            x       y       z     vdW  Elec       q    Type
REMARK                         _______ _______ _______ _____ _____    ______ ____
ROOT
ATOM      1  C   UNL     1       4.614   3.250  -4.593  0.00  0.00    +0.008 C 
ATOM      2  C   UNL     1       3.840   2.621  -3.433  0.00  0.00    -0.009 C 
ATOM      3  C   UNL     1       2.353   2.968  -3.559  0.00  0.00    +0.008 C 
ATOM      4  C   UNL     1       1.537   2.144  -2.563  0.00  0.00    +0.036 C 
ATOM      5  C   UNL     1       2.131   2.329  -1.168  0.00  0.00    -0.032 A 
ATOM      6  C   UNL     1       3.399   2.795  -1.022  0.00  0.00    -0.005 A 
ATOM      7  S   UNL     1       3.636   2.844   0.737  0.00  0.00    -0.078 S 
ATOM      8  C   UNL     1       2.039   2.241   1.199  0.00  0.00    +0.076 A 
ATOM      9  C   UNL     1       1.411   2.034  -0.001  0.00  0.00    -0.008 A 
ATOM     10  C   UNL     1      -0.018   1.503   0.010  0.00  0.00    +0.060 C 
ATOM     11  C   UNL     1      -0.714   1.999   1.276  0.00  0.00    +0.109 C 
ATOM     12  C   UNL     1       0.142   1.818   2.498  0.00  0.00    +0.218 C 
ATOM     13  O   UNL     1      -0.375   1.500   3.548  0.00  0.00    -0.275 OA
ATOM     14  N   UNL     1       1.484   2.006   2.442  0.00  0.00    -0.280 N 
ATOM     15  C   UNL     1       4.362   3.176  -2.099  0.00  0.00    +0.046 C 
ATOM     16  H   UNL     1       2.031   1.976   3.243  0.00  0.00    +0.155 HD
ENDROOT
BRANCH  10  17
ATOM     17  C   UNL     1       0.002  -0.004   0.002  0.00  0.00    -0.036 A 
ATOM     18  C   UNL     1       0.620  -0.691   1.030  0.00  0.00    +0.008 A 
ATOM     19  C   UNL     1       0.642  -2.073   1.027  0.00  0.00    +0.049 A 
ATOM     20  C   UNL     1       0.042  -2.773  -0.008  0.00  0.00    +0.158 A 
ATOM     21  C   UNL     1      -0.580  -2.082  -1.042  0.00  0.00    +0.162 A 
ATOM     22  C   UNL     1      -0.602  -0.696  -1.031  0.00  0.00    +0.053 A 
BRANCH  21  23
ATOM     23  O   UNL     1      -1.170  -2.764  -2.060  0.00  0.00    -0.491 OA
ATOM     24  C   UNL     1      -1.790  -1.989  -3.088  0.00  0.00    +0.277 C 
ENDBRANCH  21  23
BRANCH  20  25
ATOM     25  O   UNL     1       0.062  -4.133  -0.012  0.00  0.00    -0.503 OA
ATOM     26  H   UNL     1      -0.693  -4.539   0.436  0.00  0.00    +0.292 HD
ENDBRANCH  20  25
ENDBRANCH  10  17
TORSDOF 3
