REMARK  Name = ZINC11729987
REMARK  4 active torsions:
REMARK  status: ('A' for Active; 'I' for Inactive)
REMARK    1  A    between atoms: C_1  and  C_2
REMARK    2  A    between atoms: C_3  and  C_8
REMARK    3  A    between atoms: C_16  and  C_18
REMARK    4  A    between atoms: C_16  and  C_19
REMARK                            x       y       z     vdW  Elec       q    Type
REMARK                         _______ _______ _______ _____ _____    ______ ____
ROOT
ATOM      1  C   UNL     1       1.241   1.711   2.749  0.00  0.00    +0.002 A 
ATOM      2  C   UNL     1       1.961   0.682   2.143  0.00  0.00    +0.013 A 
ATOM      3  C   UNL     1       3.308   0.546   2.397  0.00  0.00    +0.046 A 
ATOM      4  C   UNL     1       3.956   1.431   3.255  0.00  0.00    +0.124 A 
ATOM      5  C   UNL     1       3.244   2.455   3.857  0.00  0.00    -0.005 A 
ATOM      6  C   UNL     1       1.892   2.598   3.602  0.00  0.00    +0.017 A 
ATOM      7  C   UNL     1       3.912   3.436   4.787  0.00  0.00    +0.042 C 
ATOM      8  C   UNL     1       5.248   2.864   5.266  0.00  0.00    +0.052 C 
ATOM      9  C   UNL     1       6.016   2.346   4.043  0.00  0.00    +0.105 C 
ATOM     10  O   UNL     1       5.284   1.256   3.481  0.00  0.00    -0.486 OA
ATOM     11  C   UNL     1       7.405   1.868   4.471  0.00  0.00    +0.055 C 
ATOM     12  C   UNL     1       6.152   3.464   3.007  0.00  0.00    +0.055 C 
ENDROOT
BRANCH   1  15
ATOM     13  C   UNL     1      -0.013   1.086   0.008  0.00  0.00    +0.054 C 
ATOM     14  C   UNL     1      -0.718   1.572   1.248  0.00  0.00    +0.016 A 
ATOM     15  C   UNL     1      -0.210   1.862   2.482  0.00  0.00    +0.083 A 
ATOM     16  N   UNL     1      -1.030   2.282   3.442  0.00  0.00    -0.225 NA
ATOM     17  C   UNL     1      -2.324   2.422   3.221  0.00  0.00    +0.156 A 
ATOM     18  S   UNL     1      -2.450   1.934   1.506  0.00  0.00    -0.057 S 
ATOM     19  N   UNL     1      -3.321   2.843   4.087  0.00  0.00    -0.338 N 
ATOM     20  H   UNL     1      -3.100   3.083   5.001  0.00  0.00    +0.144 HD
ATOM     21  H   UNL     1      -4.239   2.897   3.780  0.00  0.00    +0.144 HD
ENDBRANCH   1  15
TORSDOF 1
