REMARK  Name = ZINC12469526
REMARK  5 active torsions:
REMARK  status: ('A' for Active; 'I' for Inactive)
REMARK    1  A    between atoms: C_3  and  C_6
REMARK    2  A    between atoms: C_9  and  C_32
REMARK    3  A    between atoms: C_14  and  C_16
REMARK    4  A    between atoms: N_18  and  C_19
REMARK    5  A    between atoms: C_19  and  C_20
REMARK                            x       y       z     vdW  Elec       q    Type
REMARK                         _______ _______ _______ _____ _____    ______ ____
ROOT
ATOM      1  C   UNL     1       3.599   0.625  -0.029  0.00  0.00    +0.140 C 
ATOM      2  C   UNL     1       4.093   0.360  -1.456  0.00  0.00    +0.066 C 
ATOM      3  C   UNL     1       3.487  -0.944  -1.985  0.00  0.00    +0.215 C 
ATOM      4  N   UNL     1       3.692  -2.001  -0.991  0.00  0.00    -0.237 N 
ATOM      5  C   UNL     1       3.970  -1.760   0.325  0.00  0.00    +0.137 A 
ATOM      6  C   UNL     1       4.101  -2.946   0.951  0.00  0.00    +0.112 A 
ATOM      7  C   UNL     1       3.894  -3.961  -0.011  0.00  0.00    +0.167 A 
ATOM      8  N   UNL     1       3.649  -3.382  -1.174  0.00  0.00    -0.163 NA
ATOM      9 CL   UNL     1       4.457  -3.185   2.633  0.00  0.00    -0.078 Cl
ATOM     10  N   UNL     1       4.078  -0.462   0.847  0.00  0.00    -0.318 N 
ATOM     11  H   UNL     1       4.447  -0.287   1.727  0.00  0.00    +0.148 HD
ENDROOT
BRANCH   1  14
ATOM     12  C   UNL     1      -0.016   1.341   0.009  0.00  0.00    +0.041 A 
ATOM     13  C   UNL     1       1.331   1.769  -0.001  0.00  0.00    +0.046 A 
ATOM     14  C   UNL     1       2.092   0.660  -0.014  0.00  0.00    +0.125 A 
ATOM     15  O   UNL     1       1.282  -0.411  -0.012  0.00  0.00    -0.466 OA
ATOM     16  C   UNL     1       0.002  -0.004   0.002  0.00  0.00    +0.195 A 
ENDBRANCH   1  14
BRANCH   7  17
ATOM     17  C   UNL     1       3.945  -5.416   0.239  0.00  0.00    +0.266 C 
ATOM     18  O   UNL     1       4.182  -5.833   1.357  0.00  0.00    -0.268 OA
ATOM     19  N   UNL     1       3.729  -6.282  -0.771  0.00  0.00    -0.309 N 
ATOM     20  H   UNL     1       3.540  -5.949  -1.663  0.00  0.00    +0.149 HD
BRANCH  19  21
ATOM     21  C   UNL     1       3.779  -7.724  -0.523  0.00  0.00    +0.111 C 
BRANCH  21  22
ATOM     22  C   UNL     1       3.501  -8.476  -1.826  0.00  0.00    -0.013 C 
ATOM     23  C   UNL     1       2.114  -8.096  -2.348  0.00  0.00    +0.012 C 
ATOM     24  C   UNL     1       1.835  -8.848  -3.651  0.00  0.00    -0.010 C 
ATOM     25  C   UNL     1       1.888 -10.355  -3.392  0.00  0.00    +0.007 C 
ATOM     26  C   UNL     1       3.275 -10.735  -2.870  0.00  0.00    -0.010 C 
ATOM     27  C   UNL     1       3.553  -9.983  -1.567  0.00  0.00    +0.012 C 
ATOM     28  C   UNL     1       4.332 -10.359  -3.911  0.00  0.00    +0.007 C 
ATOM     29  C   UNL     1       4.279  -8.852  -4.170  0.00  0.00    -0.010 C 
ATOM     30  C   UNL     1       2.892  -8.473  -4.692  0.00  0.00    +0.007 C 
ATOM     31  C   UNL     1       4.557  -8.101  -2.867  0.00  0.00    +0.012 C 
ENDBRANCH  21  22
ENDBRANCH  19  21
ENDBRANCH   7  17
BRANCH   3  32
ATOM     32  C   UNL     1       4.171  -1.332  -3.298  0.00  0.00    +0.412 C 
ATOM     33  F   UNL     1       5.540  -1.512  -3.074  0.00  0.00    -0.168 F 
ATOM     34  F   UNL     1       3.616  -2.522  -3.779  0.00  0.00    -0.168 F 
ATOM     35  F   UNL     1       3.983  -0.315  -4.240  0.00  0.00    -0.168 F 
ENDBRANCH   3  32
TORSDOF 5
