REMARK  Name = ZINC44269236
REMARK  5 active torsions:
REMARK  status: ('A' for Active; 'I' for Inactive)
REMARK    1  A    between atoms: C_1  and  C_2
REMARK    2  A    between atoms: C_7  and  C_8
REMARK    3  A    between atoms: C_9  and  C_15
REMARK    4  A    between atoms: C_10  and  N_14
REMARK    5  A    between atoms: N_11  and  C_13
REMARK                            x       y       z     vdW  Elec       q    Type
REMARK                         _______ _______ _______ _____ _____    ______ ____
ROOT
ATOM      1  C   UNL     1       0.025   0.022   2.495  0.00  0.00    +0.103 A 
ATOM      2  C   UNL     1       0.051  -0.567   3.784  0.00  0.00    +0.050 A 
ATOM      3  C   UNL     1       0.044   0.464   4.705  0.00  0.00    +0.123 A 
ATOM      4  N   UNL     1       0.015   1.629   4.009  0.00  0.00    -0.253 N 
ATOM      5  N   UNL     1       0.009   1.327   2.643  0.00  0.00    -0.169 NA
ATOM      6  C   UNL     1      -0.002   2.974   4.590  0.00  0.00    +0.174 C 
ENDROOT
BRANCH   1  13
ATOM      7  C   UNL     1      -0.018   1.503   0.010  0.00  0.00    +0.044 C 
ATOM      8  C   UNL     1       0.002  -0.004   0.002  0.00  0.00    -0.041 A 
ATOM      9  C   UNL     1       0.006  -0.689  -1.196  0.00  0.00    +0.004 A 
ATOM     10  C   UNL     1       0.024  -2.072  -1.206  0.00  0.00    +0.000 A 
ATOM     11  C   UNL     1       0.040  -2.777  -0.015  0.00  0.00    +0.001 A 
ATOM     12  C   UNL     1       0.036  -2.102   1.189  0.00  0.00    +0.010 A 
ATOM     13  C   UNL     1       0.023  -0.709   1.204  0.00  0.00    +0.006 A 
ENDBRANCH   1  13
BRANCH   2  14
ATOM     14  C   UNL     1       0.080  -2.017   4.088  0.00  0.00    +0.006 A 
ATOM     15  C   UNL     1       1.300  -2.680   4.223  0.00  0.00    +0.010 A 
ATOM     16  C   UNL     1       1.321  -4.030   4.506  0.00  0.00    +0.001 A 
ATOM     17  C   UNL     1       0.135  -4.727   4.656  0.00  0.00    +0.001 A 
ATOM     18  C   UNL     1      -1.078  -4.076   4.523  0.00  0.00    +0.020 A 
ATOM     19  C   UNL     1      -1.112  -2.724   4.246  0.00  0.00    +0.049 A 
ATOM     20 CL   UNL     1      -2.635  -1.906   4.088  0.00  0.00    -0.083 Cl
ENDBRANCH   2  14
BRANCH   3  21
ATOM     21  N   UNL     1       0.062   0.332   6.087  0.00  0.00    -0.343 N 
ATOM     22  H   UNL     1       0.083  -0.550   6.490  0.00  0.00    +0.144 HD
ATOM     23  H   UNL     1       0.055   1.122   6.650  0.00  0.00    +0.144 HD
ENDBRANCH   3  21
TORSDOF 3
