REMARK  Name = ZINC06742886
REMARK  6 active torsions:
REMARK  status: ('A' for Active; 'I' for Inactive)
REMARK    1  A    between atoms: C_1  and  C_2
REMARK    2  A    between atoms: C_4  and  C_28
REMARK    3  A    between atoms: N_13  and  C_22
REMARK    4  A    between atoms: C_14  and  C_17
REMARK    5  A    between atoms: C_28  and  O_29
REMARK    6  A    between atoms: O_29  and  C_30
REMARK                            x       y       z     vdW  Elec       q    Type
REMARK                         _______ _______ _______ _____ _____    ______ ____
ROOT
ATOM      1  C   UNL     1       3.683  -0.708  -0.067  0.00  0.00    +0.065 C 
ATOM      2  C   UNL     1       2.368   0.028  -0.034  0.00  0.00    +0.040 A 
ATOM      3  C   UNL     1       1.181  -0.686   0.030  0.00  0.00    +0.029 A 
ATOM      4  C   UNL     1      -0.026  -0.029   0.058  0.00  0.00    -0.009 A 
ATOM      5  C   UNL     1      -0.038   1.388   0.020  0.00  0.00    +0.035 A 
ATOM      6  C   UNL     1      -1.194   2.280   0.031  0.00  0.00    +0.058 A 
ATOM      7  C   UNL     1      -0.923   3.642   0.004  0.00  0.00    +0.098 A 
ATOM      8  S   UNL     1       0.836   3.755  -0.065  0.00  0.00    -0.062 S 
ATOM      9  C   UNL     1       1.224   2.020  -0.041  0.00  0.00    +0.111 A 
ATOM     10  N   UNL     1       2.353   1.346  -0.067  0.00  0.00    -0.245 NA
ATOM     11  C   UNL     1      -1.914   4.640   0.018  0.00  0.00    +0.261 C 
ATOM     12  O   UNL     1      -1.661   5.815  -0.182  0.00  0.00    -0.269 OA
ATOM     13  N   UNL     1      -3.175   4.198   0.273  0.00  0.00    -0.241 N 
ATOM     14  C   UNL     1      -3.388   2.828   0.733  0.00  0.00    +0.234 C 
ATOM     15  N   UNL     1      -2.533   1.856   0.051  0.00  0.00    -0.318 N 
ATOM     16  H   UNL     1      -2.867   1.673  -0.883  0.00  0.00    +0.148 HD
ENDROOT
BRANCH  13  17
ATOM     17  C   UNL     1      -4.267   5.054   0.094  0.00  0.00    +0.039 A 
ATOM     18  C   UNL     1      -4.433   6.153   0.928  0.00  0.00    +0.023 A 
ATOM     19  C   UNL     1      -5.509   6.999   0.746  0.00  0.00    +0.002 A 
ATOM     20  C   UNL     1      -6.426   6.747  -0.258  0.00  0.00    +0.000 A 
ATOM     21  C   UNL     1      -6.267   5.651  -1.086  0.00  0.00    +0.002 A 
ATOM     22  C   UNL     1      -5.190   4.804  -0.913  0.00  0.00    +0.023 A 
ENDBRANCH  13  17
BRANCH  14  23
ATOM     23  C   UNL     1      -3.111   2.765   2.213  0.00  0.00    +0.144 A 
ATOM     24  C   UNL     1      -2.647   1.693   2.881  0.00  0.00    +0.048 A 
ATOM     25  C   UNL     1      -2.534   2.074   4.238  0.00  0.00    +0.041 A 
ATOM     26  C   UNL     1      -2.936   3.355   4.318  0.00  0.00    +0.195 A 
ATOM     27  O   UNL     1      -3.278   3.770   3.087  0.00  0.00    -0.464 OA
ENDBRANCH  14  23
BRANCH   4  28
ATOM     28  C   UNL     1      -1.317  -0.803   0.128  0.00  0.00    +0.195 C 
BRANCH  28  29
ATOM     29  O   UNL     1      -1.033  -2.203   0.154  0.00  0.00    -0.378 OA
ATOM     30  C   UNL     1      -2.195  -3.031   0.221  0.00  0.00    +0.194 C 
ENDBRANCH  28  29
ENDBRANCH   4  28
TORSDOF 4
