REMARK  Name = ZINC13063701
REMARK  14 active torsions:
REMARK  status: ('A' for Active; 'I' for Inactive)
REMARK    1  A    between atoms: C_1  and  C_2
REMARK    2  A    between atoms: C_2  and  C_3
REMARK    3  A    between atoms: C_10  and  C_15
REMARK    4  A    between atoms: C_15  and  N_74
REMARK    5  A    between atoms: C_16  and  C_17
REMARK    6  A    between atoms: C_16  and  N_74
REMARK    7  A    between atoms: C_23  and  C_25
REMARK    8  A    between atoms: C_23  and  C_27
REMARK    9  A    between atoms: C_23  and  N_74
REMARK   10  A    between atoms: C_25  and  C_26
REMARK   11  A    between atoms: N_31  and  C_32
REMARK   12  A    between atoms: C_32  and  C_33
REMARK   13  A    between atoms: C_36  and  O_39
REMARK   14  A    between atoms: O_39  and  C_40
REMARK                            x       y       z     vdW  Elec       q    Type
REMARK                         _______ _______ _______ _____ _____    ______ ____
ROOT
ATOM      1  N   UNL     1       3.207  -1.044   0.989  0.00  0.00    +0.391 N 
ATOM      2  H   UNL     1       3.093  -2.047   1.176  0.00  0.00    -0.080 HD
ENDROOT
BRANCH   1   3
ATOM      3  C   UNL     1       4.268  -0.510   1.867  0.00  0.00    -0.036 C 
BRANCH   3  11
ATOM      4  C   UNL     1       3.876   5.651   2.295  0.00  0.00    -0.047 A 
ATOM      5  C   UNL     1       4.764   5.935   1.267  0.00  0.00    +0.005 A 
ATOM      6  C   UNL     1       5.375   4.919   0.564  0.00  0.00    +0.026 A 
ATOM      7  C   UNL     1       5.101   3.594   0.887  0.00  0.00    +0.049 A 
ATOM      8  C   UNL     1       4.199   3.310   1.930  0.00  0.00    -0.001 A 
ATOM      9  C   UNL     1       3.591   4.357   2.630  0.00  0.00    +0.013 A 
ATOM     10  C   UNL     1       3.917   1.912   2.263  0.00  0.00    +0.017 A 
ATOM     11  C   UNL     1       4.537   0.939   1.551  0.00  0.00    +0.001 A 
ATOM     12  C   UNL     1       5.437   1.278   0.518  0.00  0.00    +0.251 A 
ATOM     13  O   UNL     1       5.987   0.387  -0.106  0.00  0.00    -0.268 OA
ATOM     14  N   UNL     1       5.698   2.558   0.202  0.00  0.00    -0.322 N 
ATOM     15  H   UNL     1       6.319   2.756  -0.517  0.00  0.00    +0.169 HD
BRANCH   4  17
ATOM     16  C   UNL     1       4.088   7.165   4.248  0.00  0.00    +0.009 C 
ATOM     17  C   UNL     1       3.220   6.779   3.049  0.00  0.00    +0.032 C 
ENDBRANCH   4  17
ENDBRANCH   3  11
ENDBRANCH   1   3
BRANCH   1  18
ATOM     18  C   UNL     1       3.583  -0.859  -0.428  0.00  0.00    -0.045 C 
BRANCH  18  19
ATOM     19  C   UNL     1       4.664  -1.881  -0.787  0.00  0.00    +0.102 C 
ATOM     20  C   UNL     1       5.134  -1.677  -2.244  0.00  0.00    +0.032 C 
ATOM     21  C   UNL     1       5.375  -3.112  -2.765  0.00  0.00    +0.030 C 
ATOM     22  C   UNL     1       5.021  -4.013  -1.561  0.00  0.00    +0.160 C 
ATOM     23  O   UNL     1       4.120  -3.219  -0.758  0.00  0.00    -0.378 OA
ENDBRANCH  18  19
ENDBRANCH   1  18
BRANCH   1  24
ATOM     24  C   UNL     1       1.928  -0.356   1.266  0.00  0.00    +0.003 C 
BRANCH  24  25
ATOM     25  C   UNL     1       1.910   1.004   0.618  0.00  0.00    +0.138 A 
ATOM     26  N   UNL     1       2.294   1.296  -0.601  0.00  0.00    -0.115 NA
ATOM     27  N   UNL     1       2.130   2.562  -0.777  0.00  0.00    -0.023 NA
ATOM     28  N   UNL     1       1.647   3.084   0.295  0.00  0.00    -0.044 NA
ATOM     29  N   UNL     1       1.494   2.155   1.178  0.00  0.00    -0.226 N 
BRANCH  29  30
ATOM     30  C   UNL     1       0.971   2.323   2.536  0.00  0.00    +0.182 C 
BRANCH  30  31
ATOM     31  C   UNL     1      -0.525   2.143   2.525  0.00  0.00    -0.026 A 
ATOM     32  C   UNL     1      -1.350   3.235   2.326  0.00  0.00    +0.009 A 
ATOM     33  C   UNL     1      -2.721   3.072   2.310  0.00  0.00    +0.046 A 
ATOM     34  C   UNL     1      -3.272   1.813   2.503  0.00  0.00    +0.120 A 
ATOM     35  C   UNL     1      -2.442   0.720   2.708  0.00  0.00    +0.046 A 
ATOM     36  C   UNL     1      -1.071   0.888   2.718  0.00  0.00    +0.009 A 
BRANCH  34  37
ATOM     37  O   UNL     1      -4.621   1.651   2.493  0.00  0.00    -0.495 OA
ATOM     38  C   UNL     1      -5.413   2.821   2.277  0.00  0.00    +0.277 C 
ENDBRANCH  34  37
ENDBRANCH  30  31
ENDBRANCH  29  30
ENDBRANCH  24  25
BRANCH  24  39
ATOM     39  C   UNL     1       0.784  -1.203   0.705  0.00  0.00    -0.011 C 
ATOM     40  C   UNL     1       0.766  -2.564   1.405  0.00  0.00    +0.002 C 
ENDBRANCH  24  39
ENDBRANCH   1  24
TORSDOF 11
