REMARK  Name = ZINC64652821
REMARK  8 active torsions:
REMARK  status: ('A' for Active; 'I' for Inactive)
REMARK    1  A    between atoms: C_7  and  C_10
REMARK    2  A    between atoms: C_10  and  C_11
REMARK    3  A    between atoms: C_11  and  N_12
REMARK    4  A    between atoms: C_13  and  C_15
REMARK    5  A    between atoms: C_19  and  S_22
REMARK    6  A    between atoms: S_22  and  C_23
REMARK    7  A    between atoms: C_23  and  C_24
REMARK    8  A    between atoms: N_26  and  C_27
REMARK                            x       y       z     vdW  Elec       q    Type
REMARK                         _______ _______ _______ _____ _____    ______ ____
ROOT
ATOM      1  C   UNL     1      -1.718  -6.346  -2.912  0.00  0.00    +0.086 C 
ATOM      2  C   UNL     1      -2.172  -7.034  -3.979  0.00  0.00    +0.020 C 
ATOM      3  C   UNL     1      -3.176  -8.174  -3.847  0.00  0.00    +0.122 C 
ATOM      4  S   UNL     1      -2.706  -9.175  -5.325  0.00  0.00    -0.122 S 
ATOM      5  C   UNL     1      -1.879  -7.819  -6.259  0.00  0.00    +0.188 C 
ATOM      6  N   UNL     1      -1.772  -6.757  -5.238  0.00  0.00    -0.326 N 
ATOM      7  H   UNL     1      -1.421  -5.881  -5.465  0.00  0.00    +0.148 HD
ENDROOT
BRANCH   1   9
ATOM      8  N   UNL     1      -0.308  -4.627  -2.029  0.00  0.00    -0.311 N 
ATOM      9  C   UNL     1      -0.681  -5.397  -3.070  0.00  0.00    +0.238 C 
ATOM     10  O   UNL     1      -0.126  -5.276  -4.147  0.00  0.00    -0.271 OA
ATOM     11  H   UNL     1      -0.750  -4.723  -1.171  0.00  0.00    +0.149 HD
BRANCH   8  12
ATOM     12  C   UNL     1       0.766  -3.644  -2.193  0.00  0.00    +0.109 C 
BRANCH  12  13
ATOM     13  C   UNL     1       0.991  -2.908  -0.871  0.00  0.00    +0.052 C 
BRANCH  13  20
ATOM     14  C   UNL     1       0.966   1.575  -1.845  0.00  0.00    +0.001 A 
ATOM     15  C   UNL     1       2.246   2.143  -1.911  0.00  0.00    +0.002 A 
ATOM     16  C   UNL     1       3.372   1.429  -1.704  0.00  0.00    +0.026 A 
ATOM     17  C   UNL     1       3.298   0.040  -1.406  0.00  0.00    +0.043 A 
ATOM     18  N   UNL     1       4.228  -0.853  -1.170  0.00  0.00    -0.380 N 
ATOM     19  C   UNL     1       3.582  -2.146  -0.919  0.00  0.00    +0.144 C 
ATOM     20  C   UNL     1       2.095  -1.897  -1.040  0.00  0.00    -0.040 C 
ATOM     21  C   UNL     1       1.958  -0.584  -1.331  0.00  0.00    -0.001 A 
ATOM     22  C   UNL     1       0.783   0.265  -1.568  0.00  0.00    +0.010 A 
ATOM     23  H   UNL     1       5.184  -0.687  -1.163  0.00  0.00    +0.160 HD
ENDBRANCH  13  20
ENDBRANCH  12  13
ENDBRANCH   8  12
ENDBRANCH   1   9
BRANCH   5  24
ATOM     24  S   UNL     1      -0.241  -8.339  -6.838  0.00  0.00    -0.119 S 
BRANCH  24  25
ATOM     25  C   UNL     1       0.642  -8.783  -5.317  0.00  0.00    +0.167 C 
BRANCH  25  26
ATOM     26  C   UNL     1       2.037  -9.239  -5.660  0.00  0.00    +0.227 C 
ATOM     27  O   UNL     1       2.400  -9.262  -6.817  0.00  0.00    -0.275 OA
ATOM     28  N   UNL     1       2.881  -9.621  -4.682  0.00  0.00    -0.285 N 
ATOM     29  H   UNL     1       2.568  -9.675  -3.765  0.00  0.00    +0.155 HD
BRANCH  28  30
ATOM     30  C   UNL     1       4.210  -9.938  -4.988  0.00  0.00    +0.033 A 
ATOM     31  C   UNL     1       4.872 -10.926  -4.270  0.00  0.00    +0.025 A 
ATOM     32  C   UNL     1       6.182 -11.237  -4.574  0.00  0.00    +0.022 A 
ATOM     33  C   UNL     1       6.836 -10.566  -5.593  0.00  0.00    +0.041 A 
ATOM     34  C   UNL     1       6.178  -9.582  -6.309  0.00  0.00    +0.022 A 
ATOM     35  C   UNL     1       4.866  -9.271  -6.013  0.00  0.00    +0.025 A 
ATOM     36 CL   UNL     1       8.483 -10.960  -5.972  0.00  0.00    -0.084 Cl
ENDBRANCH  28  30
ENDBRANCH  25  26
ENDBRANCH  24  25
ENDBRANCH   5  24
TORSDOF 8
