REMARK  Name = ZINC02780990
REMARK  9 active torsions:
REMARK  status: ('A' for Active; 'I' for Inactive)
REMARK    1  A    between atoms: C_1  and  C_2
REMARK    2  A    between atoms: C_2  and  C_3
REMARK    3  A    between atoms: C_2  and  C_4
REMARK    4  A    between atoms: C_2  and  C_5
REMARK    5  A    between atoms: C_12  and  N_17
REMARK    6  A    between atoms: C_13  and  C_14
REMARK    7  A    between atoms: C_18  and  C_20
REMARK    8  A    between atoms: C_26  and  C_32
REMARK    9  A    between atoms: C_28  and  C_29
REMARK                            x       y       z     vdW  Elec       q    Type
REMARK                         _______ _______ _______ _____ _____    ______ ____
ROOT
ATOM      1  N   UNL     1      -0.211   6.758   4.632  0.00  0.00    -0.275 N 
ATOM      2  C   UNL     1      -0.842   5.585   4.424  0.00  0.00    +0.254 C 
ATOM      3  O   UNL     1      -1.724   5.226   5.181  0.00  0.00    -0.270 OA
ATOM      4  H   UNL     1       0.492   7.045   4.028  0.00  0.00    +0.156 HD
ENDROOT
BRANCH   1  11
ATOM      5  C   UNL     1      -2.087  10.627   9.361  0.00  0.00    -0.000 C 
ATOM      6  C   UNL     1      -0.583  10.898   9.260  0.00  0.00    +0.009 C 
ATOM      7  C   UNL     1      -0.127  10.764   7.806  0.00  0.00    +0.037 C 
ATOM      8  C   UNL     1      -0.597   9.418   7.266  0.00  0.00    -0.023 A 
ATOM      9  C   UNL     1      -1.583   8.730   7.879  0.00  0.00    -0.004 A 
ATOM     10  S   UNL     1      -1.779   7.260   6.911  0.00  0.00    -0.077 S 
ATOM     11  C   UNL     1      -0.568   7.555   5.708  0.00  0.00    +0.085 A 
ATOM     12  C   UNL     1      -0.036   8.780   6.087  0.00  0.00    +0.068 A 
ATOM     13  C   UNL     1      -2.339   9.134   9.107  0.00  0.00    +0.046 C 
BRANCH  12  14
ATOM     14  C   UNL     1       1.046   9.408   5.324  0.00  0.00    +0.244 C 
ATOM     15  O   UNL     1       0.784  10.164   4.406  0.00  0.00    -0.270 OA
ATOM     16  N   UNL     1       2.331   9.150   5.639  0.00  0.00    -0.325 N 
ATOM     17  H   UNL     1       2.539   8.547   6.370  0.00  0.00    +0.145 HD
ATOM     18  H   UNL     1       3.047   9.566   5.134  0.00  0.00    +0.145 HD
ENDBRANCH  12  14
BRANCH   5  20
ATOM     19  C   UNL     1      -2.314  12.486  11.015  0.00  0.00    +0.011 C 
ATOM     20  C   UNL     1      -2.582  11.001  10.759  0.00  0.00    -0.035 C 
ATOM     21  C   UNL     1      -4.085  10.730  10.857  0.00  0.00    +0.011 C 
ATOM     22  C   UNL     1      -1.843  10.162  11.803  0.00  0.00    +0.011 C 
ENDBRANCH   5  20
ENDBRANCH   1  11
BRANCH   2  23
ATOM     23  C   UNL     1      -0.465   4.743   3.285  0.00  0.00    +0.101 A 
ATOM     24  C   UNL     1       0.528   5.022   2.329  0.00  0.00    +0.150 A 
ATOM     25  N   UNL     1       0.572   4.037   1.471  0.00  0.00    -0.172 NA
ATOM     26  N   UNL     1      -0.380   3.072   1.816  0.00  0.00    -0.212 N 
ATOM     27  C   UNL     1      -1.029   3.499   2.940  0.00  0.00    +0.168 A 
ATOM     28  N   UNL     1      -1.996   2.764   3.491  0.00  0.00    -0.232 NA
ATOM     29  C   UNL     1      -2.348   1.611   2.967  0.00  0.00    +0.049 A 
ATOM     30  C   UNL     1      -1.711   1.140   1.813  0.00  0.00    +0.052 A 
ATOM     31  C   UNL     1      -0.722   1.881   1.250  0.00  0.00    +0.112 A 
BRANCH  31  32
ATOM     32  C   UNL     1      -0.017   1.395   0.010  0.00  0.00    +0.390 C 
ATOM     33  F   UNL     1       0.002  -0.004   0.002  0.00  0.00    -0.202 F 
ATOM     34  F   UNL     1       1.296   1.879  -0.000  0.00  0.00    -0.202 F 
ENDBRANCH  31  32
BRANCH  29  35
ATOM     35  C   UNL     1      -3.443   0.797   3.607  0.00  0.00    +0.038 C 
ATOM     36  C   UNL     1      -4.071  -0.321   2.772  0.00  0.00    +0.010 C 
ATOM     37  C   UNL     1      -4.860   0.960   3.053  0.00  0.00    +0.010 C 
ENDBRANCH  29  35
ENDBRANCH   2  23
TORSDOF 6
