REMARK  Name = ZINC63446241
REMARK  6 active torsions:
REMARK  status: ('A' for Active; 'I' for Inactive)
REMARK    1  A    between atoms: C_1  and  C_2
REMARK    2  A    between atoms: C_2  and  O_3
REMARK    3  A    between atoms: O_3  and  C_4
REMARK    4  A    between atoms: C_4  and  C_6
REMARK    5  A    between atoms: C_9  and  N_12
REMARK    6  A    between atoms: C_28  and  C_33
REMARK                            x       y       z     vdW  Elec       q    Type
REMARK                         _______ _______ _______ _____ _____    ______ ____
ROOT
ATOM      1  N   UNL     1       3.231  -4.526  -6.096  0.00  0.00    -0.220 N 
ATOM      2  C   UNL     1       3.444  -5.777  -6.555  0.00  0.00    +0.246 C 
ATOM      3  O   UNL     1       3.070  -6.815  -6.052  0.00  0.00    -0.273 OA
ATOM      4  C   UNL     1       4.246  -5.614  -7.827  0.00  0.00    +0.167 C 
ATOM      5  C   UNL     1       3.486  -6.239  -9.011  0.00  0.00    +0.065 C 
ATOM      6  C   UNL     1       3.999  -5.553 -10.255  0.00  0.00    -0.034 C 
ATOM      7  C   UNL     1       4.516  -6.057 -11.371  0.00  0.00    -0.001 A 
ATOM      8  C   UNL     1       4.682  -7.444 -11.832  0.00  0.00    +0.010 A 
ATOM      9  C   UNL     1       5.279  -7.606 -13.042  0.00  0.00    +0.001 A 
ATOM     10  C   UNL     1       5.721  -6.539 -13.831  0.00  0.00    +0.002 A 
ATOM     11  C   UNL     1       5.601  -5.231 -13.489  0.00  0.00    +0.026 A 
ATOM     12  C   UNL     1       4.983  -4.934 -12.239  0.00  0.00    +0.043 A 
ATOM     13  N   UNL     1       4.726  -3.789 -11.679  0.00  0.00    -0.375 N 
ATOM     14  C   UNL     1       4.020  -4.038 -10.421  0.00  0.00    +0.131 C 
ATOM     15  C   UNL     1       4.789  -3.469  -9.220  0.00  0.00    +0.132 C 
ATOM     16  N   UNL     1       4.296  -4.149  -8.011  0.00  0.00    -0.291 N 
ATOM     17  C   UNL     1       3.744  -3.602  -6.921  0.00  0.00    +0.148 C 
ATOM     18  S   UNL     1       3.700  -1.918  -6.614  0.00  0.00    -0.018 S 
ATOM     19  H   UNL     1       4.962  -2.918 -12.035  0.00  0.00    +0.160 HD
ENDROOT
BRANCH  15  20
ATOM     20  C   UNL     1       6.263  -3.739  -9.377  0.00  0.00    -0.025 A 
ATOM     21  C   UNL     1       7.142  -2.689  -9.567  0.00  0.00    +0.008 A 
ATOM     22  C   UNL     1       8.494  -2.936  -9.711  0.00  0.00    +0.038 A 
ATOM     23  C   UNL     1       8.968  -4.236  -9.664  0.00  0.00    +0.123 A 
ATOM     24  C   UNL     1       8.087  -5.287  -9.474  0.00  0.00    +0.038 A 
ATOM     25  C   UNL     1       6.736  -5.037  -9.325  0.00  0.00    +0.008 A 
ATOM     26  F   UNL     1      10.290  -4.479  -9.805  0.00  0.00    -0.205 F 
ENDBRANCH  15  20
BRANCH   1  30
ATOM     27  C   UNL     1       1.213  -3.644  -2.557  0.00  0.00    +0.059 A 
ATOM     28  C   UNL     1       0.647  -3.304  -3.789  0.00  0.00    +0.017 A 
ATOM     29  C   UNL     1       1.317  -3.597  -4.956  0.00  0.00    +0.025 A 
ATOM     30  C   UNL     1       2.555  -4.230  -4.910  0.00  0.00    +0.043 A 
ATOM     31  C   UNL     1       3.121  -4.569  -3.685  0.00  0.00    +0.025 A 
ATOM     32  C   UNL     1       2.459  -4.274  -2.514  0.00  0.00    +0.017 A 
BRANCH  27  33
ATOM     33  C   UNL     1       0.498  -3.331  -1.305  0.00  0.00    +0.339 C 
ATOM     34  O   UNL     1       0.994  -3.622  -0.234  0.00  0.00    -0.245 OA
BRANCH  33  35
ATOM     35  O   UNL     1      -0.703  -2.724  -1.348  0.00  0.00    -0.461 OA
BRANCH  35  37
ATOM     36  C   UNL     1      -2.682  -1.764  -0.346  0.00  0.00    +0.048 C 
ATOM     37  C   UNL     1      -1.338  -2.451  -0.097  0.00  0.00    +0.229 C 
ENDBRANCH  35  37
ENDBRANCH  33  35
ENDBRANCH  27  33
ENDBRANCH   1  30
TORSDOF 5
