REMARK  Name = ZINC09264371
REMARK  3 active torsions:
REMARK  status: ('A' for Active; 'I' for Inactive)
REMARK    1  A    between atoms: C_10  and  C_20
REMARK    2  A    between atoms: C_13  and  C_15
REMARK    3  A    between atoms: C_28  and  C_31
REMARK                            x       y       z     vdW  Elec       q    Type
REMARK                         _______ _______ _______ _____ _____    ______ ____
ROOT
ATOM      1  C   UNL     1       2.344  -4.435  -0.444  0.00  0.00    +0.002 A 
ATOM      2  C   UNL     1       2.228  -3.660  -1.583  0.00  0.00    +0.002 A 
ATOM      3  C   UNL     1       1.122  -2.849  -1.769  0.00  0.00    +0.025 A 
ATOM      4  C   UNL     1       0.128  -2.820  -0.803  0.00  0.00    +0.059 A 
ATOM      5  C   UNL     1       0.230  -3.627   0.321  0.00  0.00    +0.053 A 
ATOM      6  C   UNL     1       1.346  -4.422   0.515  0.00  0.00    +0.025 A 
ATOM      7  N   UNL     1      -0.855  -3.648   1.189  0.00  0.00    -0.316 N 
ATOM      8  C   UNL     1      -1.286  -2.584   1.915  0.00  0.00    +0.018 C 
ATOM      9  C   UNL     1      -1.465  -1.348   1.429  0.00  0.00    +0.040 C 
ATOM     10  C   UNL     1      -1.208  -0.902   0.009  0.00  0.00    +0.183 C 
ATOM     11  N   UNL     1      -0.982  -1.986  -0.924  0.00  0.00    -0.248 N 
ATOM     12  C   UNL     1      -1.859  -2.190  -1.926  0.00  0.00    +0.287 C 
ATOM     13  O   UNL     1      -2.832  -1.468  -2.041  0.00  0.00    -0.266 OA
ATOM     14  C   UNL     1      -1.945  -0.313   2.272  0.00  0.00    +0.164 C 
ATOM     15  O   UNL     1      -2.086   0.802   1.809  0.00  0.00    -0.292 OA
ATOM     16  C   UNL     1      -2.283  -0.545   3.714  0.00  0.00    +0.091 C 
ATOM     17  C   UNL     1      -2.698  -2.010   3.890  0.00  0.00    +0.068 C 
ATOM     18  C   UNL     1      -1.552  -2.882   3.381  0.00  0.00    +0.063 C 
ATOM     19  H   UNL     1      -1.340  -4.482   1.283  0.00  0.00    +0.152 HD
ENDROOT
BRANCH  12  20
ATOM     20  C   UNL     1      -1.642  -3.284  -2.878  0.00  0.00    +0.190 A 
ATOM     21  C   UNL     1      -2.448  -3.601  -3.934  0.00  0.00    +0.054 A 
ATOM     22  C   UNL     1      -1.863  -4.707  -4.571  0.00  0.00    +0.042 A 
ATOM     23  C   UNL     1      -0.740  -5.013  -3.884  0.00  0.00    +0.196 A 
ATOM     24  O   UNL     1      -0.608  -4.151  -2.868  0.00  0.00    -0.458 OA
ENDBRANCH  12  20
BRANCH  10  25
ATOM     25  C   UNL     1       0.002  -0.004   0.002  0.00  0.00    +0.130 A 
ATOM     26  C   UNL     1      -0.016   1.341   0.009  0.00  0.00    +0.047 A 
ATOM     27  C   UNL     1       1.331   1.769  -0.001  0.00  0.00    +0.041 A 
ATOM     28  C   UNL     1       2.092   0.660  -0.014  0.00  0.00    +0.195 A 
ATOM     29  O   UNL     1       1.282  -0.411  -0.012  0.00  0.00    -0.466 OA
ENDBRANCH  10  25
BRANCH  17  30
ATOM     30  C   UNL     1      -2.951  -2.299   5.347  0.00  0.00    +0.109 A 
ATOM     31  C   UNL     1      -4.106  -2.748   5.871  0.00  0.00    +0.045 A 
ATOM     32  C   UNL     1      -3.900  -2.881   7.263  0.00  0.00    +0.041 A 
ATOM     33  C   UNL     1      -2.635  -2.497   7.508  0.00  0.00    +0.195 A 
ATOM     34  O   UNL     1      -2.065  -2.146   6.344  0.00  0.00    -0.468 OA
ENDBRANCH  17  30
TORSDOF 3
