REMARK  Name = ZINC12303460
REMARK  10 active torsions:
REMARK  status: ('A' for Active; 'I' for Inactive)
REMARK    1  A    between atoms: C_1  and  O_2
REMARK    2  A    between atoms: O_2  and  C_3
REMARK    3  A    between atoms: C_3  and  C_4
REMARK    4  A    between atoms: C_7  and  C_9
REMARK    5  A    between atoms: C_9  and  N_60
REMARK    6  A    between atoms: C_22  and  C_24
REMARK    7  A    between atoms: C_28  and  O_32
REMARK    8  A    between atoms: C_29  and  O_30
REMARK    9  A    between atoms: O_30  and  C_31
REMARK   10  A    between atoms: O_32  and  C_33
REMARK                            x       y       z     vdW  Elec       q    Type
REMARK                         _______ _______ _______ _____ _____    ______ ____
ROOT
ATOM      1  C   UNL     1       3.802  -0.194  -2.582  0.00  0.00    -0.072 C 
ATOM      2  C   UNL     1       4.475  -0.156  -3.961  0.00  0.00    +0.019 C 
ATOM      3  C   UNL     1       5.899   0.303  -3.771  0.00  0.00    -0.022 A 
ATOM      4  C   UNL     1       7.019   0.213  -4.680  0.00  0.00    +0.003 A 
ATOM      5  C   UNL     1       7.155  -0.300  -5.974  0.00  0.00    +0.010 A 
ATOM      6  C   UNL     1       8.399  -0.217  -6.548  0.00  0.00    +0.001 A 
ATOM      7  C   UNL     1       9.478   0.347  -5.888  0.00  0.00    +0.002 A 
ATOM      8  C   UNL     1       9.373   0.864  -4.608  0.00  0.00    +0.026 A 
ATOM      9  C   UNL     1       8.122   0.793  -3.999  0.00  0.00    +0.047 A 
ATOM     10  N   UNL     1       7.676   1.197  -2.773  0.00  0.00    -0.359 N 
ATOM     11  H   UNL     1       8.221   1.628  -2.096  0.00  0.00    +0.166 HD
ATOM     12  C   UNL     1       6.347   0.901  -2.643  0.00  0.00    +0.011 A 
ATOM     13  C   UNL     1       5.461   1.175  -1.451  0.00  0.00    +0.015 C 
ATOM     14  N   UNL     1       4.050   1.095  -1.897  0.00  0.00    +0.393 N 
ATOM     15  H   UNL     1       3.865   1.861  -2.555  0.00  0.00    -0.080 HD
ENDROOT
BRANCH  13  16
ATOM     16  C   UNL     1       5.729   2.562  -0.924  0.00  0.00    -0.010 A 
ATOM     17  C   UNL     1       5.218   3.663  -1.586  0.00  0.00    +0.006 A 
ATOM     18  C   UNL     1       5.461   4.936  -1.106  0.00  0.00    +0.004 A 
ATOM     19  C   UNL     1       6.217   5.114   0.039  0.00  0.00    +0.049 A 
ATOM     20  C   UNL     1       6.731   4.015   0.707  0.00  0.00    +0.162 A 
ATOM     21  C   UNL     1       6.482   2.733   0.226  0.00  0.00    +0.163 A 
BRANCH  21  22
ATOM     22  O   UNL     1       6.981   1.650   0.881  0.00  0.00    -0.491 OA
ATOM     23  C   UNL     1       8.331   1.283   0.592  0.00  0.00    +0.277 C 
ENDBRANCH  21  22
BRANCH  20  24
ATOM     24  O   UNL     1       7.474   4.188   1.833  0.00  0.00    -0.491 OA
ATOM     25  C   UNL     1       7.684   5.532   2.271  0.00  0.00    +0.277 C 
ENDBRANCH  20  24
ENDBRANCH  13  16
BRANCH  14  26
ATOM     26  C   UNL     1       3.146   1.231  -0.737  0.00  0.00    -0.002 C 
BRANCH  26  30
ATOM     27  C   UNL     1      -0.137   2.255  -1.964  0.00  0.00    +0.131 A 
ATOM     28  C   UNL     1      -0.333   0.925  -1.913  0.00  0.00    +0.047 A 
ATOM     29  C   UNL     1       0.871   0.351  -1.444  0.00  0.00    +0.043 A 
ATOM     30  C   UNL     1       1.731   1.364  -1.238  0.00  0.00    +0.089 A 
ATOM     31  O   UNL     1       1.115   2.515  -1.554  0.00  0.00    -0.464 OA
BRANCH  27  32
ATOM     32  C   UNL     1      -1.148   3.279  -2.412  0.00  0.00    +0.233 C 
BRANCH  32  34
ATOM     33  C   UNL     1      -2.906   4.694  -1.604  0.00  0.00    +0.194 C 
ATOM     34  O   UNL     1      -1.913   3.717  -1.287  0.00  0.00    -0.375 OA
ENDBRANCH  32  34
ENDBRANCH  27  32
ENDBRANCH  26  30
ENDBRANCH  14  26
TORSDOF 7
