REMARK  Name = ZINC34830279
REMARK  8 active torsions:
REMARK  status: ('A' for Active; 'I' for Inactive)
REMARK    1  A    between atoms: C_1  and  C_2
REMARK    2  A    between atoms: C_7  and  C_8
REMARK    3  A    between atoms: N_17  and  C_18
REMARK    4  A    between atoms: C_18  and  C_19
REMARK    5  A    between atoms: C_19  and  C_20
REMARK    6  A    between atoms: C_26  and  C_29
REMARK    7  A    between atoms: C_30  and  C_32
REMARK    8  A    between atoms: C_32  and  C_33
REMARK                            x       y       z     vdW  Elec       q    Type
REMARK                         _______ _______ _______ _____ _____    ______ ____
ROOT
ATOM      1  C   UNL     1       2.632  -2.016   4.237  0.00  0.00    +0.077 C 
ENDROOT
BRANCH   1   2
ATOM      2  C   UNL     1       4.080  -2.268   3.900  0.00  0.00    +0.214 C 
ATOM      3  O   UNL     1       4.583  -1.722   2.942  0.00  0.00    -0.276 OA
ATOM      4  N   UNL     1       4.814  -3.101   4.664  0.00  0.00    -0.298 N 
ATOM      5  C   UNL     1       4.215  -3.775   5.825  0.00  0.00    +0.127 C 
ATOM      6  C   UNL     1       5.056  -3.453   7.066  0.00  0.00    +0.127 C 
ATOM      7  N   UNL     1       6.470  -3.704   6.753  0.00  0.00    -0.295 N 
ATOM      8  C   UNL     1       7.069  -3.031   5.592  0.00  0.00    +0.090 C 
ATOM      9  C   UNL     1       6.226  -3.357   4.348  0.00  0.00    +0.130 C 
ATOM     10  C   UNL     1       7.086  -1.519   5.828  0.00  0.00    +0.029 C 
ATOM     11  C   UNL     1       7.204  -4.537   7.517  0.00  0.00    +0.220 C 
ATOM     12  O   UNL     1       8.370  -4.737   7.249  0.00  0.00    -0.275 OA
BRANCH  11  13
ATOM     13  C   UNL     1       6.577  -5.220   8.705  0.00  0.00    +0.131 C 
BRANCH  13  14
ATOM     14  C   UNL     1       7.603  -6.090   9.384  0.00  0.00    -0.038 A 
ATOM     15  C   UNL     1       7.759  -7.407   8.995  0.00  0.00    +0.007 A 
ATOM     16  C   UNL     1       8.700  -8.205   9.617  0.00  0.00    +0.038 A 
ATOM     17  C   UNL     1       9.487  -7.686  10.631  0.00  0.00    +0.123 A 
ATOM     18  C   UNL     1       9.329  -6.366  11.020  0.00  0.00    +0.038 A 
ATOM     19  C   UNL     1       8.391  -5.568  10.393  0.00  0.00    +0.007 A 
ATOM     20  F   UNL     1      10.406  -8.465  11.240  0.00  0.00    -0.205 F 
ENDBRANCH  13  14
ENDBRANCH  11  13
ENDBRANCH   1   2
BRANCH   1  21
ATOM     21  C   UNL     1       2.035  -1.041   3.220  0.00  0.00    -0.068 C 
BRANCH  21  30
ATOM     22  C   UNL     1       0.025   0.045   2.504  0.00  0.00    -0.006 C 
ATOM     23  C   UNL     1      -1.408   0.381   2.904  0.00  0.00    -0.047 A 
ATOM     24  C   UNL     1      -2.385   0.814   2.011  0.00  0.00    +0.010 A 
ATOM     25  C   UNL     1      -3.634   1.088   2.455  0.00  0.00    +0.045 A 
ATOM     26  S   UNL     1      -3.490   0.739   4.202  0.00  0.00    -0.101 S 
ATOM     27  C   UNL     1      -1.786   0.260   4.208  0.00  0.00    -0.010 A 
ATOM     28  C   UNL     1      -0.922  -0.178   5.345  0.00  0.00    +0.024 C 
ATOM     29  C   UNL     1       0.538  -0.138   4.860  0.00  0.00    -0.072 C 
ATOM     30  N   UNL     1       0.625  -0.795   3.549  0.00  0.00    +0.388 N 
ATOM     31  H   UNL     1       0.135  -1.676   3.587  0.00  0.00    -0.080 HD
BRANCH  22  38
ATOM     32  C   UNL     1      -0.018   1.503   0.010  0.00  0.00    +0.044 C 
ATOM     33  C   UNL     1       0.002  -0.004   0.002  0.00  0.00    -0.049 A 
ATOM     34  C   UNL     1       0.006  -0.689  -1.199  0.00  0.00    +0.003 A 
ATOM     35  C   UNL     1       0.025  -2.071  -1.207  0.00  0.00    +0.000 A 
ATOM     36  C   UNL     1       0.040  -2.768  -0.013  0.00  0.00    +0.000 A 
ATOM     37  C   UNL     1       0.037  -2.084   1.188  0.00  0.00    +0.002 A 
ATOM     38  C   UNL     1       0.023  -0.702   1.195  0.00  0.00    -0.054 A 
ENDBRANCH  22  38
ENDBRANCH  21  30
ENDBRANCH   1  21
TORSDOF 6
