REMARK  Name = ZINC08946529
REMARK  11 active torsions:
REMARK  status: ('A' for Active; 'I' for Inactive)
REMARK    1  A    between atoms: C_1  and  C_2
REMARK    2  A    between atoms: C_2  and  C_4
REMARK    3  A    between atoms: C_2  and  N_11
REMARK    4  A    between atoms: C_12  and  C_14
REMARK    5  A    between atoms: C_14  and  N_15
REMARK    6  A    between atoms: C_18  and  C_22
REMARK    7  A    between atoms: C_18  and  C_23
REMARK    8  A    between atoms: C_26  and  C_29
REMARK    9  A    between atoms: C_29  and  C_30
REMARK   10  A    between atoms: C_29  and  C_31
REMARK   11  A    between atoms: C_29  and  C_32
REMARK                            x       y       z     vdW  Elec       q    Type
REMARK                         _______ _______ _______ _____ _____    ______ ____
ROOT
ATOM      1  N   UNL     1       1.304  -0.351  -0.012  0.00  0.00    -0.215 N 
ATOM      2  C   UNL     1       0.002  -0.004   0.002  0.00  0.00    +0.251 C 
ATOM      3  O   UNL     1      -0.954  -0.749   0.008  0.00  0.00    -0.272 OA
ATOM      4  C   UNL     1      -0.018   1.512   0.010  0.00  0.00    +0.135 C 
ATOM      5  N   UNL     1       1.409   1.877  -0.001  0.00  0.00    -0.281 N 
ATOM      6  C   UNL     1       2.101   0.724  -0.014  0.00  0.00    +0.310 C 
ATOM      7  O   UNL     1       3.315   0.665  -0.026  0.00  0.00    -0.252 OA
ATOM      8  C   UNL     1      -0.698   2.034   1.278  0.00  0.00    +0.047 C 
ATOM      9  H   UNL     1       1.777   2.775  -0.000  0.00  0.00    +0.152 HD
ENDROOT
BRANCH   4  10
ATOM     10  C   UNL     1      -0.711   2.039  -1.220  0.00  0.00    -0.015 A 
ATOM     11  C   UNL     1      -1.712   1.299  -1.820  0.00  0.00    +0.006 A 
ATOM     12  C   UNL     1      -2.351   1.785  -2.946  0.00  0.00    +0.004 A 
ATOM     13  C   UNL     1      -1.981   3.007  -3.477  0.00  0.00    -0.042 A 
ATOM     14  C   UNL     1      -0.977   3.745  -2.879  0.00  0.00    +0.004 A 
ATOM     15  C   UNL     1      -0.342   3.261  -1.750  0.00  0.00    +0.006 A 
BRANCH  13  16
ATOM     16  C   UNL     1      -2.673   3.534  -4.707  0.00  0.00    -0.013 C 
ATOM     17  C   UNL     1      -1.646   3.733  -5.824  0.00  0.00    +0.015 C 
ATOM     18  C   UNL     1      -3.735   2.532  -5.164  0.00  0.00    +0.015 C 
ATOM     19  C   UNL     1      -3.340   4.872  -4.383  0.00  0.00    +0.015 C 
ENDBRANCH  13  16
ENDBRANCH   4  10
BRANCH   1  20
ATOM     20  C   UNL     1       1.788  -1.734  -0.025  0.00  0.00    +0.213 C 
BRANCH  20  22
ATOM     21  N   UNL     1       2.375  -3.449  -1.708  0.00  0.00    -0.307 N 
ATOM     22  C   UNL     1       1.940  -2.199  -1.450  0.00  0.00    +0.231 C 
ATOM     23  O   UNL     1       1.671  -1.450  -2.365  0.00  0.00    -0.274 OA
ATOM     24  H   UNL     1       2.590  -4.048  -0.976  0.00  0.00    +0.149 HD
BRANCH  21  26
ATOM     25  C   UNL     1       1.179  -4.421  -3.607  0.00  0.00    +0.033 C 
ATOM     26  C   UNL     1       2.523  -3.901  -3.093  0.00  0.00    +0.100 C 
BRANCH  26  27
ATOM     27  C   UNL     1       3.546  -5.007  -3.154  0.00  0.00    -0.027 A 
ATOM     28  C   UNL     1       3.583  -5.968  -2.161  0.00  0.00    +0.006 A 
ATOM     29  C   UNL     1       4.518  -6.985  -2.219  0.00  0.00    +0.015 A 
ATOM     30  C   UNL     1       5.422  -7.035  -3.265  0.00  0.00    +0.018 A 
ATOM     31  C   UNL     1       5.387  -6.070  -4.255  0.00  0.00    +0.015 A 
ATOM     32  C   UNL     1       4.449  -5.056  -4.199  0.00  0.00    +0.006 A 
ATOM     33 BR   UNL     1       6.705  -8.422  -3.341  0.00  0.00    -0.050 Br
ENDBRANCH  26  27
ENDBRANCH  21  26
ENDBRANCH  20  22
ENDBRANCH   1  20
TORSDOF 6
