REMARK  Name = ZINC08867251
REMARK  8 active torsions:
REMARK  status: ('A' for Active; 'I' for Inactive)
REMARK    1  A    between atoms: C_3  and  C_7
REMARK    2  A    between atoms: N_9  and  C_10
REMARK    3  A    between atoms: C_10  and  C_11
REMARK    4  A    between atoms: C_10  and  C_15
REMARK    5  A    between atoms: C_10  and  N_55
REMARK    6  A    between atoms: C_19  and  C_20
REMARK    7  A    between atoms: C_19  and  N_55
REMARK    8  A    between atoms: C_20  and  C_21
REMARK                            x       y       z     vdW  Elec       q    Type
REMARK                         _______ _______ _______ _____ _____    ______ ____
ROOT
ATOM      1  C   UNL     1      -7.107   1.345   2.564  0.00  0.00    +0.193 C 
ENDROOT
BRANCH   1   4
ATOM      2  C   UNL     1      -9.087  -0.025   2.939  0.00  0.00    +0.245 C 
ATOM      3  O   UNL     1      -8.432  -1.004   2.637  0.00  0.00    -0.270 OA
ATOM      4  N   UNL     1      -8.503   1.189   2.980  0.00  0.00    -0.307 N 
ATOM      5  H   UNL     1      -9.008   1.959   3.286  0.00  0.00    +0.148 HD
BRANCH   2   8
ATOM      6  C   UNL     1     -12.487  -1.501   3.532  0.00  0.00    +0.020 A 
ATOM      7  C   UNL     1     -11.142  -1.422   3.217  0.00  0.00    +0.016 A 
ATOM      8  C   UNL     1     -10.523  -0.167   3.261  0.00  0.00    +0.055 A 
ATOM      9  C   UNL     1     -11.285   0.949   3.610  0.00  0.00    +0.123 A 
ATOM     10  N   UNL     1     -12.564   0.822   3.897  0.00  0.00    -0.263 NA
ATOM     11  C   UNL     1     -13.172  -0.348   3.869  0.00  0.00    +0.111 A 
ENDBRANCH   2   8
ENDBRANCH   1   4
BRANCH   1  12
ATOM     12  C   UNL     1      -6.185   0.822   3.667  0.00  0.00    +0.404 C 
ATOM     13  F   UNL     1      -4.857   1.124   3.346  0.00  0.00    -0.170 F 
ATOM     14  F   UNL     1      -6.521   1.427   4.882  0.00  0.00    -0.170 F 
ATOM     15  F   UNL     1      -6.333  -0.565   3.779  0.00  0.00    -0.170 F 
ENDBRANCH   1  12
BRANCH   1  16
ATOM     16  C   UNL     1      -6.813   2.826   2.313  0.00  0.00    +0.404 C 
ATOM     17  F   UNL     1      -7.547   3.266   1.206  0.00  0.00    -0.170 F 
ATOM     18  F   UNL     1      -7.177   3.571   3.440  0.00  0.00    -0.170 F 
ATOM     19  F   UNL     1      -5.447   2.994   2.064  0.00  0.00    -0.170 F 
ENDBRANCH   1  16
BRANCH   1  20
ATOM     20  N   UNL     1      -6.884   0.579   1.324  0.00  0.00    +0.405 N 
ATOM     21  H   UNL     1      -7.431   0.999   0.563  0.00  0.00    -0.082 HD
ATOM     22  H   UNL     1      -7.186  -0.392   1.467  0.00  0.00    -0.082 HD
BRANCH  20  23
ATOM     23  C   UNL     1      -5.454   0.596   0.962  0.00  0.00    -0.078 C 
BRANCH  23  24
ATOM     24  C   UNL     1      -5.260  -0.167  -0.350  0.00  0.00    -0.012 C 
BRANCH  24  25
ATOM     25  C   UNL     1      -3.778  -0.154  -0.733  0.00  0.00    -0.030 C 
ATOM     26  C   UNL     1      -3.584  -0.917  -2.045  0.00  0.00    +0.010 C 
ATOM     27  C   UNL     1      -2.103  -0.904  -2.427  0.00  0.00    -0.010 C 
ATOM     28  C   UNL     1      -1.285  -1.575  -1.322  0.00  0.00    +0.007 C 
ATOM     29  C   UNL     1      -1.479  -0.812  -0.010  0.00  0.00    -0.010 C 
ATOM     30  C   UNL     1      -2.960  -0.825   0.373  0.00  0.00    +0.010 C 
ATOM     31  C   UNL     1      -1.010   0.634  -0.186  0.00  0.00    +0.007 C 
ATOM     32  C   UNL     1      -1.828   1.304  -1.291  0.00  0.00    -0.010 C 
ATOM     33  C   UNL     1      -1.634   0.541  -2.603  0.00  0.00    +0.007 C 
ATOM     34  C   UNL     1      -3.309   1.292  -0.909  0.00  0.00    +0.010 C 
ENDBRANCH  24  25
ENDBRANCH  23  24
ENDBRANCH  20  23
ENDBRANCH   1  20
TORSDOF 8
