REMARK  Name = ZINC33278008
REMARK  9 active torsions:
REMARK  status: ('A' for Active; 'I' for Inactive)
REMARK    1  A    between atoms: C_1  and  C_2
REMARK    2  A    between atoms: C_5  and  N_9
REMARK    3  A    between atoms: C_6  and  C_8
REMARK    4  A    between atoms: N_12  and  C_13
REMARK    5  A    between atoms: N_12  and  C_14
REMARK    6  A    between atoms: C_14  and  C_15
REMARK    7  A    between atoms: C_15  and  C_16
REMARK    8  A    between atoms: C_18  and  C_21
REMARK    9  A    between atoms: C_24  and  C_27
REMARK                            x       y       z     vdW  Elec       q    Type
REMARK                         _______ _______ _______ _____ _____    ______ ____
ROOT
ATOM      1  C   UNL     1      -6.547   5.468   0.027  0.00  0.00    +0.174 A 
ATOM      2  N   UNL     1      -5.218   5.286  -0.017  0.00  0.00    -0.192 NA
ATOM      3  C   UNL     1      -5.036   3.981   0.069  0.00  0.00    +0.258 A 
ATOM      4  O   UNL     1      -6.255   3.428   0.170  0.00  0.00    -0.333 OA
ATOM      5  N   UNL     1      -7.101   4.297   0.144  0.00  0.00    -0.061 NA
ENDROOT
BRANCH   3   6
ATOM      6  C   UNL     1      -3.741   3.268   0.061  0.00  0.00    +0.039 A 
ATOM      7  C   UNL     1      -3.710   1.875   0.165  0.00  0.00    +0.014 A 
ATOM      8  C   UNL     1      -2.504   1.211   0.158  0.00  0.00    +0.014 A 
ATOM      9  C   UNL     1      -1.312   1.929   0.046  0.00  0.00    +0.037 A 
ATOM     10  C   UNL     1      -1.342   3.322  -0.053  0.00  0.00    +0.014 A 
ATOM     11  C   UNL     1      -2.549   3.986  -0.051  0.00  0.00    +0.014 A 
BRANCH   9  12
ATOM     12  C   UNL     1      -0.016   1.216   0.039  0.00  0.00    +0.247 C 
ATOM     13  O   UNL     1       0.008   0.001   0.005  0.00  0.00    -0.270 OA
ATOM     14  N   UNL     1       1.137   1.913   0.063  0.00  0.00    -0.298 N 
ATOM     15  C   UNL     1       1.255   3.377  -0.005  0.00  0.00    +0.108 C 
ATOM     16  C   UNL     1       2.760   3.718   0.031  0.00  0.00    +0.020 C 
ATOM     17  C   UNL     1       3.423   2.404  -0.461  0.00  0.00    +0.020 C 
ATOM     18  C   UNL     1       2.489   1.334   0.157  0.00  0.00    +0.108 C 
ENDBRANCH   9  12
ENDBRANCH   3   6
BRANCH   1  19
ATOM     19  C   UNL     1      -7.267   6.790  -0.039  0.00  0.00    +0.099 C 
BRANCH  19  20
ATOM     20  C   UNL     1      -7.442   7.347   1.375  0.00  0.00    +0.117 C 
BRANCH  20  24
ATOM     21  N   UNL     1      -8.084  10.959   1.130  0.00  0.00    -0.269 N 
ATOM     22  C   UNL     1      -7.440   9.777   1.190  0.00  0.00    +0.306 C 
ATOM     23  O   UNL     1      -6.226   9.742   1.134  0.00  0.00    -0.252 OA
ATOM     24  N   UNL     1      -8.142   8.633   1.310  0.00  0.00    -0.288 N 
ATOM     25  C   UNL     1      -9.605   8.674   1.377  0.00  0.00    +0.133 C 
ATOM     26  H   UNL     1      -9.176  10.998   1.258  0.00  0.00    +0.156 HD
BRANCH  21  31
ATOM     27  C   UNL     1      -5.163  15.736   0.218  0.00  0.00    +0.044 C 
ATOM     28  C   UNL     1      -5.939  14.467   0.461  0.00  0.00    -0.050 A 
ATOM     29  C   UNL     1      -5.377  13.447   1.205  0.00  0.00    +0.005 A 
ATOM     30  C   UNL     1      -6.086  12.283   1.429  0.00  0.00    +0.024 A 
ATOM     31  C   UNL     1      -7.364  12.138   0.905  0.00  0.00    +0.038 A 
ATOM     32  C   UNL     1      -7.923  13.162   0.154  0.00  0.00    -0.029 A 
ATOM     33  C   UNL     1      -7.211  14.326  -0.062  0.00  0.00    +0.008 A 
ATOM     34  C   UNL     1      -9.307  13.007  -0.421  0.00  0.00    +0.045 C 
ENDBRANCH  21  31
ENDBRANCH  20  24
ENDBRANCH  19  20
ENDBRANCH   1  19
TORSDOF 6
