REMARK  Name = ZINC05041044
REMARK  8 active torsions:
REMARK  status: ('A' for Active; 'I' for Inactive)
REMARK    1  A    between atoms: C_1  and  C_2
REMARK    2  A    between atoms: N_11  and  C_15
REMARK    3  A    between atoms: C_15  and  C_16
REMARK    4  A    between atoms: C_16  and  O_18
REMARK    5  A    between atoms: O_18  and  C_19
REMARK    6  A    between atoms: C_19  and  C_21
REMARK    7  A    between atoms: C_19  and  C_22
REMARK    8  A    between atoms: N_24  and  C_25
REMARK                            x       y       z     vdW  Elec       q    Type
REMARK                         _______ _______ _______ _____ _____    ______ ____
ROOT
ATOM      1  C   UNL     1      -2.969   0.338   5.571  0.00  0.00    +0.326 C 
ATOM      2  O   UNL     1      -1.783   0.361   5.341  0.00  0.00    -0.249 OA
ENDROOT
BRANCH   1   3
ATOM      3  C   UNL     1      -3.958   0.337   4.434  0.00  0.00    +0.238 C 
BRANCH   3  13
ATOM      4  C   UNL     1      -0.001   1.019   2.499  0.00  0.00    +0.010 C 
ATOM      5  C   UNL     1      -0.727   1.543   1.259  0.00  0.00    +0.018 C 
ATOM      6  C   UNL     1      -0.015   1.040   0.000  0.00  0.00    +0.006 C 
ATOM      7  C   UNL     1      -0.754   1.548  -1.240  0.00  0.00    +0.000 C 
ATOM      8  C   UNL     1      -2.190   1.021  -1.232  0.00  0.00    +0.003 C 
ATOM      9  C   UNL     1      -2.910   1.523   0.022  0.00  0.00    +0.035 C 
ATOM     10  C   UNL     1      -2.167   1.042   1.263  0.00  0.00    +0.115 C 
ATOM     11  C   UNL     1      -2.881   1.498   2.515  0.00  0.00    +0.247 C 
ATOM     12  O   UNL     1      -3.090   2.639   2.866  0.00  0.00    -0.273 OA
ATOM     13  N   UNL     1      -3.236   0.367   3.159  0.00  0.00    -0.213 N 
ATOM     14  C   UNL     1      -2.847  -0.725   2.490  0.00  0.00    +0.310 C 
ATOM     15  O   UNL     1      -3.052  -1.861   2.871  0.00  0.00    -0.252 OA
ATOM     16  N   UNL     1      -2.202  -0.424   1.347  0.00  0.00    -0.285 N 
ATOM     17  H   UNL     1      -1.832  -1.051   0.706  0.00  0.00    +0.151 HD
ENDBRANCH   3  13
ENDBRANCH   1   3
BRANCH   1  18
ATOM     18  O   UNL     1      -3.405   0.313   6.840  0.00  0.00    -0.451 OA
BRANCH  18  19
ATOM     19  C   UNL     1      -2.397   0.315   7.885  0.00  0.00    +0.259 C 
ATOM     20  C   UNL     1      -2.066   1.758   8.271  0.00  0.00    +0.062 C 
BRANCH  19  21
ATOM     21  C   UNL     1      -2.921  -0.420   9.091  0.00  0.00    +0.258 C 
ATOM     22  O   UNL     1      -4.035  -0.900   9.072  0.00  0.00    -0.271 OA
ATOM     23  N   UNL     1      -2.151  -0.546  10.190  0.00  0.00    -0.282 N 
ATOM     24  H   UNL     1      -1.237  -0.222  10.182  0.00  0.00    +0.155 HD
BRANCH  23  25
ATOM     25  C   UNL     1      -2.671  -1.144  11.344  0.00  0.00    +0.034 A 
ATOM     26  C   UNL     1      -2.283  -0.691  12.598  0.00  0.00    +0.025 A 
ATOM     27  C   UNL     1      -2.802  -1.279  13.735  0.00  0.00    +0.022 A 
ATOM     28  C   UNL     1      -3.700  -2.326  13.625  0.00  0.00    +0.041 A 
ATOM     29  C   UNL     1      -4.084  -2.783  12.377  0.00  0.00    +0.022 A 
ATOM     30  C   UNL     1      -3.573  -2.195  11.237  0.00  0.00    +0.025 A 
ATOM     31 CL   UNL     1      -4.345  -3.068  15.056  0.00  0.00    -0.084 Cl
ENDBRANCH  23  25
ENDBRANCH  19  21
ENDBRANCH  18  19
ENDBRANCH   1  18
TORSDOF 6
