REMARK  Name = ZINC36531006
REMARK  16 active torsions:
REMARK  status: ('A' for Active; 'I' for Inactive)
REMARK    1  A    between atoms: C_1  and  C_2
REMARK    2  A    between atoms: C_2  and  C_3
REMARK    3  A    between atoms: C_2  and  C_4
REMARK    4  A    between atoms: C_2  and  C_5
REMARK    5  A    between atoms: C_5  and  C_6
REMARK    6  A    between atoms: C_6  and  C_7
REMARK    7  A    between atoms: C_6  and  C_8
REMARK    8  A    between atoms: C_6  and  N_9
REMARK    9  A    between atoms: C_10  and  C_12
REMARK   10  A    between atoms: C_12  and  C_14
REMARK   11  A    between atoms: C_12  and  N_24
REMARK   12  A    between atoms: C_17  and  C_20
REMARK   13  A    between atoms: N_24  and  C_25
REMARK   14  A    between atoms: C_26  and  C_28
REMARK   15  A    between atoms: C_29  and  O_35
REMARK   16  A    between atoms: C_33  and  O_34
REMARK                            x       y       z     vdW  Elec       q    Type
REMARK                         _______ _______ _______ _____ _____    ______ ____
ROOT
ATOM      1  C   UNL     1       5.368  -0.496  -4.265  0.00  0.00    +0.192 C 
ENDROOT
BRANCH   1   2
ATOM      2  C   UNL     1       4.755   0.252  -5.421  0.00  0.00    -0.018 A 
ATOM      3  C   UNL     1       4.235   1.518  -5.226  0.00  0.00    +0.006 A 
ATOM      4  C   UNL     1       3.672   2.205  -6.286  0.00  0.00    +0.013 A 
ATOM      5  C   UNL     1       3.630   1.626  -7.540  0.00  0.00    +0.055 A 
ATOM      6  C   UNL     1       4.150   0.360  -7.735  0.00  0.00    +0.013 A 
ATOM      7  C   UNL     1       4.717  -0.325  -6.676  0.00  0.00    +0.006 A 
BRANCH   5   8
ATOM      8  C   UNL     1       3.015   2.374  -8.695  0.00  0.00    +0.417 C 
ATOM      9  F   UNL     1       4.000   3.133  -9.336  0.00  0.00    -0.166 F 
ATOM     10  F   UNL     1       2.466   1.461  -9.602  0.00  0.00    -0.166 F 
ATOM     11  F   UNL     1       2.009   3.222  -8.219  0.00  0.00    -0.166 F 
ENDBRANCH   5   8
ENDBRANCH   1   2
BRANCH   1  13
ATOM     12  N   UNL     1       3.260  -0.588  -2.975  0.00  0.00    -0.308 N 
ATOM     13  C   UNL     1       4.562  -0.242  -3.018  0.00  0.00    +0.238 C 
ATOM     14  O   UNL     1       5.085   0.273  -2.052  0.00  0.00    -0.273 OA
ATOM     15  H   UNL     1       2.842  -1.000  -3.747  0.00  0.00    +0.149 HD
BRANCH  12  16
ATOM     16  C   UNL     1       2.477  -0.341  -1.762  0.00  0.00    +0.030 C 
ATOM     17  C   UNL     1       2.598   1.132  -1.367  0.00  0.00    +0.031 C 
ATOM     18  C   UNL     1       3.006  -1.219  -0.625  0.00  0.00    +0.031 C 
BRANCH  16  19
ATOM     19  C   UNL     1       1.008  -0.679  -2.026  0.00  0.00    +0.031 C 
BRANCH  19  21
ATOM     20  C   UNL     1       1.051  -1.074  -4.492  0.00  0.00    +0.010 C 
ATOM     21  C   UNL     1       0.593  -0.119  -3.388  0.00  0.00    -0.036 C 
ATOM     22  C   UNL     1       1.242   1.250  -3.596  0.00  0.00    +0.010 C 
ATOM     23  C   UNL     1      -0.930   0.025  -3.437  0.00  0.00    +0.010 C 
ENDBRANCH  19  21
ENDBRANCH  16  19
ENDBRANCH  12  16
ENDBRANCH   1  13
BRANCH   1  24
ATOM     24  N   UNL     1       6.744  -0.035  -4.060  0.00  0.00    -0.285 N 
ATOM     25  C   UNL     1       7.000   1.349  -3.655  0.00  0.00    +0.133 C 
ATOM     26  C   UNL     1       7.774  -0.885  -4.245  0.00  0.00    +0.254 C 
ATOM     27  O   UNL     1       7.561  -2.034  -4.582  0.00  0.00    -0.270 OA
BRANCH  26  28
ATOM     28  C   UNL     1       9.156  -0.422  -4.039  0.00  0.00    +0.119 A 
ATOM     29  C   UNL     1       9.758  -0.535  -2.777  0.00  0.00    +0.133 A 
ATOM     30  C   UNL     1      11.059  -0.096  -2.594  0.00  0.00    +0.046 A 
ATOM     31  C   UNL     1      11.764   0.451  -3.650  0.00  0.00    +0.007 A 
ATOM     32  C   UNL     1      11.181   0.567  -4.898  0.00  0.00    +0.046 A 
ATOM     33  C   UNL     1       9.882   0.130  -5.104  0.00  0.00    +0.133 A 
BRANCH  33  34
ATOM     34  O   UNL     1       9.314   0.239  -6.331  0.00  0.00    -0.506 OA
ATOM     35  H   UNL     1       8.848   1.075  -6.476  0.00  0.00    +0.292 HD
ENDBRANCH  33  34
BRANCH  29  36
ATOM     36  O   UNL     1       9.068  -1.071  -1.739  0.00  0.00    -0.506 OA
ATOM     37  H   UNL     1       9.168  -2.029  -1.653  0.00  0.00    +0.292 HD
ENDBRANCH  29  36
ENDBRANCH  26  28
ENDBRANCH   1  24
TORSDOF 10
