REMARK  Name = ZINC06442940
REMARK  12 active torsions:
REMARK  status: ('A' for Active; 'I' for Inactive)
REMARK    1  A    between atoms: C_1  and  C_2
REMARK    2  A    between atoms: C_6  and  N_9
REMARK    3  A    between atoms: C_7  and  C_8
REMARK    4  A    between atoms: C_14  and  C_16
REMARK    5  A    between atoms: C_14  and  C_30
REMARK    6  A    between atoms: C_14  and  N_74
REMARK    7  A    between atoms: C_20  and  C_29
REMARK    8  A    between atoms: C_22  and  C_28
REMARK    9  A    between atoms: N_34  and  C_35
REMARK   10  A    between atoms: C_35  and  C_36
REMARK   11  A    between atoms: C_35  and  C_37
REMARK   12  A    between atoms: C_35  and  C_38
REMARK                            x       y       z     vdW  Elec       q    Type
REMARK                         _______ _______ _______ _____ _____    ______ ____
ROOT
ATOM      1  C   UNL     1      -2.625   0.996   0.039  0.00  0.00    +0.039 C 
ENDROOT
BRANCH   1   2
ATOM      2  C   UNL     1      -1.439   1.923  -0.017  0.00  0.00    +0.011 A 
ATOM      3  C   UNL     1      -1.163   2.732   1.036  0.00  0.00    +0.017 A 
ATOM      4  C   UNL     1       0.001   3.617   0.953  0.00  0.00    -0.001 A 
ATOM      5  C   UNL     1       0.338   4.470   2.009  0.00  0.00    +0.013 A 
ATOM      6  C   UNL     1       1.431   5.283   1.900  0.00  0.00    -0.050 A 
ATOM      7  C   UNL     1       2.208   5.271   0.750  0.00  0.00    +0.008 A 
ATOM      8  C   UNL     1       1.894   4.439  -0.303  0.00  0.00    -0.026 A 
ATOM      9  C   UNL     1       0.787   3.602  -0.215  0.00  0.00    +0.052 A 
ATOM     10  N   UNL     1       0.449   2.760  -1.253  0.00  0.00    -0.322 N 
ATOM     11  H   UNL     1       0.992   2.750  -2.057  0.00  0.00    +0.169 HD
ATOM     12  C   UNL     1      -0.622   1.951  -1.168  0.00  0.00    +0.251 A 
ATOM     13  O   UNL     1      -0.890   1.220  -2.105  0.00  0.00    -0.268 OA
ATOM     14  C   UNL     1       2.748   4.436  -1.545  0.00  0.00    +0.046 C 
ATOM     15  C   UNL     1       1.794   6.201   3.038  0.00  0.00    +0.044 C 
ENDBRANCH   1   2
BRANCH   1  21
ATOM     16  N   UNL     1      -6.026   2.192  -2.164  0.00  0.00    -0.333 N 
ATOM     17  C   UNL     1      -5.642   0.774  -2.205  0.00  0.00    +0.086 C 
ATOM     18  C   UNL     1      -4.741   0.457  -1.010  0.00  0.00    -0.058 C 
ATOM     19  C   UNL     1      -3.938   2.741  -1.010  0.00  0.00    -0.058 C 
ATOM     20  C   UNL     1      -4.839   3.058  -2.205  0.00  0.00    +0.086 C 
ATOM     21  N   UNL     1      -3.541   1.318  -1.076  0.00  0.00    +0.391 N 
ATOM     22  H   UNL     1      -3.057   1.148  -1.966  0.00  0.00    -0.080 HD
BRANCH  16  28
ATOM     23  C   UNL     1     -10.423   3.826  -3.629  0.00  0.00    +0.044 C 
ATOM     24  C   UNL     1      -9.047   3.296  -3.941  0.00  0.00    -0.046 A 
ATOM     25  C   UNL     1      -8.657   3.117  -5.255  0.00  0.00    +0.004 A 
ATOM     26  C   UNL     1      -7.396   2.631  -5.545  0.00  0.00    +0.002 A 
ATOM     27  C   UNL     1      -6.520   2.324  -4.522  0.00  0.00    +0.023 A 
ATOM     28  C   UNL     1      -6.909   2.502  -3.201  0.00  0.00    +0.033 A 
ATOM     29  C   UNL     1      -8.179   2.985  -2.913  0.00  0.00    -0.027 A 
ATOM     30  C   UNL     1      -8.607   3.175  -1.480  0.00  0.00    +0.046 C 
ENDBRANCH  16  28
ENDBRANCH   1  21
BRANCH   1  31
ATOM     31  C   UNL     1      -3.328   1.159   1.362  0.00  0.00    +0.143 A 
ATOM     32  N   UNL     1      -4.052   2.183   1.743  0.00  0.00    -0.115 NA
ATOM     33  N   UNL     1      -4.481   1.946   2.935  0.00  0.00    -0.023 NA
ATOM     34  N   UNL     1      -4.049   0.797   3.324  0.00  0.00    -0.043 NA
ATOM     35  N   UNL     1      -3.339   0.278   2.380  0.00  0.00    -0.225 N 
BRANCH  35  36
ATOM     36  C   UNL     1      -2.667  -1.023   2.412  0.00  0.00    +0.059 C 
ATOM     37  C   UNL     1      -1.172  -0.833   2.147  0.00  0.00    +0.036 C 
ATOM     38  C   UNL     1      -2.864  -1.665   3.786  0.00  0.00    +0.036 C 
ATOM     39  C   UNL     1      -3.264  -1.931   1.334  0.00  0.00    +0.036 C 
ENDBRANCH  35  36
ENDBRANCH   1  31
TORSDOF 5
