REMARK  Name = ZINC60032044
REMARK  9 active torsions:
REMARK  status: ('A' for Active; 'I' for Inactive)
REMARK    1  A    between atoms: C_1  and  C_2
REMARK    2  A    between atoms: C_6  and  N_8
REMARK    3  A    between atoms: N_11  and  S_14
REMARK    4  A    between atoms: S_14  and  C_17
REMARK    5  A    between atoms: C_17  and  C_18
REMARK    6  A    between atoms: C_18  and  O_20
REMARK    7  A    between atoms: O_20  and  C_21
REMARK    8  A    between atoms: C_22  and  C_28
REMARK    9  A    between atoms: C_26  and  C_27
REMARK                            x       y       z     vdW  Elec       q    Type
REMARK                         _______ _______ _______ _____ _____    ______ ____
ROOT
ATOM      1  S   UNL     1      -1.095  -4.811   5.994  0.00  0.00    +0.042 S 
ATOM      2  O   UNL     1      -0.581  -6.091   5.656  0.00  0.00    -0.157 OA
ATOM      3  O   UNL     1      -0.399  -3.967   6.901  0.00  0.00    -0.157 OA
ENDROOT
BRANCH   1   7
ATOM      4  N   UNL     1       0.051  -2.796   2.390  0.00  0.00    -0.327 N 
ATOM      5  C   UNL     1       0.152  -2.087   3.673  0.00  0.00    +0.122 C 
ATOM      6  C   UNL     1      -1.028  -2.505   4.559  0.00  0.00    +0.128 C 
ATOM      7  N   UNL     1      -1.113  -3.972   4.566  0.00  0.00    -0.178 NA
ATOM      8  C   UNL     1      -1.214  -4.682   3.283  0.00  0.00    +0.128 C 
ATOM      9  C   UNL     1      -0.040  -4.263   2.397  0.00  0.00    +0.122 C 
BRANCH   4  15
ATOM     10  C   UNL     1      -0.053   1.502   0.010  0.00  0.00    +0.044 C 
ATOM     11  C   UNL     1      -0.015  -0.004   0.002  0.00  0.00    -0.049 A 
ATOM     12  C   UNL     1       0.006  -0.688  -1.200  0.00  0.00    +0.003 A 
ATOM     13  C   UNL     1       0.041  -2.070  -1.212  0.00  0.00    +0.002 A 
ATOM     14  C   UNL     1       0.056  -2.773  -0.023  0.00  0.00    +0.023 A 
ATOM     15  C   UNL     1       0.036  -2.089   1.186  0.00  0.00    +0.030 A 
ATOM     16  C   UNL     1       0.006  -0.700   1.194  0.00  0.00    +0.026 A 
ENDBRANCH   4  15
ENDBRANCH   1   7
BRANCH   1  17
ATOM     17  C   UNL     1      -2.838  -4.945   6.478  0.00  0.00    +0.305 C 
BRANCH  17  18
ATOM     18  C   UNL     1      -2.942  -5.699   7.779  0.00  0.00    +0.335 C 
ATOM     19  O   UNL     1      -1.942  -6.104   8.323  0.00  0.00    -0.249 OA
BRANCH  18  20
ATOM     20  O   UNL     1      -4.145  -5.920   8.332  0.00  0.00    -0.424 OA
BRANCH  20  21
ATOM     21  C   UNL     1      -4.191  -6.604   9.506  0.00  0.00    +0.137 A 
ATOM     22  C   UNL     1      -4.297  -7.987   9.500  0.00  0.00    -0.008 A 
ATOM     23  C   UNL     1      -4.344  -8.680  10.694  0.00  0.00    +0.007 A 
ATOM     24  C   UNL     1      -4.284  -7.996  11.895  0.00  0.00    +0.001 A 
ATOM     25  C   UNL     1      -4.178  -6.617  11.903  0.00  0.00    +0.007 A 
ATOM     26  C   UNL     1      -4.126  -5.920  10.711  0.00  0.00    -0.008 A 
ATOM     27  C   UNL     1      -4.005  -4.418  10.721  0.00  0.00    +0.047 C 
ATOM     28  C   UNL     1      -4.363  -8.733   8.193  0.00  0.00    +0.047 C 
ENDBRANCH  20  21
ENDBRANCH  18  20
ENDBRANCH  17  18
ENDBRANCH   1  17
TORSDOF 6
