REMARK  Name = ZINC44714082
REMARK  9 active torsions:
REMARK  status: ('A' for Active; 'I' for Inactive)
REMARK    1  A    between atoms: C_1  and  C_2
REMARK    2  A    between atoms: C_3  and  C_9
REMARK    3  A    between atoms: C_4  and  C_8
REMARK    4  A    between atoms: C_9  and  C_11
REMARK    5  A    between atoms: C_9  and  N_12
REMARK    6  A    between atoms: C_13  and  C_15
REMARK    7  A    between atoms: C_26  and  C_28
REMARK    8  A    between atoms: C_32  and  O_33
REMARK    9  A    between atoms: O_33  and  C_34
REMARK                            x       y       z     vdW  Elec       q    Type
REMARK                         _______ _______ _______ _____ _____    ______ ____
ROOT
ATOM      1  C   UNL     1      -2.615  -1.626  -4.896  0.00  0.00    +0.100 C 
ATOM      2  C   UNL     1      -1.971  -2.916  -5.451  0.00  0.00    +0.121 C 
ATOM      3  N   UNL     1      -2.678  -3.168  -6.729  0.00  0.00    -0.296 N 
ATOM      4  C   UNL     1      -2.852  -1.822  -7.326  0.00  0.00    +0.115 C 
ATOM      5  C   UNL     1      -3.191  -0.910  -6.130  0.00  0.00    -0.004 C 
ATOM      6  C   UNL     1      -2.533   0.455  -6.304  0.00  0.00    -0.010 C 
ATOM      7  C   UNL     1      -3.163   1.171  -7.502  0.00  0.00    -0.082 C 
ATOM      8  N   UNL     1      -4.606   1.326  -7.278  0.00  0.00    +0.379 N 
ATOM      9  C   UNL     1      -5.246   0.007  -7.205  0.00  0.00    -0.082 C 
ATOM     10  C   UNL     1      -4.703  -0.759  -5.994  0.00  0.00    -0.010 C 
ATOM     11  C   UNL     1      -3.074  -4.353  -7.234  0.00  0.00    +0.251 C 
ATOM     12  O   UNL     1      -2.942  -5.369  -6.577  0.00  0.00    -0.270 OA
ATOM     13  H   UNL     1      -4.759   1.822  -6.413  0.00  0.00    -0.086 HD
ATOM     14  H   UNL     1      -5.009   1.851  -8.040  0.00  0.00    -0.086 HD
ENDROOT
BRANCH  11  15
ATOM     15  C   UNL     1      -3.664  -4.419  -8.580  0.00  0.00    +0.087 A 
ATOM     16  C   UNL     1      -3.249  -3.581  -9.591  0.00  0.00    +0.063 A 
ATOM     17  S   UNL     1      -4.191  -4.022 -10.907  0.00  0.00    -0.081 S 
ATOM     18  C   UNL     1      -5.162  -5.321 -10.176  0.00  0.00    +0.120 A 
ATOM     19  C   UNL     1      -4.702  -5.369  -8.905  0.00  0.00    +0.158 A 
ATOM     20 CL   UNL     1      -6.395  -6.294 -10.915  0.00  0.00    -0.072 Cl
BRANCH  19  21
ATOM     21  O   UNL     1      -5.190  -6.253  -7.990  0.00  0.00    -0.492 OA
ATOM     22  C   UNL     1      -6.306  -5.826  -7.207  0.00  0.00    +0.277 C 
ENDBRANCH  19  21
ENDBRANCH  11  15
BRANCH   1  24
ATOM     23  N   UNL     1      -1.946   0.166  -3.328  0.00  0.00    -0.308 N 
ATOM     24  C   UNL     1      -1.574  -0.765  -4.229  0.00  0.00    +0.219 C 
ATOM     25  O   UNL     1      -0.402  -0.909  -4.502  0.00  0.00    -0.275 OA
ATOM     26  H   UNL     1      -2.885   0.282  -3.110  0.00  0.00    +0.149 HD
BRANCH  23  27
ATOM     27  C   UNL     1      -0.934   1.004  -2.679  0.00  0.00    +0.104 C 
ATOM     28  C   UNL     1      -0.282   0.222  -1.537  0.00  0.00    +0.033 C 
BRANCH  27  31
ATOM     29  C   UNL     1      -3.588   1.112  -1.026  0.00  0.00    +0.065 C 
ATOM     30  C   UNL     1      -2.735   2.292  -1.415  0.00  0.00    +0.038 A 
ATOM     31  C   UNL     1      -1.587   2.246  -2.130  0.00  0.00    +0.015 A 
ATOM     32  C   UNL     1      -1.114   3.555  -2.269  0.00  0.00    +0.065 A 
ATOM     33  N   UNL     1      -1.947   4.358  -1.659  0.00  0.00    -0.179 NA
ATOM     34  N   UNL     1      -2.982   3.585  -1.117  0.00  0.00    -0.281 N 
ATOM     35  H   UNL     1      -3.740   3.920  -0.613  0.00  0.00    +0.189 HD
ATOM     36  C   UNL     1       0.140   3.968  -2.996  0.00  0.00    +0.068 C 
ENDBRANCH  27  31
ENDBRANCH  23  27
ENDBRANCH   1  24
TORSDOF 5
