REMARK  Name = ZINC06149563
REMARK  13 active torsions:
REMARK  status: ('A' for Active; 'I' for Inactive)
REMARK    1  A    between atoms: C_1  and  C_2
REMARK    2  A    between atoms: C_2  and  C_3
REMARK    3  A    between atoms: C_3  and  C_4
REMARK    4  A    between atoms: C_3  and  C_5
REMARK    5  A    between atoms: C_3  and  N_6
REMARK    6  A    between atoms: C_7  and  C_11
REMARK    7  A    between atoms: C_11  and  C_13
REMARK    8  A    between atoms: C_11  and  N_69
REMARK    9  A    between atoms: C_18  and  C_25
REMARK   10  A    between atoms: C_26  and  C_27
REMARK   11  A    between atoms: C_26  and  N_69
REMARK   12  A    between atoms: C_33  and  C_34
REMARK   13  A    between atoms: C_33  and  N_69
REMARK                            x       y       z     vdW  Elec       q    Type
REMARK                         _______ _______ _______ _____ _____    ______ ____
ROOT
ATOM      1  C   UNL     1       5.325  -1.763  -2.101  0.00  0.00    +0.040 C 
ENDROOT
BRANCH   1   2
ATOM      2  C   UNL     1       5.853  -1.917  -3.504  0.00  0.00    +0.011 A 
ATOM      3  C   UNL     1       5.709  -3.099  -4.153  0.00  0.00    +0.017 A 
ATOM      4  C   UNL     1       6.232  -3.217  -5.516  0.00  0.00    -0.001 A 
ATOM      5  C   UNL     1       6.114  -4.410  -6.236  0.00  0.00    +0.010 A 
ATOM      6  C   UNL     1       6.612  -4.487  -7.505  0.00  0.00    +0.004 A 
ATOM      7  C   UNL     1       7.236  -3.391  -8.087  0.00  0.00    -0.048 A 
ATOM      8  C   UNL     1       7.363  -2.206  -7.397  0.00  0.00    +0.029 A 
ATOM      9  C   UNL     1       6.864  -2.104  -6.102  0.00  0.00    +0.049 A 
ATOM     10  N   UNL     1       6.977  -0.930  -5.388  0.00  0.00    -0.322 N 
ATOM     11  H   UNL     1       7.429  -0.141  -5.805  0.00  0.00    +0.169 HD
ATOM     12  C   UNL     1       6.489  -0.830  -4.140  0.00  0.00    +0.251 A 
ATOM     13  O   UNL     1       6.603   0.225  -3.540  0.00  0.00    -0.268 OA
ATOM     14  C   UNL     1       7.778  -3.499  -9.489  0.00  0.00    +0.044 C 
ENDBRANCH   1   2
BRANCH   1  16
ATOM     15  N   UNL     1       6.998  -2.358  -0.270  0.00  0.00    -0.225 N 
ATOM     16  C   UNL     1       6.472  -1.496  -1.160  0.00  0.00    +0.143 A 
ATOM     17  N   UNL     1       7.147  -0.379  -1.045  0.00  0.00    -0.115 NA
ATOM     18  N   UNL     1       8.044  -0.546  -0.136  0.00  0.00    -0.023 NA
ATOM     19  N   UNL     1       7.959  -1.743   0.332  0.00  0.00    -0.043 NA
BRANCH  15  20
ATOM     20  C   UNL     1       6.564  -3.737  -0.032  0.00  0.00    +0.061 C 
ATOM     21  C   UNL     1       5.128  -3.736   0.496  0.00  0.00    +0.036 C 
ATOM     22  C   UNL     1       6.625  -4.524  -1.343  0.00  0.00    +0.036 C 
BRANCH  20  24
ATOM     23  C   UNL     1       7.033  -5.831   1.247  0.00  0.00    +0.006 C 
ATOM     24  C   UNL     1       7.486  -4.391   0.999  0.00  0.00    +0.026 C 
ENDBRANCH  20  24
ENDBRANCH  15  20
ENDBRANCH   1  16
BRANCH   1  25
ATOM     25  N   UNL     1       4.396  -0.615  -2.058  0.00  0.00    +0.397 N 
ATOM     26  H   UNL     1       4.924   0.248  -2.235  0.00  0.00    -0.079 HD
BRANCH  25  27
ATOM     27  C   UNL     1       3.360  -0.765  -3.101  0.00  0.00    -0.041 C 
BRANCH  27  28
ATOM     28  C   UNL     1       2.564   0.513  -3.183  0.00  0.00    -0.064 A 
ATOM     29  C   UNL     1       2.973   1.528  -4.027  0.00  0.00    +0.002 A 
ATOM     30  C   UNL     1       2.243   2.700  -4.102  0.00  0.00    +0.000 A 
ATOM     31  C   UNL     1       1.105   2.856  -3.334  0.00  0.00    +0.000 A 
ATOM     32  C   UNL     1       0.696   1.840  -2.490  0.00  0.00    +0.000 A 
ATOM     33  C   UNL     1       1.425   0.668  -2.415  0.00  0.00    +0.002 A 
ENDBRANCH  27  28
ENDBRANCH  25  27
BRANCH  25  34
ATOM     34  C   UNL     1       3.763  -0.526  -0.725  0.00  0.00    -0.001 C 
BRANCH  34  35
ATOM     35  C   UNL     1       4.762   0.047   0.247  0.00  0.00    +0.089 A 
ATOM     36  C   UNL     1       5.025   1.354   0.426  0.00  0.00    +0.042 A 
ATOM     37  C   UNL     1       6.020   1.438   1.427  0.00  0.00    +0.041 A 
ATOM     38  C   UNL     1       6.305   0.177   1.800  0.00  0.00    +0.195 A 
ATOM     39  O   UNL     1       5.535  -0.661   1.086  0.00  0.00    -0.470 OA
ENDBRANCH  34  35
ENDBRANCH  25  34
ENDBRANCH   1  25
TORSDOF 9
