REMARK  Name = ZINC13466328
REMARK  8 active torsions:
REMARK  status: ('A' for Active; 'I' for Inactive)
REMARK    1  A    between atoms: C_1  and  C_2
REMARK    2  A    between atoms: C_5  and  S_8
REMARK    3  A    between atoms: S_8  and  C_33
REMARK    4  A    between atoms: N_9  and  C_10
REMARK    5  A    between atoms: C_10  and  N_12
REMARK    6  A    between atoms: C_13  and  C_15
REMARK    7  A    between atoms: C_21  and  C_28
REMARK    8  A    between atoms: C_23  and  C_24
REMARK                            x       y       z     vdW  Elec       q    Type
REMARK                         _______ _______ _______ _____ _____    ______ ____
ROOT
ATOM      1  N   UNL     1      -2.851  -6.773   0.089  0.00  0.00    -0.262 N 
ATOM      2  C   UNL     1      -3.095  -8.098   0.093  0.00  0.00    +0.255 C 
ATOM      3  O   UNL     1      -2.170  -8.888   0.050  0.00  0.00    -0.270 OA
ATOM      4  H   UNL     1      -3.588  -6.144   0.124  0.00  0.00    +0.157 HD
ENDROOT
BRANCH   2   5
ATOM      5  C   UNL     1      -4.474  -8.589   0.149  0.00  0.00    +0.101 A 
ATOM      6  C   UNL     1      -5.641  -7.804   0.196  0.00  0.00    +0.150 A 
ATOM      7  N   UNL     1      -6.679  -8.598   0.238  0.00  0.00    -0.172 NA
ATOM      8  N   UNL     1      -6.250  -9.929   0.220  0.00  0.00    -0.209 N 
ATOM      9  C   UNL     1      -4.886  -9.936   0.160  0.00  0.00    +0.169 A 
ATOM     10  N   UNL     1      -4.209 -11.085   0.126  0.00  0.00    -0.223 NA
ATOM     11  C   UNL     1      -4.839 -12.239   0.147  0.00  0.00    +0.148 A 
ATOM     12  C   UNL     1      -6.237 -12.275   0.205  0.00  0.00    +0.064 A 
ATOM     13  C   UNL     1      -6.931 -11.110   0.248  0.00  0.00    +0.149 A 
BRANCH  13  14
ATOM     14  C   UNL     1      -8.437 -11.121   0.309  0.00  0.00    +0.434 C 
ATOM     15  F   UNL     1      -8.893 -12.443   0.328  0.00  0.00    -0.164 F 
ATOM     16  F   UNL     1      -8.862 -10.465   1.470  0.00  0.00    -0.164 F 
ATOM     17  F   UNL     1      -8.954 -10.465  -0.813  0.00  0.00    -0.164 F 
ENDBRANCH  13  14
BRANCH  11  18
ATOM     18  C   UNL     1      -4.053 -13.525   0.109  0.00  0.00    +0.434 C 
ATOM     19  F   UNL     1      -2.686 -13.235   0.053  0.00  0.00    -0.164 F 
ATOM     20  F   UNL     1      -4.325 -14.272   1.260  0.00  0.00    -0.164 F 
ATOM     21  F   UNL     1      -4.421 -14.261  -1.022  0.00  0.00    -0.164 F 
ENDBRANCH  11  18
ENDBRANCH   2   5
BRANCH   1  22
ATOM     22  C   UNL     1      -1.582  -6.322   0.038  0.00  0.00    +0.169 C 
ATOM     23  S   UNL     1      -0.280  -7.433  -0.023  0.00  0.00    -0.016 S 
BRANCH  22  25
ATOM     24  S   UNL     1       0.063  -4.530  -0.023  0.00  0.00    +0.072 S 
ATOM     25  N   UNL     1      -1.343  -5.030   0.034  0.00  0.00    -0.138 NA
ATOM     26  O   UNL     1       0.648  -4.967  -1.242  0.00  0.00    -0.245 OA
ATOM     27  C   UNL     1       0.938  -5.103   1.459  0.00  0.00    +0.136 C 
BRANCH  24  32
ATOM     28  C   UNL     1      -0.018   1.503   0.010  0.00  0.00    +0.044 C 
ATOM     29  C   UNL     1       0.002  -0.004   0.002  0.00  0.00    -0.050 A 
ATOM     30  C   UNL     1       0.006  -0.689  -1.199  0.00  0.00    +0.004 A 
ATOM     31  C   UNL     1       0.025  -2.071  -1.206  0.00  0.00    +0.018 A 
ATOM     32  C   UNL     1       0.040  -2.768  -0.013  0.00  0.00    +0.046 A 
ATOM     33  C   UNL     1       0.037  -2.084   1.188  0.00  0.00    +0.018 A 
ATOM     34  C   UNL     1       0.023  -0.702   1.195  0.00  0.00    +0.004 A 
ENDBRANCH  24  32
ENDBRANCH  22  25
ENDBRANCH   1  22
TORSDOF 6
