REMARK  Name = ZINC11321567
REMARK  6 active torsions:
REMARK  status: ('A' for Active; 'I' for Inactive)
REMARK    1  A    between atoms: N_9  and  C_20
REMARK    2  A    between atoms: C_10  and  S_12
REMARK    3  A    between atoms: S_12  and  C_13
REMARK    4  A    between atoms: C_13  and  C_14
REMARK    5  A    between atoms: C_23  and  O_26
REMARK    6  A    between atoms: O_26  and  C_27
REMARK                            x       y       z     vdW  Elec       q    Type
REMARK                         _______ _______ _______ _____ _____    ______ ____
ROOT
ATOM      1  C   UNL     1       0.382   1.393   1.241  0.00  0.00    +0.001 A 
ATOM      2  C   UNL     1       1.336   2.102   0.522  0.00  0.00    +0.002 A 
ATOM      3  C   UNL     1       2.336   1.455  -0.147  0.00  0.00    +0.028 A 
ATOM      4  C   UNL     1       2.403   0.059  -0.109  0.00  0.00    +0.079 A 
ATOM      5  C   UNL     1       1.430  -0.659   0.623  0.00  0.00    +0.065 A 
ATOM      6  C   UNL     1       0.421   0.028   1.297  0.00  0.00    +0.015 A 
ATOM      7  C   UNL     1       1.522  -2.125   0.648  0.00  0.00    +0.267 A 
ATOM      8  O   UNL     1       0.713  -2.797   1.261  0.00  0.00    -0.267 OA
ATOM      9  N   UNL     1       2.538  -2.699  -0.037  0.00  0.00    -0.255 N 
ATOM     10  C   UNL     1       3.437  -1.927  -0.720  0.00  0.00    +0.177 A 
ATOM     11  N   UNL     1       3.373  -0.619  -0.755  0.00  0.00    -0.223 NA
ENDROOT
BRANCH   9  12
ATOM     12  C   UNL     1       2.670  -4.095  -0.045  0.00  0.00    +0.052 A 
ATOM     13  C   UNL     1       2.045  -4.846  -1.032  0.00  0.00    +0.030 A 
ATOM     14  C   UNL     1       2.175  -6.220  -1.040  0.00  0.00    +0.048 A 
ATOM     15  C   UNL     1       2.932  -6.851  -0.063  0.00  0.00    +0.127 A 
ATOM     16  C   UNL     1       3.557  -6.102   0.923  0.00  0.00    +0.048 A 
ATOM     17  C   UNL     1       3.432  -4.727   0.929  0.00  0.00    +0.030 A 
BRANCH  15  18
ATOM     18  O   UNL     1       3.060  -8.205  -0.071  0.00  0.00    -0.434 OA
BRANCH  18  19
ATOM     19  C   UNL     1       3.853  -8.788   0.965  0.00  0.00    +0.541 C 
ATOM     20  F   UNL     1       5.157  -8.286   0.892  0.00  0.00    -0.166 F 
ATOM     21  F   UNL     1       3.300  -8.470   2.210  0.00  0.00    -0.166 F 
ENDBRANCH  18  19
ENDBRANCH  15  18
ENDBRANCH   9  12
BRANCH  10  22
ATOM     22  S   UNL     1       4.740  -2.729  -1.593  0.00  0.00    -0.081 S 
BRANCH  22  23
ATOM     23  C   UNL     1       5.675  -1.364  -2.337  0.00  0.00    +0.132 C 
BRANCH  23  24
ATOM     24  C   UNL     1       6.835  -1.919  -3.123  0.00  0.00    +0.051 A 
ATOM     25  C   UNL     1       8.052  -2.116  -2.498  0.00  0.00    +0.024 A 
ATOM     26  C   UNL     1       9.112  -2.627  -3.231  0.00  0.00    +0.003 A 
ATOM     27  C   UNL     1       8.908  -2.922  -4.570  0.00  0.00    +0.020 A 
ATOM     28  C   UNL     1       7.663  -2.699  -5.126  0.00  0.00    +0.111 A 
ATOM     29  N   UNL     1       6.675  -2.216  -4.398  0.00  0.00    -0.259 NA
ENDBRANCH  23  24
ENDBRANCH  22  23
ENDBRANCH  10  22
TORSDOF 6
