REMARK  Name = ZINC39677722
REMARK  5 active torsions:
REMARK  status: ('A' for Active; 'I' for Inactive)
REMARK    1  A    between atoms: C_5  and  C_7
REMARK    2  A    between atoms: C_10  and  C_12
REMARK    3  A    between atoms: C_12  and  N_13
REMARK    4  A    between atoms: C_14  and  C_16
REMARK    5  A    between atoms: C_27  and  C_29
REMARK                            x       y       z     vdW  Elec       q    Type
REMARK                         _______ _______ _______ _____ _____    ______ ____
ROOT
ATOM      1  C   UNL     1      -0.854  -8.071   3.699  0.00  0.00    +0.100 C 
ATOM      2  C   UNL     1       0.637  -8.417   3.913  0.00  0.00    +0.121 C 
ATOM      3  N   UNL     1       0.621  -9.646   4.741  0.00  0.00    -0.300 N 
ATOM      4  C   UNL     1      -0.505 -10.443   4.196  0.00  0.00    +0.115 C 
ATOM      5  C   UNL     1      -1.599  -9.403   3.885  0.00  0.00    -0.004 C 
ATOM      6  C   UNL     1      -2.578  -9.302   5.052  0.00  0.00    -0.010 C 
ATOM      7  C   UNL     1      -3.348 -10.619   5.181  0.00  0.00    -0.082 C 
ATOM      8  N   UNL     1      -4.070 -10.891   3.932  0.00  0.00    +0.379 N 
ATOM      9  C   UNL     1      -3.116 -11.078   2.832  0.00  0.00    -0.082 C 
ATOM     10  C   UNL     1      -2.336  -9.780   2.604  0.00  0.00    -0.010 C 
ATOM     11  C   UNL     1       1.443  -9.967   5.760  0.00  0.00    +0.219 C 
ATOM     12  O   UNL     1       2.273  -9.170   6.143  0.00  0.00    -0.275 OA
ATOM     13  H   UNL     1      -4.624 -11.727   4.041  0.00  0.00    -0.086 HD
ATOM     14  H   UNL     1      -4.677 -10.113   3.720  0.00  0.00    -0.086 HD
ENDROOT
BRANCH  11  15
ATOM     15  C   UNL     1       1.332 -11.316   6.421  0.00  0.00    +0.079 C 
ATOM     16  C   UNL     1       1.870 -11.233   7.856  0.00  0.00    +0.017 C 
ATOM     17  C   UNL     1       1.582 -12.561   8.558  0.00  0.00    +0.027 C 
ATOM     18  C   UNL     1       2.033 -13.708   7.701  0.00  0.00    -0.031 C 
ATOM     19  C   UNL     1       2.284 -13.612   6.435  0.00  0.00    -0.030 C 
ATOM     20  C   UNL     1       2.165 -12.339   5.646  0.00  0.00    +0.039 C 
ENDBRANCH  11  15
BRANCH   1  22
ATOM     21  N   UNL     1      -2.088  -6.681   2.066  0.00  0.00    -0.310 N 
ATOM     22  C   UNL     1      -1.074  -7.536   2.308  0.00  0.00    +0.218 C 
ATOM     23  O   UNL     1      -0.339  -7.875   1.405  0.00  0.00    -0.275 OA
ATOM     24  H   UNL     1      -2.676  -6.410   2.788  0.00  0.00    +0.149 HD
BRANCH  21  25
ATOM     25  C   UNL     1      -2.301  -6.162   0.713  0.00  0.00    +0.146 C 
BRANCH  25  29
ATOM     26  C   UNL     1      -5.867  -3.965   0.618  0.00  0.00    +0.038 A 
ATOM     27  C   UNL     1      -4.735  -3.239   0.878  0.00  0.00    +0.018 A 
ATOM     28  C   UNL     1      -3.525  -3.893   0.926  0.00  0.00    +0.013 A 
ATOM     29  C   UNL     1      -3.489  -5.234   0.713  0.00  0.00    +0.007 A 
ATOM     30  S   UNL     1      -5.212  -5.616   0.441  0.00  0.00    -0.090 S 
BRANCH  26  35
ATOM     31  C   UNL     1      -9.586  -3.975   0.150  0.00  0.00    +0.004 A 
ATOM     32  C   UNL     1      -9.837  -2.621   0.331  0.00  0.00    +0.020 A 
ATOM     33  C   UNL     1      -8.785  -1.765   0.597  0.00  0.00    +0.111 A 
ATOM     34  N   UNL     1      -7.550  -2.216   0.681  0.00  0.00    -0.254 NA
ATOM     35  C   UNL     1      -7.266  -3.503   0.515  0.00  0.00    +0.078 A 
ATOM     36  C   UNL     1      -8.281  -4.423   0.244  0.00  0.00    +0.029 A 
ENDBRANCH  26  35
ENDBRANCH  25  29
ENDBRANCH  21  25
ENDBRANCH   1  22
TORSDOF 5
