REMARK  Name = ZINC52778765
REMARK  10 active torsions:
REMARK  status: ('A' for Active; 'I' for Inactive)
REMARK    1  A    between atoms: C_1  and  C_2
REMARK    2  A    between atoms: C_2  and  C_3
REMARK    3  A    between atoms: C_2  and  C_4
REMARK    4  A    between atoms: C_7  and  O_10
REMARK    5  A    between atoms: O_10  and  C_11
REMARK    6  A    between atoms: C_11  and  C_12
REMARK    7  A    between atoms: C_12  and  N_14
REMARK    8  A    between atoms: C_18  and  C_21
REMARK    9  A    between atoms: C_26  and  O_27
REMARK   10  A    between atoms: O_27  and  C_28
REMARK                            x       y       z     vdW  Elec       q    Type
REMARK                         _______ _______ _______ _____ _____    ______ ____
ROOT
ATOM      1  N   UNL     1       2.404  -3.888   7.575  0.00  0.00    -0.143 NA
ATOM      2  C   UNL     1       3.187  -4.242   8.595  0.00  0.00    +0.216 A 
ATOM      3  N   UNL     1       4.483  -3.873   8.780  0.00  0.00    -0.309 N 
ATOM      4  H   UNL     1       5.002  -3.304   8.191  0.00  0.00    +0.170 HD
ATOM      5  C   UNL     1       4.930  -4.448   9.950  0.00  0.00    +0.164 A 
ATOM      6  N   UNL     1       3.957  -5.144  10.472  0.00  0.00    -0.153 NA
ATOM      7  N   UNL     1       2.838  -5.027   9.637  0.00  0.00    -0.246 N 
ATOM      8  H   UNL     1       1.970  -5.437   9.780  0.00  0.00    +0.192 HD
ENDROOT
BRANCH   5   9
ATOM      9  C   UNL     1       6.287  -4.300  10.520  0.00  0.00    +0.061 A 
ATOM     10  C   UNL     1       7.240  -3.521   9.867  0.00  0.00    +0.015 A 
ATOM     11  C   UNL     1       8.504  -3.386  10.403  0.00  0.00    +0.001 A 
ATOM     12  C   UNL     1       8.830  -4.022  11.588  0.00  0.00    +0.004 A 
ATOM     13  C   UNL     1       7.894  -4.798  12.245  0.00  0.00    +0.046 A 
ATOM     14  C   UNL     1       6.618  -4.938  11.721  0.00  0.00    +0.131 A 
BRANCH  14  15
ATOM     15  O   UNL     1       5.695  -5.695  12.369  0.00  0.00    -0.494 OA
ATOM     16  C   UNL     1       6.105  -6.315  13.589  0.00  0.00    +0.277 C 
ENDBRANCH  14  15
ENDBRANCH   5   9
BRANCH   1  17
ATOM     17  C   UNL     1       2.878  -3.107   6.614  0.00  0.00    +0.277 C 
ATOM     18  O   UNL     1       4.028  -2.713   6.662  0.00  0.00    -0.270 OA
BRANCH  17  19
ATOM     19  C   UNL     1       1.993  -2.707   5.461  0.00  0.00    +0.326 C 
BRANCH  19  20
ATOM     20  O   UNL     1       2.727  -1.871   4.564  0.00  0.00    -0.483 OA
BRANCH  20  24
ATOM     21  C   UNL     1       0.731  -0.503   1.223  0.00  0.00    -0.045 A 
ATOM     22  C   UNL     1       2.050  -0.147   1.433  0.00  0.00    +0.007 A 
ATOM     23  C   UNL     1       2.721  -0.604   2.551  0.00  0.00    +0.046 A 
ATOM     24  C   UNL     1       2.069  -1.420   3.464  0.00  0.00    +0.121 A 
ATOM     25  C   UNL     1       0.745  -1.776   3.251  0.00  0.00    +0.046 A 
ATOM     26  C   UNL     1       0.077  -1.312   2.134  0.00  0.00    +0.007 A 
BRANCH  21  28
ATOM     27  C   UNL     1      -0.019   1.526   0.010  0.00  0.00    +0.012 C 
ATOM     28  C   UNL     1       0.002  -0.004   0.002  0.00  0.00    +0.013 C 
ATOM     29  C   UNL     1       0.718  -0.497  -1.257  0.00  0.00    +0.012 C 
ENDBRANCH  21  28
ENDBRANCH  20  24
ENDBRANCH  19  20
ENDBRANCH  17  19
ENDBRANCH   1  17
TORSDOF 7
