REMARK  Name = ZINC13202166
REMARK  7 active torsions:
REMARK  status: ('A' for Active; 'I' for Inactive)
REMARK    1  A    between atoms: C_1  and  C_2
REMARK    2  A    between atoms: C_2  and  O_3
REMARK    3  A    between atoms: O_3  and  C_4
REMARK    4  A    between atoms: C_7  and  C_10
REMARK    5  A    between atoms: C_12  and  C_23
REMARK    6  A    between atoms: C_16  and  N_22
REMARK    7  A    between atoms: C_17  and  C_19
REMARK                            x       y       z     vdW  Elec       q    Type
REMARK                         _______ _______ _______ _____ _____    ______ ____
ROOT
ATOM      1  C   UNL     1      -2.163   0.356   0.781  0.00  0.00    -0.004 A 
ATOM      2  C   UNL     1      -2.290  -0.850   0.104  0.00  0.00    +0.041 A 
ATOM      3  C   UNL     1      -3.515  -1.489   0.045  0.00  0.00    +0.145 A 
ATOM      4  N   UNL     1      -4.578  -0.959   0.620  0.00  0.00    -0.235 NA
ATOM      5  C   UNL     1      -4.517   0.183   1.270  0.00  0.00    +0.112 A 
ATOM      6  C   UNL     1      -3.319   0.921   1.400  0.00  0.00    +0.037 A 
ATOM      7  C   UNL     1      -3.433   2.159   2.149  0.00  0.00    +0.054 A 
ATOM      8  C   UNL     1      -4.667   2.505   2.659  0.00  0.00    +0.097 A 
ATOM      9  S   UNL     1      -5.717   1.162   2.139  0.00  0.00    -0.062 S 
ENDROOT
BRANCH   1  13
ATOM     10  C   UNL     1       1.590   2.341   0.994  0.00  0.00    +0.121 A 
ATOM     11  C   UNL     1       1.032   2.045  -0.243  0.00  0.00    +0.046 A 
ATOM     12  C   UNL     1      -0.183   1.398  -0.316  0.00  0.00    +0.012 A 
ATOM     13  C   UNL     1      -0.855   1.046   0.856  0.00  0.00    -0.017 A 
ATOM     14  C   UNL     1      -0.289   1.340   2.096  0.00  0.00    +0.012 A 
ATOM     15  C   UNL     1       0.926   1.988   2.162  0.00  0.00    +0.046 A 
BRANCH  10  16
ATOM     16  O   UNL     1       2.787   2.979   1.062  0.00  0.00    -0.492 OA
BRANCH  16  18
ATOM     17  C   UNL     1       4.649   3.970   2.241  0.00  0.00    +0.048 C 
ATOM     18  C   UNL     1       3.303   3.253   2.366  0.00  0.00    +0.225 C 
ENDBRANCH  16  18
ENDBRANCH  10  16
ENDBRANCH   1  13
BRANCH   8  19
ATOM     19  C   UNL     1      -5.016   3.651   3.414  0.00  0.00    +0.250 C 
ATOM     20  O   UNL     1      -4.169   4.483   3.685  0.00  0.00    -0.270 OA
ATOM     21  N   UNL     1      -6.286   3.822   3.832  0.00  0.00    -0.325 N 
ATOM     22  H   UNL     1      -6.961   3.160   3.615  0.00  0.00    +0.145 HD
ATOM     23  H   UNL     1      -6.525   4.607   4.349  0.00  0.00    +0.145 HD
ENDBRANCH   8  19
BRANCH   3  24
ATOM     24  C   UNL     1      -3.638  -2.800  -0.688  0.00  0.00    +0.434 C 
ATOM     25  F   UNL     1      -4.980  -3.194  -0.718  0.00  0.00    -0.164 F 
ATOM     26  F   UNL     1      -3.167  -2.648  -1.997  0.00  0.00    -0.164 F 
ATOM     27  F   UNL     1      -2.881  -3.776  -0.030  0.00  0.00    -0.164 F 
ENDBRANCH   3  24
BRANCH   7  28
ATOM     28  N   UNL     1      -2.328   2.975   2.348  0.00  0.00    -0.356 N 
ATOM     29  H   UNL     1      -1.608   2.983   1.698  0.00  0.00    +0.142 HD
ATOM     30  H   UNL     1      -2.275   3.536   3.137  0.00  0.00    +0.142 HD
ENDBRANCH   7  28
TORSDOF 6
