REMARK  Name = ZINC14736340
REMARK  3 active torsions:
REMARK  status: ('A' for Active; 'I' for Inactive)
REMARK    1  A    between atoms: C_4  and  N_16
REMARK    2  A    between atoms: C_5  and  C_7
REMARK    3  A    between atoms: C_7  and  N_8
REMARK                            x       y       z     vdW  Elec       q    Type
REMARK                         _______ _______ _______ _____ _____    ______ ____
ROOT
ATOM      1  C   UNL     1       1.212   2.000   0.750  0.00  0.00    +0.000 A 
ATOM      2  C   UNL     1       0.984   2.400  -0.554  0.00  0.00    +0.002 A 
ATOM      3  C   UNL     1       0.847   1.454  -1.553  0.00  0.00    +0.033 A 
ATOM      4  C   UNL     1       0.940   0.108  -1.248  0.00  0.00    +0.131 A 
ATOM      5  C   UNL     1       1.169  -0.291   0.055  0.00  0.00    +0.002 A 
ATOM      6  C   UNL     1       1.304   0.655   1.054  0.00  0.00    +0.007 A 
ENDROOT
BRANCH   4   7
ATOM      7  N   UNL     1       0.793  -0.904  -2.318  0.00  0.00    +0.057 N 
ATOM      8  O   UNL     1       0.484  -0.562  -3.436  0.00  0.00    -0.126 OA
ATOM      9  O   UNL     1       0.982  -2.073  -2.074  0.00  0.00    -0.126 OA
ENDBRANCH   4   7
BRANCH   5  10
ATOM     10  C   UNL     1       1.269  -1.758   0.387  0.00  0.00    +0.162 C 
BRANCH  10  11
ATOM     11  N   UNL     1       1.411  -1.922   1.836  0.00  0.00    -0.310 N 
ATOM     12  C   UNL     1       2.643  -1.857   2.401  0.00  0.00    +0.104 A 
ATOM     13  C   UNL     1       2.799  -2.005   3.738  0.00  0.00    +0.034 A 
ATOM     14  C   UNL     1       1.679  -2.228   4.553  0.00  0.00    +0.022 A 
ATOM     15  C   UNL     1       0.442  -2.293   3.982  0.00  0.00    +0.071 A 
ATOM     16  C   UNL     1       0.316  -2.130   2.592  0.00  0.00    +0.252 A 
ATOM     17  O   UNL     1      -0.786  -2.180   2.070  0.00  0.00    -0.268 OA
ATOM     18 BR   UNL     1       4.525  -1.912   4.506  0.00  0.00    -0.049 Br
ENDBRANCH  10  11
ENDBRANCH   5  10
TORSDOF 3
