REMARK  Name = ZINC43254386
REMARK  6 active torsions:
REMARK  status: ('A' for Active; 'I' for Inactive)
REMARK    1  A    between atoms: C_1  and  C_2
REMARK    2  A    between atoms: C_2  and  C_3
REMARK    3  A    between atoms: C_3  and  C_5
REMARK    4  A    between atoms: C_3  and  N_22
REMARK    5  A    between atoms: C_5  and  C_7
REMARK    6  A    between atoms: C_5  and  N_13
REMARK                            x       y       z     vdW  Elec       q    Type
REMARK                         _______ _______ _______ _____ _____    ______ ____
ROOT
ATOM      1  C   UNL     1       0.655  -2.037   1.299  0.00  0.00    +0.111 C 
ENDROOT
BRANCH   1   2
ATOM      2  N   UNL     1       1.364  -2.523   2.486  0.00  0.00    -0.324 N 
ATOM      3  C   UNL     1       1.076  -2.215   3.779  0.00  0.00    +0.200 A 
ATOM      4  N   UNL     1       1.905  -2.820   4.578  0.00  0.00    -0.236 NA
ATOM      5  C   UNL     1       2.782  -3.559   3.852  0.00  0.00    +0.089 A 
ATOM      6  C   UNL     1       2.444  -3.382   2.499  0.00  0.00    +0.069 A 
ATOM      7  C   UNL     1       3.177  -4.030   1.514  0.00  0.00    +0.028 A 
ATOM      8  C   UNL     1       4.230  -4.845   1.871  0.00  0.00    +0.002 A 
ATOM      9  C   UNL     1       4.562  -5.021   3.207  0.00  0.00    +0.002 A 
ATOM     10  C   UNL     1       3.856  -4.386   4.189  0.00  0.00    +0.030 A 
ENDBRANCH   1   2
BRANCH   1  11
ATOM     11  C   UNL     1      -0.790  -2.456   1.371  0.00  0.00    +0.012 A 
ATOM     12  C   UNL     1      -1.497  -3.235   0.516  0.00  0.00    +0.015 A 
ATOM     13  C   UNL     1      -2.829  -3.490   0.785  0.00  0.00    +0.028 A 
ATOM     14  C   UNL     1      -3.389  -2.952   1.897  0.00  0.00    +0.078 A 
ATOM     15  S   UNL     1      -2.015  -2.061   2.608  0.00  0.00    -0.080 S 
ATOM     16 CL   UNL     1      -5.017  -3.098   2.482  0.00  0.00    -0.076 Cl
ENDBRANCH   1  11
BRANCH   1  17
ATOM     17  C   UNL     1       0.742  -0.511   1.242  0.00  0.00    -0.047 C 
BRANCH  17  18
ATOM     18  N   UNL     1       2.151  -0.103   1.171  0.00  0.00    +0.382 N 
ATOM     19  H   UNL     1       2.209   0.904   1.134  0.00  0.00    -0.090 HD
ATOM     20  H   UNL     1       2.639  -0.437   1.989  0.00  0.00    -0.090 HD
ATOM     21  H   UNL     1       2.574  -0.495   0.344  0.00  0.00    -0.090 HD
ENDBRANCH  17  18
BRANCH  17  23
ATOM     22  C   UNL     1      -0.019   1.526   0.010  0.00  0.00    +0.002 C 
ATOM     23  C   UNL     1       0.002  -0.004   0.002  0.00  0.00    -0.017 C 
ENDBRANCH  17  23
ENDBRANCH   1  17
TORSDOF 5
