REMARK  Name = ZINC24685850
REMARK  6 active torsions:
REMARK  status: ('A' for Active; 'I' for Inactive)
REMARK    1  A    between atoms: C_1  and  C_2
REMARK    2  A    between atoms: C_2  and  C_4
REMARK    3  A    between atoms: C_2  and  N_10
REMARK    4  A    between atoms: N_10  and  C_11
REMARK    5  A    between atoms: N_10  and  C_12
REMARK    6  A    between atoms: C_12  and  C_13
REMARK                            x       y       z     vdW  Elec       q    Type
REMARK                         _______ _______ _______ _____ _____    ______ ____
ROOT
ATOM      1  C   UNL     1       2.441  -1.482  -2.551  0.00  0.00    +0.125 A 
ATOM      2  N   UNL     1       3.748  -1.694  -2.840  0.00  0.00    -0.307 N 
ATOM      3  H   UNL     1       4.435  -1.270  -2.302  0.00  0.00    +0.170 HD
ATOM      4  C   UNL     1       4.101  -2.493  -3.870  0.00  0.00    +0.295 A 
ATOM      5  O   UNL     1       5.276  -2.688  -4.134  0.00  0.00    -0.264 OA
ATOM      6  C   UNL     1       3.079  -3.097  -4.636  0.00  0.00    +0.218 A 
ATOM      7  C   UNL     1       1.757  -2.836  -4.287  0.00  0.00    +0.124 A 
ATOM      8  N   UNL     1       1.485  -2.035  -3.244  0.00  0.00    -0.229 NA
ATOM      9  C   UNL     1       0.935  -3.589  -5.246  0.00  0.00    +0.046 A 
ATOM     10  C   UNL     1      -0.436  -3.747  -5.434  0.00  0.00    +0.014 A 
ATOM     11  C   UNL     1      -0.898  -4.546  -6.457  0.00  0.00    +0.001 A 
ATOM     12  C   UNL     1      -0.002  -5.191  -7.297  0.00  0.00    +0.004 A 
ATOM     13  C   UNL     1       1.356  -5.044  -7.121  0.00  0.00    +0.047 A 
ATOM     14  C   UNL     1       1.843  -4.242  -6.095  0.00  0.00    +0.138 A 
ATOM     15  O   UNL     1       3.095  -3.925  -5.701  0.00  0.00    -0.448 OA
ENDROOT
BRANCH   1  16
ATOM     16  C   UNL     1       2.082  -0.585  -1.394  0.00  0.00    +0.159 C 
BRANCH  16  17
ATOM     17  N   UNL     1       0.620  -0.509  -1.269  0.00  0.00    -0.292 NA
ATOM     18  C   UNL     1       0.027   0.166  -2.430  0.00  0.00    +0.106 C 
BRANCH  17  20
ATOM     19  C   UNL     1      -1.291   0.257   0.057  0.00  0.00    +0.029 C 
ATOM     20  C   UNL     1       0.234   0.158  -0.018  0.00  0.00    +0.084 C 
BRANCH  20  21
ATOM     21  C   UNL     1       0.744  -0.639   1.155  0.00  0.00    -0.031 A 
ATOM     22  C   UNL     1       1.348   0.005   2.218  0.00  0.00    +0.005 A 
ATOM     23  C   UNL     1       1.816  -0.726   3.294  0.00  0.00    +0.000 A 
ATOM     24  C   UNL     1       1.679  -2.101   3.307  0.00  0.00    +0.000 A 
ATOM     25  C   UNL     1       1.074  -2.746   2.244  0.00  0.00    +0.000 A 
ATOM     26  C   UNL     1       0.602  -2.014   1.170  0.00  0.00    +0.005 A 
ENDBRANCH  20  21
ENDBRANCH  17  20
ENDBRANCH  16  17
ENDBRANCH   1  16
TORSDOF 4
