REMARK  Name = ZINC36316054
REMARK  17 active torsions:
REMARK  status: ('A' for Active; 'I' for Inactive)
REMARK    1  A    between atoms: C_1  and  C_2
REMARK    2  A    between atoms: C_2  and  C_3
REMARK    3  A    between atoms: C_3  and  N_4
REMARK    4  A    between atoms: N_4  and  C_5
REMARK    5  A    between atoms: N_4  and  C_26
REMARK    6  A    between atoms: C_5  and  C_6
REMARK    7  A    between atoms: C_7  and  C_20
REMARK    8  A    between atoms: N_9  and  C_19
REMARK    9  A    between atoms: C_10  and  O_11
REMARK   10  A    between atoms: O_11  and  C_12
REMARK   11  A    between atoms: C_15  and  C_18
REMARK   12  A    between atoms: C_26  and  C_27
REMARK   13  A    between atoms: C_27  and  C_29
REMARK   14  A    between atoms: C_27  and  O_38
REMARK   15  A    between atoms: C_29  and  O_30
REMARK   16  A    between atoms: O_30  and  C_31
REMARK   17  A    between atoms: C_36  and  C_37
REMARK                            x       y       z     vdW  Elec       q    Type
REMARK                         _______ _______ _______ _____ _____    ______ ____
ROOT
ATOM      1  C   UNL     1      -2.331  -2.040  -2.273  0.00  0.00    +0.025 A 
ATOM      2  C   UNL     1      -2.939  -0.816  -2.609  0.00  0.00    +0.098 A 
ATOM      3  N   UNL     1      -3.013  -0.742  -3.921  0.00  0.00    -0.168 NA
ATOM      4  N   UNL     1      -2.457  -1.910  -4.459  0.00  0.00    -0.235 N 
ATOM      5  C   UNL     1      -2.040  -2.690  -3.429  0.00  0.00    +0.221 A 
ATOM      6  C   UNL     1      -2.341  -2.231  -5.883  0.00  0.00    +0.176 C 
ENDROOT
BRANCH   2   7
ATOM      7  C   UNL     1      -3.415   0.212  -1.650  0.00  0.00    +0.002 A 
ATOM      8  C   UNL     1      -3.164   1.561  -1.890  0.00  0.00    +0.010 A 
ATOM      9  C   UNL     1      -3.609   2.514  -0.996  0.00  0.00    +0.001 A 
ATOM     10  C   UNL     1      -4.304   2.130   0.137  0.00  0.00    +0.000 A 
ATOM     11  C   UNL     1      -4.556   0.792   0.380  0.00  0.00    +0.001 A 
ATOM     12  C   UNL     1      -4.120  -0.168  -0.510  0.00  0.00    +0.010 A 
ENDBRANCH   2   7
BRANCH   1  13
ATOM     13  C   UNL     1      -2.047  -2.538  -0.879  0.00  0.00    -0.035 C 
BRANCH  13  14
ATOM     14  N   UNL     1      -0.654  -2.235  -0.524  0.00  0.00    +0.384 N 
ATOM     15  H   UNL     1      -0.036  -2.657  -1.201  0.00  0.00    -0.081 HD
BRANCH  14  16
ATOM     16  C   UNL     1      -0.456  -0.779  -0.521  0.00  0.00    -0.079 C 
BRANCH  16  18
ATOM     17  C   UNL     1       1.254   1.040  -0.425  0.00  0.00    +0.002 C 
ATOM     18  C   UNL     1       1.026  -0.467  -0.298  0.00  0.00    -0.022 C 
ENDBRANCH  16  18
ENDBRANCH  14  16
BRANCH  14  19
ATOM     19  C   UNL     1      -0.361  -2.772   0.811  0.00  0.00    -0.043 C 
BRANCH  19  20
ATOM     20  C   UNL     1      -0.398  -4.301   0.764  0.00  0.00    +0.135 C 
BRANCH  20  21
ATOM     21  O   UNL     1      -1.740  -4.739   0.545  0.00  0.00    -0.390 OA
ATOM     22  H   UNL     1      -2.362  -4.459   1.230  0.00  0.00    +0.210 HD
ENDBRANCH  20  21
BRANCH  20  23
ATOM     23  C   UNL     1       0.112  -4.864   2.093  0.00  0.00    +0.258 C 
BRANCH  23  24
ATOM     24  O   UNL     1       0.188  -6.288   2.009  0.00  0.00    -0.489 OA
BRANCH  24  25
ATOM     25  C   UNL     1       0.625  -6.949   3.113  0.00  0.00    +0.124 A 
ATOM     26  C   UNL     1       0.969  -6.241   4.256  0.00  0.00    +0.046 A 
ATOM     27  C   UNL     1       1.412  -6.915   5.377  0.00  0.00    +0.004 A 
ATOM     28  C   UNL     1       1.514  -8.294   5.361  0.00  0.00    +0.000 A 
ATOM     29  C   UNL     1       1.173  -9.002   4.223  0.00  0.00    +0.007 A 
ATOM     30  C   UNL     1       0.723  -8.333   3.101  0.00  0.00    -0.009 A 
ATOM     31  C   UNL     1       0.345  -9.105   1.863  0.00  0.00    +0.047 C 
ENDBRANCH  24  25
ENDBRANCH  23  24
ENDBRANCH  20  23
ENDBRANCH  19  20
ENDBRANCH  14  19
ENDBRANCH  13  14
ENDBRANCH   1  13
BRANCH   5  32
ATOM     32  O   UNL     1      -1.441  -3.904  -3.535  0.00  0.00    -0.438 OA
BRANCH  32  33
ATOM     33  C   UNL     1      -2.236  -5.001  -3.636  0.00  0.00    +0.130 A 
ATOM     34  C   UNL     1      -3.612  -4.855  -3.740  0.00  0.00    +0.046 A 
ATOM     35  C   UNL     1      -4.418  -5.972  -3.843  0.00  0.00    +0.007 A 
ATOM     36  C   UNL     1      -3.855  -7.234  -3.843  0.00  0.00    -0.050 A 
ATOM     37  C   UNL     1      -2.484  -7.383  -3.739  0.00  0.00    +0.007 A 
ATOM     38  C   UNL     1      -1.673  -6.269  -3.642  0.00  0.00    +0.046 A 
ATOM     39  C   UNL     1      -4.737  -8.451  -3.955  0.00  0.00    +0.044 C 
ENDBRANCH  32  33
ENDBRANCH   5  32
TORSDOF 13
