REMARK  Name = ZINC40825075
REMARK  9 active torsions:
REMARK  status: ('A' for Active; 'I' for Inactive)
REMARK    1  A    between atoms: C_1  and  C_2
REMARK    2  A    between atoms: C_5  and  C_8
REMARK    3  A    between atoms: C_8  and  N_9
REMARK    4  A    between atoms: C_10  and  C_12
REMARK    5  A    between atoms: C_13  and  C_32
REMARK    6  A    between atoms: N_21  and  N_22
REMARK    7  A    between atoms: N_22  and  C_23
REMARK    8  A    between atoms: C_23  and  N_25
REMARK    9  A    between atoms: N_25  and  C_26
REMARK                            x       y       z     vdW  Elec       q    Type
REMARK                         _______ _______ _______ _____ _____    ______ ____
ROOT
ATOM      1  C   UNL     1       3.296  -6.674  -1.109  0.00  0.00    +0.193 A 
ATOM      2  C   UNL     1       3.696  -7.962  -0.885  0.00  0.00    +0.009 A 
ATOM      3  C   UNL     1       5.024  -7.889  -0.445  0.00  0.00    +0.042 A 
ATOM      4  C   UNL     1       5.377  -6.561  -0.418  0.00  0.00    +0.115 A 
ATOM      5  O   UNL     1       4.329  -5.848  -0.828  0.00  0.00    -0.454 OA
ATOM      6  C   UNL     1       6.741  -6.083   0.011  0.00  0.00    +0.075 C 
ATOM      7  C   UNL     1       7.417  -7.167   0.855  0.00  0.00    +0.014 C 
ATOM      8  C   UNL     1       7.415  -8.508   0.114  0.00  0.00    +0.058 C 
ATOM      9  C   UNL     1       5.971  -8.957  -0.056  0.00  0.00    +0.070 C 
ATOM     10  N   UNL     1       5.599 -10.186   0.126  0.00  0.00    -0.185 NA
ATOM     11  C   UNL     1       2.873  -9.210  -1.073  0.00  0.00    +0.048 C 
ENDROOT
BRANCH   1  13
ATOM     12  N   UNL     1       1.702  -4.951  -1.770  0.00  0.00    -0.305 N 
ATOM     13  C   UNL     1       1.971  -6.259  -1.582  0.00  0.00    +0.280 C 
ATOM     14  O   UNL     1       1.115  -7.094  -1.805  0.00  0.00    -0.267 OA
ATOM     15  H   UNL     1       2.385  -4.285  -1.593  0.00  0.00    +0.149 HD
BRANCH  12  16
ATOM     16  C   UNL     1       0.379  -4.536  -2.243  0.00  0.00    +0.140 C 
BRANCH  16  21
ATOM     17  C   UNL     1       0.222   1.220  -2.728  0.00  0.00    +0.044 C 
ATOM     18  C   UNL     1       0.263  -0.281  -2.602  0.00  0.00    -0.050 A 
ATOM     19  C   UNL     1       0.660  -1.055  -3.676  0.00  0.00    +0.003 A 
ATOM     20  C   UNL     1       0.698  -2.432  -3.560  0.00  0.00    +0.005 A 
ATOM     21  C   UNL     1       0.339  -3.035  -2.369  0.00  0.00    -0.030 A 
ATOM     22  C   UNL     1      -0.058  -2.261  -1.294  0.00  0.00    +0.005 A 
ATOM     23  C   UNL     1      -0.091  -0.884  -1.409  0.00  0.00    +0.003 A 
ENDBRANCH  16  21
ENDBRANCH  12  16
ENDBRANCH   1  13
BRANCH  10  24
ATOM     24  N   UNL     1       6.540 -11.156   0.494  0.00  0.00    -0.218 N 
ATOM     25  H   UNL     1       7.470 -10.909   0.613  0.00  0.00    +0.176 HD
BRANCH  24  26
ATOM     26  C   UNL     1       6.153 -12.433   0.683  0.00  0.00    +0.154 C 
ATOM     27  S   UNL     1       7.303 -13.619   1.133  0.00  0.00    -0.017 S 
BRANCH  26  28
ATOM     28  N   UNL     1       4.860 -12.777   0.519  0.00  0.00    -0.296 N 
ATOM     29  H   UNL     1       4.198 -12.095   0.325  0.00  0.00    +0.154 HD
BRANCH  28  30
ATOM     30  C   UNL     1       4.473 -14.116   0.628  0.00  0.00    +0.033 A 
ATOM     31  C   UNL     1       4.941 -14.893   1.680  0.00  0.00    +0.023 A 
ATOM     32  C   UNL     1       4.557 -16.215   1.785  0.00  0.00    +0.002 A 
ATOM     33  C   UNL     1       3.707 -16.766   0.844  0.00  0.00    +0.000 A 
ATOM     34  C   UNL     1       3.238 -15.996  -0.204  0.00  0.00    +0.002 A 
ATOM     35  C   UNL     1       3.614 -14.672  -0.312  0.00  0.00    +0.023 A 
ENDBRANCH  28  30
ENDBRANCH  26  28
ENDBRANCH  24  26
ENDBRANCH  10  24
TORSDOF 7
