REMARK  Name = ZINC63384149
REMARK  7 active torsions:
REMARK  status: ('A' for Active; 'I' for Inactive)
REMARK    1  A    between atoms: C_1  and  C_2
REMARK    2  A    between atoms: C_2  and  N_3
REMARK    3  A    between atoms: C_16  and  C_18
REMARK    4  A    between atoms: N_24  and  C_27
REMARK    5  A    between atoms: C_32  and  O_33
REMARK    6  A    between atoms: O_33  and  C_34
REMARK    7  A    between atoms: C_34  and  C_35
REMARK                            x       y       z     vdW  Elec       q    Type
REMARK                         _______ _______ _______ _____ _____    ______ ____
ROOT
ATOM      1  C   UNL     1      -0.710  -2.532   1.121  0.00  0.00    +0.071 A 
ATOM      2  H   UNL     1      -1.352  -2.898   4.275  0.00  0.00    +0.173 HD
ATOM      3  C   UNL     1      -1.370  -2.382   2.305  0.00  0.00    +0.259 A 
ATOM      4  N   UNL     1      -0.886  -3.002   3.430  0.00  0.00    -0.274 N 
ATOM      5  C   UNL     1       0.230  -3.751   3.369  0.00  0.00    +0.337 A 
ATOM      6  O   UNL     1       0.643  -4.292   4.377  0.00  0.00    -0.246 OA
ATOM      7  N   UNL     1       0.894  -3.911   2.211  0.00  0.00    -0.225 N 
ATOM      8  C   UNL     1       0.450  -3.325   1.081  0.00  0.00    +0.267 A 
ATOM      9  O   UNL     1       1.054  -3.477   0.033  0.00  0.00    -0.267 OA
ATOM     10  O   UNL     1      -2.489  -1.631   2.370  0.00  0.00    -0.267 OA
ENDROOT
BRANCH   1  23
ATOM     11  N   UNL     1      -1.175  -0.401   0.038  0.00  0.00    +0.386 N 
ATOM     12  C   UNL     1      -1.837   0.033   1.270  0.00  0.00    -0.073 C 
ATOM     13  C   UNL     1      -3.348  -0.256   1.197  0.00  0.00    +0.015 C 
ATOM     14  C   UNL     1      -3.477  -1.704   0.792  0.00  0.00    -0.041 C 
ATOM     15  C   UNL     1      -4.187  -2.710   1.280  0.00  0.00    -0.001 A 
ATOM     16  C   UNL     1      -5.230  -2.765   2.317  0.00  0.00    +0.010 A 
ATOM     17  C   UNL     1      -5.738  -3.995   2.593  0.00  0.00    +0.001 A 
ATOM     18  C   UNL     1      -5.319  -5.163   1.947  0.00  0.00    +0.002 A 
ATOM     19  C   UNL     1      -4.374  -5.204   0.974  0.00  0.00    +0.026 A 
ATOM     20  C   UNL     1      -3.774  -3.970   0.590  0.00  0.00    +0.043 A 
ATOM     21  N   UNL     1      -2.879  -3.718  -0.321  0.00  0.00    -0.379 N 
ATOM     22  C   UNL     1      -2.675  -2.272  -0.374  0.00  0.00    +0.097 C 
ATOM     23  C   UNL     1      -1.222  -1.863  -0.128  0.00  0.00    -0.000 C 
ATOM     24  H   UNL     1      -2.426  -4.377  -0.871  0.00  0.00    +0.160 HD
ATOM     25  H   UNL     1      -1.633   0.033  -0.749  0.00  0.00    -0.081 HD
BRANCH  11  27
ATOM     26  C   UNL     1       0.291   1.559   0.119  0.00  0.00    -0.017 C 
ATOM     27  C   UNL     1       0.229   0.031   0.072  0.00  0.00    -0.081 C 
ENDBRANCH  11  27
ENDBRANCH   1  23
BRANCH   7  28
ATOM     28  C   UNL     1       2.055  -4.699   2.176  0.00  0.00    +0.096 A 
ATOM     29  C   UNL     1       1.968  -6.053   1.892  0.00  0.00    +0.030 A 
ATOM     30  C   UNL     1       3.112  -6.827   1.859  0.00  0.00    +0.002 A 
ATOM     31  C   UNL     1       4.346  -6.254   2.109  0.00  0.00    +0.004 A 
ATOM     32  C   UNL     1       4.440  -4.905   2.393  0.00  0.00    +0.048 A 
ATOM     33  C   UNL     1       3.298  -4.121   2.422  0.00  0.00    +0.144 A 
BRANCH  33  34
ATOM     34  O   UNL     1       3.390  -2.792   2.695  0.00  0.00    -0.490 OA
BRANCH  34  35
ATOM     35  C   UNL     1       4.704  -2.245   2.823  0.00  0.00    +0.226 C 
ATOM     36  C   UNL     1       4.609  -0.732   3.027  0.00  0.00    +0.048 C 
ENDBRANCH  34  35
ENDBRANCH  33  34
ENDBRANCH   7  28
TORSDOF 5
