REMARK  Name = ZINC33704319
REMARK  11 active torsions:
REMARK  status: ('A' for Active; 'I' for Inactive)
REMARK    1  A    between atoms: C_1  and  C_2
REMARK    2  A    between atoms: C_5  and  N_9
REMARK    3  A    between atoms: C_6  and  C_8
REMARK    4  A    between atoms: C_10  and  C_12
REMARK    5  A    between atoms: C_18  and  C_34
REMARK    6  A    between atoms: C_23  and  C_33
REMARK    7  A    between atoms: N_24  and  C_28
REMARK    8  A    between atoms: C_28  and  C_29
REMARK    9  A    between atoms: C_29  and  C_30
REMARK   10  A    between atoms: C_30  and  O_31
REMARK   11  A    between atoms: O_31  and  C_32
REMARK                            x       y       z     vdW  Elec       q    Type
REMARK                         _______ _______ _______ _____ _____    ______ ____
ROOT
ATOM      1  C   UNL     1      -1.332   2.079   0.005  0.00  0.00    +0.162 C 
ATOM      2  C   UNL     1      -2.119   1.751   1.284  0.00  0.00    +0.123 C 
ATOM      3  C   UNL     1      -1.352   2.300   2.466  0.00  0.00    +0.016 A 
ATOM      4  C   UNL     1      -1.558   1.745   3.716  0.00  0.00    +0.012 A 
ATOM      5  C   UNL     1      -0.885   2.241   4.816  0.00  0.00    -0.050 A 
ATOM      6  C   UNL     1      -0.002   3.294   4.667  0.00  0.00    +0.007 A 
ATOM      7  C   UNL     1       0.211   3.848   3.421  0.00  0.00    +0.046 A 
ATOM      8  C   UNL     1      -0.463   3.349   2.310  0.00  0.00    +0.128 A 
ATOM      9  O   UNL     1      -0.223   3.913   1.098  0.00  0.00    -0.467 OA
ATOM     10  C   UNL     1      -1.085   3.595   0.010  0.00  0.00    +0.190 C 
ATOM     11  N   UNL     1      -2.363   4.291   0.137  0.00  0.00    -0.275 N 
ATOM     12  C   UNL     1      -3.441   3.707   0.681  0.00  0.00    +0.136 C 
ATOM     13  S   UNL     1      -4.924   4.562   0.696  0.00  0.00    -0.019 S 
ATOM     14  N   UNL     1      -3.399   2.475   1.216  0.00  0.00    -0.318 N 
ATOM     15  C   UNL     1      -0.418   4.005  -1.304  0.00  0.00    +0.079 C 
ATOM     16  C   UNL     1      -1.113   1.634   6.176  0.00  0.00    +0.044 C 
ATOM     17  H   UNL     1      -4.316   2.007   1.602  0.00  0.00    +0.148 HD
ENDROOT
BRANCH   1  19
ATOM     18  N   UNL     1       0.002  -0.004   0.002  0.00  0.00    -0.285 N 
ATOM     19  C   UNL     1      -0.017   1.344   0.006  0.00  0.00    +0.228 C 
ATOM     20  O   UNL     1       1.025   1.964   0.006  0.00  0.00    -0.275 OA
ATOM     21  H   UNL     1      -0.938  -0.567   0.094  0.00  0.00    +0.155 HD
BRANCH  18  26
ATOM     22  C   UNL     1       4.931  -2.771  -0.487  0.00  0.00    +0.044 C 
ATOM     23  C   UNL     1       3.621  -2.036  -0.357  0.00  0.00    -0.050 A 
ATOM     24  C   UNL     1       3.502  -0.747  -0.844  0.00  0.00    +0.005 A 
ATOM     25  C   UNL     1       2.302  -0.073  -0.732  0.00  0.00    +0.024 A 
ATOM     26  C   UNL     1       1.218  -0.687  -0.119  0.00  0.00    +0.036 A 
ATOM     27  C   UNL     1       1.340  -1.981   0.369  0.00  0.00    -0.029 A 
ATOM     28  C   UNL     1       2.542  -2.652   0.248  0.00  0.00    +0.008 A 
ATOM     29  C   UNL     1       0.164  -2.652   1.030  0.00  0.00    +0.045 C 
ENDBRANCH  18  26
ENDBRANCH   1  19
BRANCH  11  30
ATOM     30  C   UNL     1      -2.470   5.670  -0.345  0.00  0.00    +0.113 C 
BRANCH  30  31
ATOM     31  C   UNL     1      -2.901   5.665  -1.813  0.00  0.00    +0.047 C 
BRANCH  31  32
ATOM     32  C   UNL     1      -3.014   7.105  -2.317  0.00  0.00    +0.161 C 
BRANCH  32  33
ATOM     33  O   UNL     1      -3.416   7.101  -3.688  0.00  0.00    -0.383 OA
ATOM     34  C   UNL     1      -3.552   8.404  -4.259  0.00  0.00    +0.193 C 
ENDBRANCH  32  33
ENDBRANCH  31  32
ENDBRANCH  30  31
ENDBRANCH  11  30
TORSDOF 6
