REMARK  Name = ZINC33272488
REMARK  9 active torsions:
REMARK  status: ('A' for Active; 'I' for Inactive)
REMARK    1  A    between atoms: C_2  and  C_3
REMARK    2  A    between atoms: C_3  and  N_4
REMARK    3  A    between atoms: N_11  and  C_16
REMARK    4  A    between atoms: C_16  and  C_17
REMARK    5  A    between atoms: C_17  and  C_18
REMARK    6  A    between atoms: N_20  and  C_21
REMARK    7  A    between atoms: C_21  and  C_22
REMARK    8  A    between atoms: N_25  and  C_28
REMARK    9  A    between atoms: C_28  and  C_29
REMARK                            x       y       z     vdW  Elec       q    Type
REMARK                         _______ _______ _______ _____ _____    ______ ____
ROOT
ATOM      1  C   UNL     1       3.604  -4.143  -1.498  0.00  0.00    +0.215 C 
ATOM      2  O   UNL     1       3.616  -4.755  -0.451  0.00  0.00    -0.276 OA
ATOM      3  N   UNL     1       3.594  -4.811  -2.669  0.00  0.00    -0.315 N 
ATOM      4  H   UNL     1       3.583  -4.255  -3.619  0.00  0.00    +0.149 HD
ENDROOT
BRANCH   1   5
ATOM      5  C   UNL     1       3.600  -2.636  -1.490  0.00  0.00    +0.117 C 
BRANCH   5   6
ATOM      6  C   UNL     1       3.613  -2.134  -0.045  0.00  0.00    +0.135 C 
BRANCH   6  14
ATOM      7  N   UNL     1       3.571   2.143  -0.022  0.00  0.00    -0.299 N 
ATOM      8  C   UNL     1       2.382   1.419  -0.014  0.00  0.00    +0.069 A 
ATOM      9  C   UNL     1       1.166   2.092   0.002  0.00  0.00    +0.028 A 
ATOM     10  C   UNL     1      -0.017   1.381   0.010  0.00  0.00    +0.002 A 
ATOM     11  C   UNL     1       0.002  -0.004   0.002  0.00  0.00    +0.002 A 
ATOM     12  C   UNL     1       1.203  -0.683  -0.014  0.00  0.00    +0.028 A 
ATOM     13  C   UNL     1       2.401   0.023  -0.021  0.00  0.00    +0.069 A 
ATOM     14  N   UNL     1       3.609  -0.669  -0.037  0.00  0.00    -0.302 N 
ATOM     15  C   UNL     1       4.776   0.008  -0.044  0.00  0.00    +0.317 A 
ATOM     16  O   UNL     1       5.832  -0.592  -0.058  0.00  0.00    -0.262 OA
ATOM     17  C   UNL     1       4.756   1.499  -0.036  0.00  0.00    +0.317 A 
ATOM     18  O   UNL     1       5.795   2.127  -0.044  0.00  0.00    -0.262 OA
BRANCH   7  19
ATOM     19  C   UNL     1       3.535   3.608  -0.014  0.00  0.00    +0.152 C 
BRANCH  19  21
ATOM     20  C   UNL     1       4.449   4.956   1.805  0.00  0.00    +0.005 C 
ATOM     21  C   UNL     1       3.536   4.103   1.409  0.00  0.00    -0.013 C 
ENDBRANCH  19  21
ENDBRANCH   7  19
ENDBRANCH   6  14
ENDBRANCH   5   6
ENDBRANCH   1   5
BRANCH   3  22
ATOM     22  C   UNL     1       3.598  -6.276  -2.677  0.00  0.00    +0.107 C 
BRANCH  22  23
ATOM     23  C   UNL     1       3.584  -6.778  -4.122  0.00  0.00    +0.003 C 
ATOM     24  C   UNL     1       2.265  -6.380  -4.790  0.00  0.00    -0.014 C 
ATOM     25  C   UNL     1       2.232  -6.937  -6.215  0.00  0.00    -0.078 C 
ATOM     26  N   UNL     1       2.359  -8.400  -6.173  0.00  0.00    +0.382 N 
ATOM     27  C   UNL     1       3.639  -8.805  -5.579  0.00  0.00    -0.078 C 
ATOM     28  C   UNL     1       3.714  -8.303  -4.135  0.00  0.00    -0.014 C 
ATOM     29  H   UNL     1       1.554  -8.788  -5.532  0.00  0.00    -0.081 HD
BRANCH  26  30
ATOM     30  C   UNL     1       2.193  -8.981  -7.512  0.00  0.00    -0.040 C 
BRANCH  30  31
ATOM     31  C   UNL     1       0.999  -8.356  -8.186  0.00  0.00    -0.029 A 
ATOM     32  C   UNL     1      -0.208  -9.028  -8.218  0.00  0.00    +0.004 A 
ATOM     33  C   UNL     1      -1.305  -8.452  -8.832  0.00  0.00    +0.000 A 
ATOM     34  C   UNL     1      -1.193  -7.208  -9.424  0.00  0.00    +0.003 A 
ATOM     35  C   UNL     1       0.015  -6.536  -9.399  0.00  0.00    +0.038 A 
ATOM     36  C   UNL     1       1.113  -7.110  -8.779  0.00  0.00    +0.125 A 
ATOM     37  F   UNL     1       2.293  -6.454  -8.754  0.00  0.00    -0.205 F 
ENDBRANCH  30  31
ENDBRANCH  26  30
ENDBRANCH  22  23
ENDBRANCH   3  22
TORSDOF 9
