REMARK  Name = ZINC14031792
REMARK  9 active torsions:
REMARK  status: ('A' for Active; 'I' for Inactive)
REMARK    1  A    between atoms: C_1  and  C_2
REMARK    2  A    between atoms: C_2  and  C_4
REMARK    3  A    between atoms: C_2  and  O_22
REMARK    4  A    between atoms: N_6  and  N_7
REMARK    5  A    between atoms: N_7  and  C_8
REMARK    6  A    between atoms: C_8  and  N_10
REMARK    7  A    between atoms: C_11  and  C_13
REMARK    8  A    between atoms: C_14  and  C_15
REMARK    9  A    between atoms: O_22  and  C_23
REMARK                            x       y       z     vdW  Elec       q    Type
REMARK                         _______ _______ _______ _____ _____    ______ ____
ROOT
ATOM      1  C   UNL     1       4.771   3.936   0.126  0.00  0.00    +0.270 C 
ATOM      2  O   UNL     1       5.849   3.422  -0.084  0.00  0.00    -0.270 OA
ATOM      3  N   UNL     1       3.679   3.166   0.300  0.00  0.00    -0.232 N 
ATOM      4  H   UNL     1       2.817   3.577   0.469  0.00  0.00    +0.173 HD
ENDROOT
BRANCH   1   6
ATOM      5  C   UNL     1       3.683   5.920  -0.888  0.00  0.00    +0.062 C 
ATOM      6  C   UNL     1       4.652   5.437   0.192  0.00  0.00    +0.257 C 
BRANCH   6   7
ATOM      7  O   UNL     1       5.937   6.026  -0.022  0.00  0.00    -0.480 OA
BRANCH   7   8
ATOM      8  C   UNL     1       6.141   7.266   0.494  0.00  0.00    +0.122 A 
ATOM      9  C   UNL     1       5.077   7.947   1.096  0.00  0.00    +0.046 A 
ATOM     10  C   UNL     1       5.250   9.189   1.622  0.00  0.00    +0.012 A 
ATOM     11  C   UNL     1       6.514   9.802   1.562  0.00  0.00    -0.018 A 
ATOM     12  C   UNL     1       6.728  11.084   2.095  0.00  0.00    +0.008 A 
ATOM     13  C   UNL     1       7.965  11.647   2.020  0.00  0.00    +0.001 A 
ATOM     14  C   UNL     1       9.026  10.972   1.420  0.00  0.00    +0.001 A 
ATOM     15  C   UNL     1       8.856   9.729   0.892  0.00  0.00    +0.008 A 
ATOM     16  C   UNL     1       7.593   9.114   0.952  0.00  0.00    -0.014 A 
ATOM     17  C   UNL     1       7.382   7.830   0.423  0.00  0.00    +0.054 A 
ENDBRANCH   7   8
ENDBRANCH   6   7
ENDBRANCH   1   6
BRANCH   3  18
ATOM     18  N   UNL     1       3.789   1.770   0.239  0.00  0.00    -0.245 N 
ATOM     19  H   UNL     1       4.651   1.359   0.071  0.00  0.00    +0.172 HD
BRANCH  18  20
ATOM     20  C   UNL     1       2.697   1.000   0.413  0.00  0.00    +0.153 C 
ATOM     21  S   UNL     1       2.831  -0.705   0.338  0.00  0.00    -0.017 S 
BRANCH  20  22
ATOM     22  N   UNL     1       1.499   1.572   0.647  0.00  0.00    -0.263 N 
ATOM     23  C   UNL     1       0.407   0.801   0.821  0.00  0.00    +0.242 C 
ATOM     24  O   UNL     1       0.502  -0.410   0.768  0.00  0.00    -0.270 OA
ATOM     25  H   UNL     1       1.423   2.538   0.690  0.00  0.00    +0.157 HD
BRANCH  23  26
ATOM     26  C   UNL     1      -0.894   1.422   1.069  0.00  0.00    +0.068 C 
ATOM     27  C   UNL     1      -1.988   0.651   1.238  0.00  0.00    +0.013 C 
BRANCH  27  28
ATOM     28  C   UNL     1      -3.297   1.275   1.487  0.00  0.00    -0.025 A 
ATOM     29  C   UNL     1      -3.409   2.668   1.554  0.00  0.00    +0.011 A 
ATOM     30  C   UNL     1      -4.638   3.247   1.784  0.00  0.00    +0.039 A 
ATOM     31  C   UNL     1      -5.761   2.451   1.956  0.00  0.00    +0.123 A 
ATOM     32  C   UNL     1      -5.656   1.069   1.896  0.00  0.00    +0.039 A 
ATOM     33  C   UNL     1      -4.433   0.478   1.662  0.00  0.00    +0.011 A 
ATOM     34  F   UNL     1      -6.963   3.024   2.185  0.00  0.00    -0.205 F 
ENDBRANCH  27  28
ENDBRANCH  23  26
ENDBRANCH  20  22
ENDBRANCH  18  20
ENDBRANCH   3  18
TORSDOF 8
