REMARK  Name = ZINC64645507
REMARK  7 active torsions:
REMARK  status: ('A' for Active; 'I' for Inactive)
REMARK    1  A    between atoms: C_1  and  C_2
REMARK    2  A    between atoms: C_2  and  C_3
REMARK    3  A    between atoms: C_2  and  N_15
REMARK    4  A    between atoms: C_5  and  C_8
REMARK    5  A    between atoms: N_18  and  C_19
REMARK    6  A    between atoms: C_19  and  C_20
REMARK    7  A    between atoms: C_20  and  C_21
REMARK                            x       y       z     vdW  Elec       q    Type
REMARK                         _______ _______ _______ _____ _____    ______ ____
ROOT
ATOM      1  C   UNL     1      -0.019   1.526   0.010  0.00  0.00    +0.038 C 
ATOM      2  C   UNL     1       0.002  -0.004   0.002  0.00  0.00    +0.160 C 
ENDROOT
BRANCH   2   3
ATOM      3  N   UNL     1       0.688  -0.476  -1.203  0.00  0.00    -0.288 N 
ATOM      4  C   UNL     1       2.031  -0.587  -1.215  0.00  0.00    +0.300 C 
ATOM      5  O   UNL     1       2.674  -0.294  -0.225  0.00  0.00    -0.253 OA
ATOM      6  N   UNL     1       2.662  -1.022  -2.324  0.00  0.00    -0.299 N 
ATOM      7  H   UNL     1       0.175  -0.710  -1.993  0.00  0.00    +0.151 HD
ATOM      8  H   UNL     1       2.149  -1.255  -3.114  0.00  0.00    +0.150 HD
BRANCH   6   9
ATOM      9  C   UNL     1       4.122  -1.142  -2.336  0.00  0.00    +0.110 C 
BRANCH   9  10
ATOM     10  C   UNL     1       4.580  -1.652  -3.704  0.00  0.00    +0.049 C 
BRANCH  10  11
ATOM     11  C   UNL     1       6.082  -1.776  -3.717  0.00  0.00    -0.072 C 
ATOM     12  C   UNL     1       6.598  -2.932  -3.449  0.00  0.00    -0.028 C 
ATOM     13  C   UNL     1       8.073  -3.207  -3.414  0.00  0.00    +0.027 C 
ATOM     14  C   UNL     1       8.834  -2.092  -4.134  0.00  0.00    +0.004 C 
ATOM     15  C   UNL     1       8.338  -0.742  -3.599  0.00  0.00    +0.005 C 
ATOM     16  C   UNL     1       6.886  -0.552  -4.045  0.00  0.00    +0.030 C 
ENDBRANCH  10  11
ENDBRANCH   9  10
ENDBRANCH   6   9
ENDBRANCH   2   3
BRANCH   2  17
ATOM     17  C   UNL     1      -1.412  -0.526   0.013  0.00  0.00    +0.248 A 
ATOM     18  N   UNL     1      -2.023  -1.046   1.038  0.00  0.00    -0.190 NA
ATOM     19  C   UNL     1      -3.273  -1.406   0.695  0.00  0.00    +0.202 A 
ATOM     20  N   UNL     1      -3.462  -1.110  -0.567  0.00  0.00    -0.056 NA
ATOM     21  O   UNL     1      -2.253  -0.527  -1.029  0.00  0.00    -0.336 OA
BRANCH  19  22
ATOM     22  C   UNL     1      -4.271  -2.033   1.597  0.00  0.00    +0.023 A 
ATOM     23  C   UNL     1      -3.946  -2.292   2.927  0.00  0.00    +0.014 A 
ATOM     24  C   UNL     1      -4.878  -2.874   3.761  0.00  0.00    +0.039 A 
ATOM     25  C   UNL     1      -6.135  -3.202   3.279  0.00  0.00    +0.123 A 
ATOM     26  C   UNL     1      -6.462  -2.946   1.957  0.00  0.00    +0.039 A 
ATOM     27  C   UNL     1      -5.539  -2.359   1.117  0.00  0.00    +0.014 A 
ATOM     28  F   UNL     1      -7.044  -3.772   4.100  0.00  0.00    -0.205 F 
ENDBRANCH  19  22
ENDBRANCH   2  17
TORSDOF 6
