REMARK  Name = ZINC17665340
REMARK  6 active torsions:
REMARK  status: ('A' for Active; 'I' for Inactive)
REMARK    1  A    between atoms: C_4  and  C_7
REMARK    2  A    between atoms: C_18  and  C_20
REMARK    3  A    between atoms: C_20  and  S_21
REMARK    4  A    between atoms: S_21  and  C_22
REMARK    5  A    between atoms: C_25  and  C_28
REMARK    6  A    between atoms: N_26  and  N_27
REMARK                            x       y       z     vdW  Elec       q    Type
REMARK                         _______ _______ _______ _____ _____    ______ ____
ROOT
ATOM      1  C   UNL     1      -0.975   6.270   0.414  0.00  0.00    +0.122 C 
ATOM      2  C   UNL     1      -1.086   5.871   1.893  0.00  0.00    +0.102 C 
ATOM      3  S   UNL     1      -1.884   4.239   1.965  0.00  0.00    -0.121 S 
ATOM      4  C   UNL     1      -1.028   3.315   0.729  0.00  0.00    +0.029 A 
ATOM      5  C   UNL     1      -1.154   1.931   0.713  0.00  0.00    +0.016 A 
ATOM      6  C   UNL     1      -0.498   1.185  -0.246  0.00  0.00    +0.001 A 
ATOM      7  C   UNL     1       0.279   1.817  -1.200  0.00  0.00    +0.002 A 
ATOM      8  C   UNL     1       0.408   3.191  -1.191  0.00  0.00    +0.024 A 
ATOM      9  C   UNL     1      -0.244   3.955  -0.226  0.00  0.00    +0.050 A 
ATOM     10  N   UNL     1      -0.071   5.341  -0.257  0.00  0.00    -0.261 N 
ATOM     11  C   UNL     1       0.979   5.843  -0.936  0.00  0.00    +0.231 C 
ATOM     12  O   UNL     1       0.983   7.008  -1.272  0.00  0.00    -0.274 OA
ENDROOT
BRANCH   1  16
ATOM     13  C   UNL     1       0.572  10.241   0.115  0.00  0.00    +0.000 A 
ATOM     14  C   UNL     1      -0.560   9.885  -0.594  0.00  0.00    +0.000 A 
ATOM     15  C   UNL     1      -1.061   8.600  -0.497  0.00  0.00    +0.005 A 
ATOM     16  C   UNL     1      -0.429   7.671   0.308  0.00  0.00    -0.026 A 
ATOM     17  C   UNL     1       0.700   8.028   1.021  0.00  0.00    +0.005 A 
ATOM     18  C   UNL     1       1.204   9.312   0.920  0.00  0.00    +0.000 A 
ENDBRANCH   1  16
BRANCH  11  19
ATOM     19  C   UNL     1       2.148   4.955  -1.280  0.00  0.00    +0.173 C 
BRANCH  19  20
ATOM     20  S   UNL     1       3.663   5.944  -1.322  0.00  0.00    -0.075 S 
BRANCH  20  21
ATOM     21  C   UNL     1       4.833   4.692  -1.734  0.00  0.00    +0.209 A 
ATOM     22  N   UNL     1       4.575   3.420  -1.936  0.00  0.00    -0.121 NA
ATOM     23  N   UNL     1       5.658   2.789  -2.219  0.00  0.00    -0.127 NA
ATOM     24  C   UNL     1       6.675   3.620  -2.216  0.00  0.00    +0.184 A 
ATOM     25  N   UNL     1       6.177   4.865  -1.910  0.00  0.00    -0.224 N 
BRANCH  24  26
ATOM     26  C   UNL     1       8.087   3.282  -2.493  0.00  0.00    +0.056 A 
ATOM     27  C   UNL     1       9.107   3.848  -1.727  0.00  0.00    +0.014 A 
ATOM     28  C   UNL     1      10.422   3.526  -1.988  0.00  0.00    +0.001 A 
ATOM     29  C   UNL     1      10.734   2.649  -3.013  0.00  0.00    +0.003 A 
ATOM     30  C   UNL     1       9.730   2.087  -3.780  0.00  0.00    +0.039 A 
ATOM     31  C   UNL     1       8.407   2.397  -3.527  0.00  0.00    +0.134 A 
ATOM     32  F   UNL     1       7.427   1.848  -4.277  0.00  0.00    -0.205 F 
ENDBRANCH  24  26
BRANCH  25  33
ATOM     33  N   UNL     1       6.880   6.032  -1.802  0.00  0.00    -0.295 N 
ATOM     34  H   UNL     1       7.277   6.130  -0.879  0.00  0.00    +0.163 HD
ATOM     35  H   UNL     1       7.595   6.090  -2.511  0.00  0.00    +0.163 HD
ENDBRANCH  25  33
ENDBRANCH  20  21
ENDBRANCH  19  20
ENDBRANCH  11  19
TORSDOF 6
