REMARK  Name = ZINC08393416
REMARK  9 active torsions:
REMARK  status: ('A' for Active; 'I' for Inactive)
REMARK    1  A    between atoms: C_1  and  C_2
REMARK    2  A    between atoms: C_3  and  C_12
REMARK    3  A    between atoms: C_4  and  C_11
REMARK    4  A    between atoms: N_5  and  C_7
REMARK    5  A    between atoms: C_7  and  C_8
REMARK    6  A    between atoms: C_8  and  C_9
REMARK    7  A    between atoms: C_8  and  C_10
REMARK    8  A    between atoms: C_12  and  C_13
REMARK    9  A    between atoms: N_15  and  C_16
REMARK                            x       y       z     vdW  Elec       q    Type
REMARK                         _______ _______ _______ _____ _____    ______ ____
ROOT
ATOM      1  C   UNL     1       6.580   4.127   4.692  0.00  0.00    +0.222 C 
ATOM      2  O   UNL     1       7.299   4.144   3.715  0.00  0.00    -0.275 OA
ATOM      3  N   UNL     1       5.366   3.546   4.624  0.00  0.00    -0.285 N 
ATOM      4  H   UNL     1       4.760   3.599   5.380  0.00  0.00    +0.155 HD
ENDROOT
BRANCH   3   5
ATOM      5  C   UNL     1       4.978   2.867   3.462  0.00  0.00    +0.037 A 
ATOM      6  C   UNL     1       3.647   2.872   3.067  0.00  0.00    +0.027 A 
ATOM      7  C   UNL     1       3.261   2.202   1.920  0.00  0.00    +0.051 A 
ATOM      8  C   UNL     1       4.202   1.525   1.164  0.00  0.00    +0.167 A 
ATOM      9  C   UNL     1       5.540   1.519   1.559  0.00  0.00    +0.169 A 
ATOM     10  C   UNL     1       5.925   2.189   2.705  0.00  0.00    +0.072 A 
ATOM     11  O   UNL     1       6.255   0.784   0.648  0.00  0.00    -0.447 OA
ATOM     12  C   UNL     1       5.261  -0.024   0.011  0.00  0.00    +0.254 C 
ATOM     13  O   UNL     1       4.090   0.795   0.007  0.00  0.00    -0.448 OA
ATOM     14  C   UNL     1       5.037  -1.349   0.751  0.00  0.00    +0.093 C 
ATOM     15  C   UNL     1       6.126  -2.286   0.183  0.00  0.00    +0.008 C 
ATOM     16  C   UNL     1       6.535  -1.709  -1.185  0.00  0.00    +0.008 C 
ATOM     17  C   UNL     1       5.680  -0.440  -1.405  0.00  0.00    +0.093 C 
ENDBRANCH   3   5
BRANCH   1  18
ATOM     18  C   UNL     1       7.045   4.754   5.981  0.00  0.00    +0.134 C 
BRANCH  18  21
ATOM     19  C   UNL     1       9.779   3.232   6.478  0.00  0.00    +0.068 C 
ATOM     20  C   UNL     1       9.632   4.657   6.011  0.00  0.00    +0.064 A 
ATOM     21  C   UNL     1       8.425   5.328   5.792  0.00  0.00    +0.005 A 
ATOM     22  C   UNL     1       8.715   6.586   5.385  0.00  0.00    +0.040 A 
ATOM     23  N   UNL     1      10.059   6.705   5.343  0.00  0.00    -0.268 N 
ATOM     24  N   UNL     1      10.613   5.479   5.736  0.00  0.00    -0.176 NA
ATOM     25  C   UNL     1       7.717   7.661   5.042  0.00  0.00    +0.065 C 
BRANCH  23  26
ATOM     26  C   UNL     1      10.806   7.903   4.955  0.00  0.00    +0.146 C 
BRANCH  26  27
ATOM     27  C   UNL     1      11.071   8.762   6.193  0.00  0.00    +0.004 C 
ATOM     28  C   UNL     1      11.957   9.949   5.810  0.00  0.00    +0.009 C 
ATOM     29  C   UNL     1       9.742   9.277   6.750  0.00  0.00    +0.009 C 
ENDBRANCH  26  27
ENDBRANCH  23  26
ENDBRANCH  18  21
ENDBRANCH   1  18
TORSDOF 5
