REMARK  Name = ZINC00193591
REMARK  3 active torsions:
REMARK  status: ('A' for Active; 'I' for Inactive)
REMARK    1  A    between atoms: C_9  and  S_11
REMARK    2  A    between atoms: S_11  and  C_12
REMARK    3  A    between atoms: C_12  and  C_13
REMARK                            x       y       z     vdW  Elec       q    Type
REMARK                         _______ _______ _______ _____ _____    ______ ____
ROOT
ATOM      1  C   UNL     1       5.242   4.449  -0.023  0.00  0.00    +0.135 C 
ENDROOT
BRANCH   1   2
ATOM      2  C   UNL     1       6.716   4.763  -0.035  0.00  0.00    +0.089 A 
ATOM      3  C   UNL     1       7.497   4.927   1.057  0.00  0.00    +0.137 A 
ATOM      4  N   UNL     1       8.762   5.195   0.612  0.00  0.00    -0.289 N 
ATOM      5  C   UNL     1       9.938   5.440   1.263  0.00  0.00    +0.114 A 
ATOM      6  C   UNL     1      11.069   5.687   0.569  0.00  0.00    +0.058 A 
ATOM      7  C   UNL     1      11.051   5.694  -0.837  0.00  0.00    +0.025 A 
ATOM      8  C   UNL     1       9.887   5.451  -1.497  0.00  0.00    +0.048 A 
ATOM      9  C   UNL     1       8.714   5.195  -0.758  0.00  0.00    +0.139 A 
ATOM     10  N   UNL     1       7.468   4.932  -1.125  0.00  0.00    -0.230 NA
ATOM     11 CL   UNL     1      12.553   5.997   1.415  0.00  0.00    -0.082 Cl
ATOM     12 CL   UNL     1       6.989   4.815   2.713  0.00  0.00    -0.062 Cl
ENDBRANCH   1   2
BRANCH   1  13
ATOM     13  S   UNL     1       5.008   2.654  -0.030  0.00  0.00    -0.082 S 
BRANCH  13  22
ATOM     14  C   UNL     1      -1.216   1.751   0.017  0.00  0.00    +0.002 A 
ATOM     15  C   UNL     1      -1.243   3.138   0.030  0.00  0.00    +0.002 A 
ATOM     16  C   UNL     1      -0.071   3.860   0.023  0.00  0.00    +0.030 A 
ATOM     17  C   UNL     1       1.156   3.191   0.008  0.00  0.00    +0.090 A 
ATOM     18  C   UNL     1       1.178   1.787   0.000  0.00  0.00    +0.067 A 
ATOM     19  C   UNL     1      -0.013   1.076   0.008  0.00  0.00    +0.028 A 
ATOM     20  N   UNL     1       2.514   1.422  -0.014  0.00  0.00    -0.333 N 
ATOM     21  H   UNL     1       2.874   0.489  -0.022  0.00  0.00    +0.168 HD
ATOM     22  C   UNL     1       3.248   2.575  -0.015  0.00  0.00    +0.168 A 
ATOM     23  N   UNL     1       2.448   3.612  -0.001  0.00  0.00    -0.222 NA
ENDBRANCH  13  22
ENDBRANCH   1  13
TORSDOF 3
