REMARK  Name = ZINC03013202
REMARK  10 active torsions:
REMARK  status: ('A' for Active; 'I' for Inactive)
REMARK    1  A    between atoms: C_1  and  O_2
REMARK    2  A    between atoms: O_2  and  C_3
REMARK    3  A    between atoms: C_5  and  C_13
REMARK    4  A    between atoms: C_7  and  O_11
REMARK    5  A    between atoms: C_8  and  O_9
REMARK    6  A    between atoms: O_9  and  C_10
REMARK    7  A    between atoms: O_11  and  C_12
REMARK    8  A    between atoms: C_14  and  C_15
REMARK    9  A    between atoms: C_14  and  N_33
REMARK   10  A    between atoms: C_34  and  C_36
REMARK                            x       y       z     vdW  Elec       q    Type
REMARK                         _______ _______ _______ _____ _____    ______ ____
ROOT
ATOM      1  C   UNL     1       5.881  -0.724  -1.912  0.00  0.00    +0.036 C 
ATOM      2  C   UNL     1       4.738  -0.002  -1.841  0.00  0.00    +0.097 C 
ENDROOT
BRANCH   2   3
ATOM      3  C   UNL     1       3.437  -0.679  -1.922  0.00  0.00    +0.261 C 
ATOM      4  O   UNL     1       2.673  -0.644  -0.976  0.00  0.00    -0.269 OA
ATOM      5  N   UNL     1       3.089  -1.337  -3.045  0.00  0.00    -0.296 N 
ATOM      6  C   UNL     1       1.836  -2.099  -3.110  0.00  0.00    +0.113 C 
ATOM      7  C   UNL     1       1.049  -1.717  -4.356  0.00  0.00    +0.027 C 
ATOM      8  C   UNL     1       1.931  -1.773  -5.604  0.00  0.00    +0.018 C 
ATOM      9  C   UNL     1       3.101  -0.805  -5.411  0.00  0.00    +0.054 C 
ATOM     10  C   UNL     1       3.956  -1.307  -4.234  0.00  0.00    +0.117 C 
ATOM     11  C   UNL     1       2.575   0.564  -5.044  0.00  0.00    +0.027 A 
ATOM     12  C   UNL     1       3.367   1.632  -5.329  0.00  0.00    +0.022 A 
ATOM     13  C   UNL     1       2.996   2.920  -4.929  0.00  0.00    +0.007 A 
ATOM     14  C   UNL     1       1.831   3.085  -4.238  0.00  0.00    +0.070 A 
ATOM     15  C   UNL     1       1.032   1.965  -3.972  0.00  0.00    +0.251 A 
ATOM     16  O   UNL     1       0.008   2.096  -3.321  0.00  0.00    -0.268 OA
ATOM     17  N   UNL     1       1.383   0.738  -4.429  0.00  0.00    -0.312 N 
ATOM     18  C   UNL     1       0.417  -0.343  -4.232  0.00  0.00    +0.130 C 
ENDBRANCH   2   3
BRANCH   1  21
ATOM     19  C   UNL     1       6.728  -4.314  -2.602  0.00  0.00    +0.166 A 
ATOM     20  C   UNL     1       6.784  -2.933  -2.608  0.00  0.00    +0.057 A 
ATOM     21  C   UNL     1       5.825  -2.192  -1.907  0.00  0.00    -0.016 A 
ATOM     22  C   UNL     1       4.817  -2.854  -1.198  0.00  0.00    +0.057 A 
ATOM     23  C   UNL     1       4.764  -4.235  -1.200  0.00  0.00    +0.166 A 
ATOM     24  C   UNL     1       5.720  -4.968  -1.899  0.00  0.00    +0.204 A 
BRANCH  19  26
ATOM     25  C   UNL     1       8.665  -4.299  -3.981  0.00  0.00    +0.277 C 
ATOM     26  O   UNL     1       7.659  -5.035  -3.282  0.00  0.00    -0.491 OA
ENDBRANCH  19  26
BRANCH  24  27
ATOM     27  O   UNL     1       5.668  -6.327  -1.894  0.00  0.00    -0.488 OA
ATOM     28  C   UNL     1       6.382  -7.000  -0.855  0.00  0.00    +0.277 C 
ENDBRANCH  24  27
BRANCH  23  29
ATOM     29  O   UNL     1       3.781  -4.878  -0.515  0.00  0.00    -0.491 OA
ATOM     30  C   UNL     1       2.834  -4.064   0.179  0.00  0.00    +0.277 C 
ENDBRANCH  23  29
ENDBRANCH   1  21
BRANCH   2  31
ATOM     31  N   UNL     1       4.796   1.388  -1.690  0.00  0.00    -0.281 N 
ATOM     32  C   UNL     1       3.659   2.099  -1.555  0.00  0.00    +0.220 C 
ATOM     33  O   UNL     1       2.591   1.528  -1.487  0.00  0.00    -0.275 OA
ATOM     34  H   UNL     1       5.769   1.901  -1.682  0.00  0.00    +0.155 HD
BRANCH  32  35
ATOM     35  C   UNL     1       3.715   3.604  -1.489  0.00  0.00    +0.075 C 
ATOM     36  C   UNL     1       4.684   4.030  -0.385  0.00  0.00    +0.013 C 
ATOM     37  C   UNL     1       4.741   5.558  -0.318  0.00  0.00    +0.001 C 
ATOM     38  C   UNL     1       3.346   6.107  -0.011  0.00  0.00    +0.000 C 
ATOM     39  C   UNL     1       2.376   5.680  -1.115  0.00  0.00    +0.001 C 
ATOM     40  C   UNL     1       2.320   4.153  -1.182  0.00  0.00    +0.013 C 
ENDBRANCH  32  35
ENDBRANCH   2  31
TORSDOF 7
