REMARK  Name = ZINC33333667
REMARK  11 active torsions:
REMARK  status: ('A' for Active; 'I' for Inactive)
REMARK    1  A    between atoms: C_1  and  C_2
REMARK    2  A    between atoms: C_6  and  C_29
REMARK    3  A    between atoms: C_7  and  O_8
REMARK    4  A    between atoms: O_8  and  C_9
REMARK    5  A    between atoms: C_9  and  C_10
REMARK    6  A    between atoms: C_12  and  C_18
REMARK    7  A    between atoms: C_15  and  O_16
REMARK    8  A    between atoms: O_16  and  C_17
REMARK    9  A    between atoms: N_19  and  N_20
REMARK   10  A    between atoms: C_21  and  C_23
REMARK   11  A    between atoms: C_27  and  C_28
REMARK                            x       y       z     vdW  Elec       q    Type
REMARK                         _______ _______ _______ _____ _____    ______ ____
ROOT
ATOM      1  C   UNL     1       0.024   3.848   0.638  0.00  0.00    +0.032 A 
ATOM      2  C   UNL     1       1.125   3.162   0.173  0.00  0.00    +0.020 A 
ATOM      3  C   UNL     1       1.299   1.816   0.509  0.00  0.00    -0.005 A 
ATOM      4  C   UNL     1       0.355   1.174   1.315  0.00  0.00    +0.013 A 
ATOM      5  C   UNL     1      -0.745   1.867   1.770  0.00  0.00    +0.046 A 
ATOM      6  C   UNL     1      -0.911   3.205   1.438  0.00  0.00    +0.127 A 
ENDROOT
BRANCH   6   7
ATOM      7  O   UNL     1      -1.995   3.886   1.894  0.00  0.00    -0.495 OA
ATOM      8  C   UNL     1      -2.918   3.165   2.712  0.00  0.00    +0.277 C 
ENDBRANCH   6   7
BRANCH   3   9
ATOM      9  C   UNL     1       2.475   1.078   0.015  0.00  0.00    +0.138 C 
ATOM     10  N   UNL     1       2.500  -0.219   0.076  0.00  0.00    -0.187 NA
BRANCH  10  11
ATOM     11  N   UNL     1       1.301  -0.943   0.084  0.00  0.00    -0.203 N 
ATOM     12  C   UNL     1       1.320  -2.276   0.279  0.00  0.00    +0.267 C 
ATOM     13  O   UNL     1       2.378  -2.851   0.449  0.00  0.00    -0.268 OA
ATOM     14  H   UNL     1       0.343  -0.423  -0.070  0.00  0.00    +0.178 HD
BRANCH  12  15
ATOM     15  C   UNL     1       0.058  -3.038   0.287  0.00  0.00    +0.079 A 
ATOM     16  C   UNL     1      -1.301  -2.508   0.106  0.00  0.00    +0.054 A 
ATOM     17  C   UNL     1      -2.123  -3.565   0.187  0.00  0.00    +0.196 A 
ATOM     18  O   UNL     1      -1.396  -4.671   0.407  0.00  0.00    -0.467 OA
ATOM     19  C   UNL     1      -0.093  -4.381   0.471  0.00  0.00    +0.114 A 
ATOM     20  C   UNL     1       1.020  -5.370   0.706  0.00  0.00    +0.087 C 
ENDBRANCH  12  15
ENDBRANCH  10  11
ENDBRANCH   3   9
BRANCH   1  21
ATOM     21  C   UNL     1      -0.165   5.299   0.277  0.00  0.00    +0.268 C 
BRANCH  21  22
ATOM     22  O   UNL     1       0.920   5.730  -0.547  0.00  0.00    -0.487 OA
BRANCH  22  29
ATOM     23  C   UNL     1      -0.371   6.293  -2.996  0.00  0.00    +0.047 C 
ATOM     24  C   UNL     1       0.283   7.361  -2.158  0.00  0.00    -0.009 A 
ATOM     25  C   UNL     1       0.262   8.677  -2.577  0.00  0.00    +0.007 A 
ATOM     26  C   UNL     1       0.866   9.657  -1.811  0.00  0.00    +0.001 A 
ATOM     27  C   UNL     1       1.489   9.323  -0.623  0.00  0.00    +0.007 A 
ATOM     28  C   UNL     1       1.508   8.009  -0.197  0.00  0.00    -0.009 A 
ATOM     29  C   UNL     1       0.902   7.024  -0.963  0.00  0.00    +0.127 A 
ATOM     30  C   UNL     1       2.187   7.646   1.099  0.00  0.00    +0.047 C 
ENDBRANCH  22  29
ENDBRANCH  21  22
ENDBRANCH   1  21
TORSDOF 7
