REMARK  Name = ZINC39355758
REMARK  7 active torsions:
REMARK  status: ('A' for Active; 'I' for Inactive)
REMARK    1  A    between atoms: C_13  and  S_15
REMARK    2  A    between atoms: S_15  and  C_16
REMARK    3  A    between atoms: C_16  and  C_17
REMARK    4  A    between atoms: N_19  and  C_20
REMARK    5  A    between atoms: C_20  and  C_21
REMARK    6  A    between atoms: C_24  and  S_27
REMARK    7  A    between atoms: S_27  and  N_30
REMARK                            x       y       z     vdW  Elec       q    Type
REMARK                         _______ _______ _______ _____ _____    ______ ____
ROOT
ATOM      1  C   UNL     1       5.665  -5.520  -3.836  0.00  0.00    +0.224 C 
ATOM      2  O   UNL     1       5.029  -6.447  -4.291  0.00  0.00    -0.275 OA
ATOM      3  N   UNL     1       6.938  -5.319  -4.228  0.00  0.00    -0.311 N 
ATOM      4  H   UNL     1       7.446  -4.577  -3.864  0.00  0.00    +0.149 HD
ENDROOT
BRANCH   1   5
ATOM      5  C   UNL     1       5.030  -4.593  -2.831  0.00  0.00    +0.173 C 
BRANCH   5   6
ATOM      6  S   UNL     1       3.325  -5.124  -2.510  0.00  0.00    -0.075 S 
BRANCH   6  18
ATOM      7  C   UNL     1      -0.016   1.348   0.009  0.00  0.00    +0.001 A 
ATOM      8  C   UNL     1       1.156   2.116   0.002  0.00  0.00    +0.002 A 
ATOM      9  C   UNL     1       2.382   1.544  -0.006  0.00  0.00    +0.026 A 
ATOM     10  C   UNL     1       2.491   0.080  -0.009  0.00  0.00    +0.046 A 
ATOM     11  N   UNL     1       3.530  -0.719  -0.048  0.00  0.00    -0.358 N 
ATOM     12  C   UNL     1       3.072  -2.091   0.097  0.00  0.00    +0.252 C 
ATOM     13  C   UNL     1       1.560  -2.038  -0.034  0.00  0.00    +0.117 C 
ATOM     14  C   UNL     1       1.230  -0.705  -0.013  0.00  0.00    +0.025 A 
ATOM     15  C   UNL     1       0.002  -0.004   0.002  0.00  0.00    +0.012 A 
ATOM     16  N   UNL     1       0.837  -3.136  -0.265  0.00  0.00    -0.147 NA
ATOM     17  N   UNL     1       1.456  -4.093  -0.888  0.00  0.00    -0.122 NA
ATOM     18  C   UNL     1       2.730  -3.957  -1.333  0.00  0.00    +0.208 C 
ATOM     19  N   UNL     1       3.548  -3.009  -0.936  0.00  0.00    -0.227 NA
ATOM     20  H   UNL     1       4.453  -0.440  -0.157  0.00  0.00    +0.162 HD
ENDBRANCH   6  18
ENDBRANCH   5   6
ENDBRANCH   1   5
BRANCH   3  21
ATOM     21  C   UNL     1       7.555  -6.220  -5.205  0.00  0.00    +0.139 C 
BRANCH  21  22
ATOM     22  C   UNL     1       8.971  -5.779  -5.471  0.00  0.00    -0.030 A 
ATOM     23  C   UNL     1       9.234  -4.871  -6.480  0.00  0.00    +0.007 A 
ATOM     24  C   UNL     1      10.534  -4.466  -6.724  0.00  0.00    +0.029 A 
ATOM     25  C   UNL     1      11.569  -4.969  -5.959  0.00  0.00    +0.105 A 
ATOM     26  C   UNL     1      11.306  -5.877  -4.950  0.00  0.00    +0.029 A 
ATOM     27  C   UNL     1      10.006  -6.278  -4.703  0.00  0.00    +0.007 A 
BRANCH  25  28
ATOM     28  S   UNL     1      13.225  -4.455  -6.271  0.00  0.00    +0.056 S 
ATOM     29  O   UNL     1      14.070  -5.484  -5.776  0.00  0.00    -0.153 OA
ATOM     30  O   UNL     1      13.267  -4.018  -7.622  0.00  0.00    -0.153 OA
BRANCH  28  31
ATOM     31  N   UNL     1      13.508  -3.119  -5.332  0.00  0.00    -0.204 NA
ATOM     32  H   UNL     1      14.403  -2.935  -5.009  0.00  0.00    +0.144 HD
ATOM     33  H   UNL     1      12.778  -2.522  -5.107  0.00  0.00    +0.144 HD
ENDBRANCH  28  31
ENDBRANCH  25  28
ENDBRANCH  21  22
ENDBRANCH   3  21
TORSDOF 7
