REMARK  Name = ZINC09453418
REMARK  5 active torsions:
REMARK  status: ('A' for Active; 'I' for Inactive)
REMARK    1  A    between atoms: C_1  and  C_2
REMARK    2  A    between atoms: N_30  and  C_33
REMARK    3  A    between atoms: C_33  and  C_34
REMARK    4  A    between atoms: C_34  and  C_35
REMARK    5  A    between atoms: C_34  and  C_36
REMARK                            x       y       z     vdW  Elec       q    Type
REMARK                         _______ _______ _______ _____ _____    ______ ____
ROOT
ATOM      1  C   UNL     1      -0.018   1.503   0.010  0.00  0.00    +0.047 C 
ATOM      2  C   UNL     1       0.002  -0.004   0.002  0.00  0.00    -0.009 A 
ATOM      3  C   UNL     1       0.006  -0.685  -1.178  0.00  0.00    +0.008 A 
ATOM      4  C   UNL     1       0.023  -2.087  -1.167  0.00  0.00    +0.019 A 
ATOM      5  C   UNL     1       0.030  -2.758   0.006  0.00  0.00    +0.096 A 
ATOM      6  N   UNL     1       0.018  -2.088   1.194  0.00  0.00    -0.269 N 
ATOM      7  C   UNL     1       0.023  -0.720   1.213  0.00  0.00    +0.122 A 
ATOM      8  N   UNL     1       0.056  -0.055   2.368  0.00  0.00    -0.329 N 
ATOM      9  C   UNL     1       0.063  -0.705   3.518  0.00  0.00    +0.109 A 
ATOM     10  C   UNL     1       0.016  -2.099   3.562  0.00  0.00    +0.057 A 
ATOM     11  C   UNL     1       0.003  -2.788   2.348  0.00  0.00    +0.263 A 
ATOM     12  O   UNL     1      -0.007  -4.009   2.330  0.00  0.00    -0.267 OA
ATOM     13  C   UNL     1      -0.080  -2.842   4.854  0.00  0.00    +0.072 C 
ATOM     14  C   UNL     1       0.397  -2.078   6.083  0.00  0.00    +0.150 C 
ATOM     15  C   UNL     1       1.011  -0.728   5.715  0.00  0.00    +0.129 C 
ATOM     16  N   UNL     1       0.151  -0.057   4.745  0.00  0.00    -0.307 N 
ATOM     17  C   UNL     1      -0.586   1.157   5.013  0.00  0.00    +0.112 C 
ATOM     18  C   UNL     1       0.167   2.117   5.912  0.00  0.00    +0.054 C 
ATOM     19  C   UNL     1       0.876   1.413   7.033  0.00  0.00    -0.041 A 
ATOM     20  C   UNL     1       1.256   0.105   6.934  0.00  0.00    -0.022 A 
ATOM     21  C   UNL     1       1.911  -0.482   8.009  0.00  0.00    +0.006 A 
ATOM     22  C   UNL     1       2.155   0.237   9.161  0.00  0.00    +0.000 A 
ATOM     23  C   UNL     1       1.744   1.554   9.248  0.00  0.00    +0.000 A 
ATOM     24  C   UNL     1       1.135   2.128   8.195  0.00  0.00    +0.004 A 
ATOM     25  C   UNL     1      -0.781  -1.840   6.994  0.00  0.00    +0.238 C 
ATOM     26  O   UNL     1      -1.714  -1.183   6.585  0.00  0.00    -0.274 OA
ATOM     27  N   UNL     1      -0.831  -2.329   8.239  0.00  0.00    -0.239 N 
ATOM     28  C   UNL     1       0.165  -3.062   8.758  0.00  0.00    +0.315 C 
ATOM     29  N   UNL     1       1.271  -3.337   8.050  0.00  0.00    -0.225 N 
ATOM     30  C   UNL     1       1.438  -2.904   6.795  0.00  0.00    +0.241 C 
ATOM     31  O   UNL     1       2.463  -3.184   6.211  0.00  0.00    -0.274 OA
ATOM     32  O   UNL     1       0.064  -3.485   9.893  0.00  0.00    -0.252 OA
ATOM     33  H   UNL     1      -1.614  -2.148   8.783  0.00  0.00    +0.159 HD
ATOM     34  H   UNL     1       0.074   0.915   2.364  0.00  0.00    +0.168 HD
ENDROOT
BRANCH  29  35
ATOM     35  C   UNL     1       2.329  -4.138   8.670  0.00  0.00    +0.121 C 
BRANCH  35  36
ATOM     36  C   UNL     1       2.079  -5.621   8.389  0.00  0.00    +0.001 C 
ATOM     37  C   UNL     1       3.248  -6.447   8.929  0.00  0.00    +0.009 C 
ATOM     38  C   UNL     1       0.784  -6.059   9.076  0.00  0.00    +0.009 C 
ENDBRANCH  35  36
ENDBRANCH  29  35
TORSDOF 2
