REMARK  Name = ZINC35311912
REMARK  7 active torsions:
REMARK  status: ('A' for Active; 'I' for Inactive)
REMARK    1  A    between atoms: C_6  and  N_7
REMARK    2  A    between atoms: N_7  and  C_8
REMARK    3  A    between atoms: C_8  and  N_10
REMARK    4  A    between atoms: N_10  and  C_11
REMARK    5  A    between atoms: C_11  and  C_12
REMARK    6  A    between atoms: C_12  and  N_13
REMARK    7  A    between atoms: C_15  and  C_27
REMARK                            x       y       z     vdW  Elec       q    Type
REMARK                         _______ _______ _______ _____ _____    ______ ____
ROOT
ATOM      1  N   UNL     1      -3.743  -6.189  -0.519  0.00  0.00    -0.327 N 
ATOM      2  C   UNL     1      -4.933  -6.889  -0.616  0.00  0.00    +0.137 A 
ATOM      3  C   UNL     1      -4.900  -8.300  -0.724  0.00  0.00    +0.092 A 
ATOM      4  C   UNL     1      -6.094  -9.004  -0.821  0.00  0.00    +0.032 A 
ATOM      5  C   UNL     1      -7.296  -8.276  -0.807  0.00  0.00    +0.005 A 
ATOM      6  C   UNL     1      -8.537  -8.928  -0.903  0.00  0.00    +0.059 A 
ATOM      7  C   UNL     1      -9.691  -8.202  -0.889  0.00  0.00    +0.167 A 
ATOM      8  C   UNL     1      -9.653  -6.801  -0.778  0.00  0.00    +0.168 A 
ATOM      9  C   UNL     1      -8.451  -6.138  -0.683  0.00  0.00    +0.078 A 
ATOM     10  C   UNL     1      -7.249  -6.863  -0.696  0.00  0.00    +0.077 A 
ATOM     11  N   UNL     1      -6.072  -6.232  -0.599  0.00  0.00    -0.231 NA
ATOM     12  O   UNL     1     -10.935  -6.333  -0.789  0.00  0.00    -0.453 OA
ATOM     13  C   UNL     1     -11.734  -7.406  -1.320  0.00  0.00    +0.466 C 
ATOM     14  O   UNL     1     -10.998  -8.592  -0.968  0.00  0.00    -0.453 OA
ATOM     15  H   UNL     1      -2.898  -6.665  -0.531  0.00  0.00    +0.148 HD
ENDROOT
BRANCH   3  16
ATOM     16  C   UNL     1      -3.648  -8.995  -0.734  0.00  0.00    +0.103 C 
ATOM     17  N   UNL     1      -2.655  -9.547  -0.742  0.00  0.00    -0.191 NA
ENDBRANCH   3  16
BRANCH   1  18
ATOM     18  C   UNL     1      -3.761  -4.729  -0.401  0.00  0.00    +0.121 C 
BRANCH  18  19
ATOM     19  C   UNL     1      -2.325  -4.207  -0.311  0.00  0.00    +0.122 C 
BRANCH  19  20
ATOM     20  N   UNL     1      -2.343  -2.747  -0.193  0.00  0.00    -0.325 N 
ATOM     21  H   UNL     1      -3.188  -2.272  -0.182  0.00  0.00    +0.148 HD
BRANCH  20  22
ATOM     22  C   UNL     1      -1.184  -2.065  -0.099  0.00  0.00    +0.135 C 
ATOM     23  S   UNL     1       0.308  -2.904  -0.119  0.00  0.00    -0.019 S 
BRANCH  22  24
ATOM     24  N   UNL     1      -1.200  -0.722   0.010  0.00  0.00    -0.297 N 
ATOM     25  H   UNL     1      -2.044  -0.252   0.102  0.00  0.00    +0.154 HD
BRANCH  24  31
ATOM     26  C   UNL     1       1.003  -0.348  -0.907  0.00  0.00    +0.026 A 
ATOM     27  C   UNL     1       2.188   0.362  -0.925  0.00  0.00    +0.040 A 
ATOM     28  C   UNL     1       2.377   1.417  -0.048  0.00  0.00    +0.124 A 
ATOM     29  C   UNL     1       1.379   1.762   0.849  0.00  0.00    +0.040 A 
ATOM     30  C   UNL     1       0.193   1.055   0.869  0.00  0.00    +0.026 A 
ATOM     31  C   UNL     1       0.001  -0.003  -0.009  0.00  0.00    +0.033 A 
ATOM     32  F   UNL     1       3.536   2.110  -0.067  0.00  0.00    -0.205 F 
ENDBRANCH  24  31
ENDBRANCH  22  24
ENDBRANCH  20  22
ENDBRANCH  19  20
ENDBRANCH  18  19
ENDBRANCH   1  18
TORSDOF 7
