REMARK  Name = ZINC39672132
REMARK  9 active torsions:
REMARK  status: ('A' for Active; 'I' for Inactive)
REMARK    1  A    between atoms: C_1  and  C_2
REMARK    2  A    between atoms: C_2  and  C_3
REMARK    3  A    between atoms: C_3  and  C_4
REMARK    4  A    between atoms: C_4  and  C_6
REMARK    5  A    between atoms: C_4  and  C_7
REMARK    6  A    between atoms: C_11  and  C_20
REMARK    7  A    between atoms: N_22  and  C_23
REMARK    8  A    between atoms: C_23  and  C_24
REMARK    9  A    between atoms: N_33  and  C_34
REMARK                            x       y       z     vdW  Elec       q    Type
REMARK                         _______ _______ _______ _____ _____    ______ ____
ROOT
ATOM      1  C   UNL     1       1.797  -2.778  -2.499  0.00  0.00    +0.218 C 
ATOM      2  O   UNL     1       2.465  -2.063  -3.216  0.00  0.00    -0.275 OA
ATOM      3  N   UNL     1       1.731  -4.102  -2.741  0.00  0.00    -0.300 N 
ATOM      4  C   UNL     1       0.891  -5.110  -2.053  0.00  0.00    +0.121 C 
ATOM      5  C   UNL     1       0.412  -6.054  -3.178  0.00  0.00    +0.100 C 
ATOM      6  C   UNL     1       1.460  -5.899  -4.293  0.00  0.00    -0.004 C 
ATOM      7  C   UNL     1       2.476  -4.878  -3.761  0.00  0.00    +0.115 C 
ATOM      8  C   UNL     1       0.805  -5.369  -5.565  0.00  0.00    -0.010 C 
ATOM      9  C   UNL     1       1.855  -5.277  -6.675  0.00  0.00    -0.082 C 
ATOM     10  N   UNL     1       2.433  -6.605  -6.915  0.00  0.00    +0.379 N 
ATOM     11  C   UNL     1       3.141  -7.068  -5.715  0.00  0.00    -0.082 C 
ATOM     12  C   UNL     1       2.145  -7.235  -4.564  0.00  0.00    -0.010 C 
ATOM     13  H   UNL     1       1.696  -7.256  -7.140  0.00  0.00    -0.086 HD
ATOM     14  H   UNL     1       3.080  -6.554  -7.687  0.00  0.00    -0.086 HD
ENDROOT
BRANCH   5  15
ATOM     15  C   UNL     1       0.371  -7.478  -2.687  0.00  0.00    +0.218 C 
ATOM     16  O   UNL     1       1.135  -7.842  -1.818  0.00  0.00    -0.275 OA
ATOM     17  N   UNL     1      -0.514  -8.348  -3.214  0.00  0.00    -0.311 N 
ATOM     18  H   UNL     1      -1.125  -8.056  -3.909  0.00  0.00    +0.149 HD
BRANCH  17  19
ATOM     19  C   UNL     1      -0.553  -9.732  -2.736  0.00  0.00    +0.139 C 
BRANCH  19  20
ATOM     20  C   UNL     1      -1.622 -10.490  -3.481  0.00  0.00    -0.030 A 
ATOM     21  C   UNL     1      -2.914 -10.521  -2.990  0.00  0.00    +0.007 A 
ATOM     22  C   UNL     1      -3.893 -11.217  -3.671  0.00  0.00    +0.024 A 
ATOM     23  C   UNL     1      -3.579 -11.884  -4.851  0.00  0.00    +0.033 A 
ATOM     24  C   UNL     1      -2.284 -11.849  -5.344  0.00  0.00    -0.026 A 
ATOM     25  C   UNL     1      -1.309 -11.147  -4.655  0.00  0.00    +0.010 A 
ATOM     26  C   UNL     1      -1.910 -12.551  -6.623  0.00  0.00    +0.038 C 
ATOM     27  C   UNL     1      -2.930 -13.640  -6.954  0.00  0.00    +0.024 C 
ATOM     28  C   UNL     1      -4.338 -13.034  -6.902  0.00  0.00    +0.105 C 
ATOM     29  N   UNL     1      -4.584 -12.587  -5.524  0.00  0.00    -0.333 N 
ATOM     30  C   UNL     1      -5.861 -12.874  -4.864  0.00  0.00    +0.129 C 
ENDBRANCH  19  20
ENDBRANCH  17  19
ENDBRANCH   5  15
BRANCH   1  31
ATOM     31  C   UNL     1       1.042  -2.185  -1.337  0.00  0.00    +0.072 C 
ATOM     32  C   UNL     1      -0.351  -1.756  -1.800  0.00  0.00    +0.017 C 
BRANCH  31  33
ATOM     33  C   UNL     1       1.800  -0.968  -0.803  0.00  0.00    +0.012 C 
BRANCH  33  35
ATOM     34  C   UNL     1       1.860   0.775   0.985  0.00  0.00    +0.004 C 
ATOM     35  C   UNL     1       1.101  -0.442   0.452  0.00  0.00    -0.003 C 
ENDBRANCH  33  35
ENDBRANCH  31  33
ENDBRANCH   1  31
TORSDOF 6
