REMARK  Name = ZINC15054503
REMARK  6 active torsions:
REMARK  status: ('A' for Active; 'I' for Inactive)
REMARK    1  A    between atoms: C_1  and  C_2
REMARK    2  A    between atoms: N_9  and  N_10
REMARK    3  A    between atoms: C_15  and  C_18
REMARK    4  A    between atoms: C_18  and  C_19
REMARK    5  A    between atoms: C_19  and  C_21
REMARK    6  A    between atoms: C_25  and  C_27
REMARK                            x       y       z     vdW  Elec       q    Type
REMARK                         _______ _______ _______ _____ _____    ______ ____
ROOT
ATOM      1  N   UNL     1       0.042  -1.713   4.023  0.00  0.00    -0.126 NA
ATOM      2  C   UNL     1       0.045  -1.511   5.338  0.00  0.00    +0.183 C 
ATOM      3  N   UNL     1       0.025  -0.310   5.987  0.00  0.00    -0.263 N 
ATOM      4  C   UNL     1       0.029  -0.217   7.309  0.00  0.00    +0.232 C 
ATOM      5  O   UNL     1       0.012   0.840   7.904  0.00  0.00    -0.274 OA
ATOM      6  C   UNL     1       0.058  -1.569   8.005  0.00  0.00    +0.147 C 
ATOM      7  S   UNL     1       0.066  -2.684   6.543  0.00  0.00    -0.075 S 
ATOM      8  H   UNL     1       0.007   0.505   5.461  0.00  0.00    +0.157 HD
ENDROOT
BRANCH   1  17
ATOM      9  C   UNL     1      -0.018   1.503   0.010  0.00  0.00    +0.044 C 
ATOM     10  C   UNL     1       0.002  -0.004   0.002  0.00  0.00    -0.050 A 
ATOM     11  C   UNL     1       0.006  -0.689  -1.202  0.00  0.00    +0.005 A 
ATOM     12  C   UNL     1       0.024  -2.069  -1.226  0.00  0.00    +0.024 A 
ATOM     13  C   UNL     1       0.039  -2.788  -0.036  0.00  0.00    +0.043 A 
ATOM     14  C   UNL     1       0.035  -2.091   1.181  0.00  0.00    +0.029 A 
ATOM     15  C   UNL     1       0.023  -0.699   1.194  0.00  0.00    +0.015 A 
ATOM     16  C   UNL     1       0.054  -3.115   2.247  0.00  0.00    +0.157 C 
ATOM     17  N   UNL     1       0.057  -2.915   3.555  0.00  0.00    -0.142 NA
ATOM     18  C   UNL     1       0.068  -4.402   1.541  0.00  0.00    +0.269 C 
ATOM     19  O   UNL     1       0.084  -5.504   2.061  0.00  0.00    -0.268 OA
ATOM     20  N   UNL     1       0.059  -4.153   0.221  0.00  0.00    -0.280 N 
ATOM     21  H   UNL     1       0.064  -4.838  -0.466  0.00  0.00    +0.155 HD
ENDBRANCH   1  17
BRANCH   6  22
ATOM     22  C   UNL     1      -1.196  -1.783   8.856  0.00  0.00    +0.103 C 
BRANCH  22  23
ATOM     23  C   UNL     1      -1.070  -3.075   9.621  0.00  0.00    +0.165 C 
ATOM     24  O   UNL     1      -0.075  -3.758   9.498  0.00  0.00    -0.292 OA
BRANCH  23  25
ATOM     25  C   UNL     1      -2.153  -3.509  10.516  0.00  0.00    +0.018 A 
ATOM     26  C   UNL     1      -3.305  -2.727  10.656  0.00  0.00    +0.013 A 
ATOM     27  C   UNL     1      -4.316  -3.139  11.497  0.00  0.00    +0.021 A 
ATOM     28  C   UNL     1      -4.194  -4.325  12.203  0.00  0.00    +0.044 A 
ATOM     29  C   UNL     1      -3.056  -5.105  12.069  0.00  0.00    -0.031 A 
ATOM     30  C   UNL     1      -2.039  -4.708  11.228  0.00  0.00    +0.016 A 
ATOM     31  C   UNL     1      -2.933  -6.393  12.841  0.00  0.00    +0.045 C 
ATOM     32 CL   UNL     1      -5.472  -4.837  13.260  0.00  0.00    -0.083 Cl
ENDBRANCH  23  25
ENDBRANCH  22  23
ENDBRANCH   6  22
TORSDOF 4
