REMARK  Name = ZINC63318903
REMARK  9 active torsions:
REMARK  status: ('A' for Active; 'I' for Inactive)
REMARK    1  A    between atoms: C_1  and  C_2
REMARK    2  A    between atoms: C_2  and  C_3
REMARK    3  A    between atoms: C_3  and  C_4
REMARK    4  A    between atoms: C_4  and  O_5
REMARK    5  A    between atoms: O_5  and  C_6
REMARK    6  A    between atoms: C_9  and  C_12
REMARK    7  A    between atoms: N_13  and  N_14
REMARK    8  A    between atoms: C_15  and  C_17
REMARK    9  A    between atoms: C_19  and  C_28
REMARK                            x       y       z     vdW  Elec       q    Type
REMARK                         _______ _______ _______ _____ _____    ______ ____
ROOT
ATOM      1  N   UNL     1       2.539  -9.965   4.212  0.00  0.00    -0.205 N 
ATOM      2  C   UNL     1       3.240 -10.473   5.244  0.00  0.00    +0.259 C 
ATOM      3  O   UNL     1       3.840  -9.732   5.994  0.00  0.00    -0.271 OA
ATOM      4  H   UNL     1       2.111 -10.560   3.577  0.00  0.00    +0.177 HD
ENDROOT
BRANCH   2   5
ATOM      5  C   UNL     1       3.279 -11.963   5.467  0.00  0.00    +0.199 C 
ATOM      6  C   UNL     1       4.437 -12.574   4.708  0.00  0.00    -0.000 C 
ATOM      7  C   UNL     1       5.248 -13.156   5.667  0.00  0.00    +0.006 A 
ATOM      8  C   UNL     1       6.467 -13.872   5.582  0.00  0.00    +0.030 A 
ATOM      9  C   UNL     1       7.053 -14.338   6.713  0.00  0.00    +0.042 A 
ATOM     10  C   UNL     1       6.483 -14.130   7.975  0.00  0.00    +0.022 A 
ATOM     11  C   UNL     1       5.321 -13.454   8.133  0.00  0.00    +0.027 A 
ATOM     12  C   UNL     1       4.645 -12.934   6.995  0.00  0.00    +0.044 A 
ATOM     13  N   UNL     1       3.523 -12.255   6.883  0.00  0.00    -0.370 N 
ATOM     14 CL   UNL     1       8.546 -15.215   6.592  0.00  0.00    -0.084 Cl
ATOM     15  H   UNL     1       2.949 -11.991   7.619  0.00  0.00    +0.161 HD
BRANCH   6  16
ATOM     16  C   UNL     1       4.653 -12.554   3.260  0.00  0.00    -0.019 A 
ATOM     17  C   UNL     1       5.948 -12.692   2.739  0.00  0.00    +0.008 A 
ATOM     18  C   UNL     1       6.142 -12.672   1.375  0.00  0.00    +0.001 A 
ATOM     19  C   UNL     1       5.063 -12.517   0.520  0.00  0.00    +0.000 A 
ATOM     20  C   UNL     1       3.781 -12.379   1.026  0.00  0.00    +0.001 A 
ATOM     21  C   UNL     1       3.567 -12.402   2.386  0.00  0.00    +0.008 A 
ENDBRANCH   6  16
ENDBRANCH   2   5
BRANCH   1  23
ATOM     22  C   UNL     1       1.754  -8.087   3.061  0.00  0.00    +0.138 C 
ATOM     23  N   UNL     1       2.430  -8.577   4.055  0.00  0.00    -0.188 NA
BRANCH  22  27
ATOM     24  C   UNL     1       1.421  -3.881   2.588  0.00  0.00    +0.121 A 
ATOM     25  C   UNL     1       0.807  -4.731   1.677  0.00  0.00    +0.046 A 
ATOM     26  C   UNL     1       0.913  -6.097   1.827  0.00  0.00    +0.013 A 
ATOM     27  C   UNL     1       1.639  -6.627   2.897  0.00  0.00    -0.005 A 
ATOM     28  C   UNL     1       2.256  -5.768   3.810  0.00  0.00    +0.013 A 
ATOM     29  C   UNL     1       2.149  -4.403   3.650  0.00  0.00    +0.046 A 
BRANCH  24  30
ATOM     30  O   UNL     1       1.315  -2.536   2.437  0.00  0.00    -0.492 OA
BRANCH  30  31
ATOM     31  C   UNL     1       0.552  -2.066   1.323  0.00  0.00    +0.229 C 
BRANCH  31  32
ATOM     32  C   UNL     1       0.546  -0.536   1.318  0.00  0.00    +0.041 C 
BRANCH  32  34
ATOM     33  C   UNL     1      -0.277   1.496   0.120  0.00  0.00    +0.004 C 
ATOM     34  C   UNL     1      -0.271  -0.034   0.125  0.00  0.00    -0.000 C 
ENDBRANCH  32  34
ENDBRANCH  31  32
ENDBRANCH  30  31
ENDBRANCH  24  30
ENDBRANCH  22  27
ENDBRANCH   1  23
TORSDOF 8
