REMARK  Name = ZINC37122782
REMARK  11 active torsions:
REMARK  status: ('A' for Active; 'I' for Inactive)
REMARK    1  A    between atoms: C_1  and  C_2
REMARK    2  A    between atoms: C_4  and  C_23
REMARK    3  A    between atoms: C_5  and  C_9
REMARK    4  A    between atoms: C_7  and  C_8
REMARK    5  A    between atoms: C_9  and  C_11
REMARK    6  A    between atoms: C_9  and  N_12
REMARK    7  A    between atoms: N_12  and  C_13
REMARK    8  A    between atoms: C_13  and  C_15
REMARK    9  A    between atoms: C_13  and  C_16
REMARK   10  A    between atoms: C_18  and  C_22
REMARK   11  A    between atoms: C_20  and  C_21
REMARK                            x       y       z     vdW  Elec       q    Type
REMARK                         _______ _______ _______ _____ _____    ______ ____
ROOT
ATOM      1  N   UNL     1      -0.512  -4.779   1.234  0.00  0.00    +0.388 N 
ATOM      2  H   UNL     1       0.079  -4.509   2.006  0.00  0.00    -0.084 HD
ATOM      3  H   UNL     1      -1.434  -4.390   1.364  0.00  0.00    -0.084 HD
ENDROOT
BRANCH   1   4
ATOM      4  C   UNL     1       0.059  -4.275  -0.021  0.00  0.00    -0.043 C 
ATOM      5  C   UNL     1       1.502  -4.766  -0.158  0.00  0.00    -0.009 C 
BRANCH   4  10
ATOM      6  C   UNL     1      -0.018   1.503   0.010  0.00  0.00    +0.044 C 
ATOM      7  C   UNL     1       0.002  -0.004   0.002  0.00  0.00    -0.047 A 
ATOM      8  C   UNL     1       0.006  -0.689  -1.199  0.00  0.00    +0.007 A 
ATOM      9  C   UNL     1       0.025  -2.071  -1.207  0.00  0.00    -0.049 A 
ATOM     10  C   UNL     1       0.040  -2.768  -0.013  0.00  0.00    -0.058 A 
ATOM     11  C   UNL     1       0.037  -2.084   1.188  0.00  0.00    +0.006 A 
ATOM     12  C   UNL     1       0.023  -0.702   1.195  0.00  0.00    -0.047 A 
ATOM     13  C   UNL     1       0.025   0.045   2.504  0.00  0.00    +0.044 C 
ATOM     14  C   UNL     1       0.027  -2.817  -2.516  0.00  0.00    +0.044 C 
ENDBRANCH   4  10
ENDBRANCH   1   4
BRANCH   1  15
ATOM     15  C   UNL     1      -0.604  -6.244   1.177  0.00  0.00    -0.042 C 
ATOM     16  C   UNL     1      -1.598  -6.651   0.088  0.00  0.00    -0.009 C 
BRANCH  15  17
ATOM     17  C   UNL     1      -1.075  -6.770   2.509  0.00  0.00    -0.051 A 
ATOM     18  C   UNL     1      -1.825  -5.973   3.353  0.00  0.00    +0.013 A 
ATOM     19  C   UNL     1      -2.232  -6.476   4.543  0.00  0.00    -0.013 A 
ATOM     20  S   UNL     1      -1.552  -8.126   4.499  0.00  0.00    -0.098 S 
ATOM     21  C   UNL     1      -0.775  -8.035   2.894  0.00  0.00    -0.011 A 
ATOM     22  C   UNL     1       0.013  -9.089   2.159  0.00  0.00    +0.052 C 
ATOM     23  C   UNL     1      -3.048  -5.815   5.624  0.00  0.00    +0.051 C 
ENDBRANCH  15  17
ENDBRANCH   1  15
TORSDOF 4
