REMARK  Name = ZINC08345295
REMARK  7 active torsions:
REMARK  status: ('A' for Active; 'I' for Inactive)
REMARK    1  A    between atoms: C_1  and  C_2
REMARK    2  A    between atoms: C_2  and  C_3
REMARK    3  A    between atoms: C_2  and  C_4
REMARK    4  A    between atoms: C_4  and  C_6
REMARK    5  A    between atoms: C_4  and  N_53
REMARK    6  A    between atoms: C_16  and  C_17
REMARK    7  A    between atoms: C_16  and  N_53
REMARK                            x       y       z     vdW  Elec       q    Type
REMARK                         _______ _______ _______ _____ _____    ______ ____
ROOT
ATOM      1  N   UNL     1      -4.757  -0.419   1.009  0.00  0.00    +0.386 N 
ATOM      2  H   UNL     1      -5.385   0.219   0.506  0.00  0.00    -0.085 HD
ATOM      3  H   UNL     1      -4.348   0.067   1.815  0.00  0.00    -0.085 HD
ENDROOT
BRANCH   1   4
ATOM      4  C   UNL     1      -3.676  -0.852   0.103  0.00  0.00    -0.038 C 
BRANCH   4   5
ATOM      5  C   UNL     1      -2.545   0.142   0.171  0.00  0.00    -0.057 A 
ATOM      6  C   UNL     1      -2.820   1.495   0.243  0.00  0.00    +0.006 A 
ATOM      7  C   UNL     1      -1.786   2.410   0.301  0.00  0.00    +0.049 A 
ATOM      8  C   UNL     1      -0.470   1.973   0.294  0.00  0.00    +0.162 A 
ATOM      9  C   UNL     1      -0.194   0.613   0.223  0.00  0.00    +0.162 A 
ATOM     10  C   UNL     1      -1.236  -0.300   0.161  0.00  0.00    +0.051 A 
ATOM     11  O   UNL     1       1.090   0.162   0.216  0.00  0.00    -0.485 OA
ATOM     12  C   UNL     1       2.107   1.120  -0.099  0.00  0.00    +0.270 C 
ATOM     13  C   UNL     1       1.833   2.394   0.712  0.00  0.00    +0.270 C 
ATOM     14  O   UNL     1       0.538   2.886   0.350  0.00  0.00    -0.485 OA
ENDBRANCH   4   5
BRANCH   4  16
ATOM     15  C   UNL     1      -4.590   0.482  -1.801  0.00  0.00    +0.006 C 
ATOM     16  C   UNL     1      -4.208  -0.922  -1.330  0.00  0.00    -0.027 C 
ATOM     17  C   UNL     1      -3.125  -1.491  -2.249  0.00  0.00    +0.006 C 
ENDBRANCH   4  16
ENDBRANCH   1   4
BRANCH   1  18
ATOM     18  C   UNL     1      -5.526  -1.586   1.483  0.00  0.00    -0.046 C 
BRANCH  18  19
ATOM     19  C   UNL     1      -6.539  -1.129   2.500  0.00  0.00    -0.059 A 
ATOM     20  C   UNL     1      -7.804  -0.747   2.089  0.00  0.00    +0.051 A 
ATOM     21  C   UNL     1      -8.733  -0.327   3.026  0.00  0.00    +0.164 A 
ATOM     22  C   UNL     1      -8.396  -0.291   4.371  0.00  0.00    +0.180 A 
ATOM     23  C   UNL     1      -7.129  -0.674   4.780  0.00  0.00    +0.086 A 
ATOM     24  C   UNL     1      -6.204  -1.098   3.840  0.00  0.00    +0.025 A 
ATOM     25 CL   UNL     1      -6.704  -0.629   6.463  0.00  0.00    -0.080 Cl
ATOM     26  O   UNL     1      -9.318   0.125   5.287  0.00  0.00    -0.487 OA
ATOM     27  C   UNL     1     -10.438  -0.742   5.483  0.00  0.00    +0.232 C 
ATOM     28  C   UNL     1     -11.514  -0.475   4.443  0.00  0.00    +0.082 C 
ATOM     29  C   UNL     1     -11.052  -0.808   3.033  0.00  0.00    +0.232 C 
ATOM     30  O   UNL     1      -9.984   0.053   2.634  0.00  0.00    -0.488 OA
ENDBRANCH  18  19
ENDBRANCH   1  18
TORSDOF 5
