REMARK  Name = ZINC00887725
REMARK  10 active torsions:
REMARK  status: ('A' for Active; 'I' for Inactive)
REMARK    1  A    between atoms: C_1  and  C_2
REMARK    2  A    between atoms: C_5  and  C_8
REMARK    3  A    between atoms: N_11  and  C_13
REMARK    4  A    between atoms: C_13  and  C_14
REMARK    5  A    between atoms: N_16  and  C_17
REMARK    6  A    between atoms: N_16  and  C_24
REMARK    7  A    between atoms: C_24  and  C_26
REMARK    8  A    between atoms: C_24  and  C_36
REMARK    9  A    between atoms: N_38  and  C_39
REMARK   10  A    between atoms: C_39  and  C_40
REMARK                            x       y       z     vdW  Elec       q    Type
REMARK                         _______ _______ _______ _____ _____    ______ ____
ROOT
ATOM      1  C   UNL     1       1.260   2.090   0.058  0.00  0.00    +0.244 C 
ATOM      2  O   UNL     1       0.709   2.491  -0.945  0.00  0.00    -0.273 OA
ATOM      3  N   UNL     1       2.387   1.356  -0.039  0.00  0.00    -0.251 N 
ENDROOT
BRANCH   3   4
ATOM      4  C   UNL     1       2.967   0.807   1.111  0.00  0.00    +0.073 A 
ATOM      5  C   UNL     1       2.524  -0.415   1.598  0.00  0.00    +0.026 A 
ATOM      6  C   UNL     1       3.099  -0.954   2.733  0.00  0.00    +0.002 A 
ATOM      7  C   UNL     1       4.114  -0.278   3.385  0.00  0.00    +0.003 A 
ATOM      8  C   UNL     1       4.562   0.937   2.901  0.00  0.00    +0.040 A 
ATOM      9  C   UNL     1       3.987   1.486   1.768  0.00  0.00    +0.145 A 
ATOM     10  F   UNL     1       4.422   2.675   1.298  0.00  0.00    -0.204 F 
ENDBRANCH   3   4
BRANCH   1  11
ATOM     11  C   UNL     1       0.686   2.411   1.414  0.00  0.00    +0.264 C 
BRANCH  11  15
ATOM     12  C   UNL     1      -1.832   4.857   1.052  0.00  0.00    +0.205 A 
ATOM     13  N   UNL     1      -2.549   3.726   1.009  0.00  0.00    -0.108 NA
ATOM     14  N   UNL     1      -1.722   2.744   1.133  0.00  0.00    -0.045 NA
ATOM     15  N   UNL     1      -0.529   3.214   1.251  0.00  0.00    -0.154 N 
ATOM     16  N   UNL     1      -0.573   4.501   1.209  0.00  0.00    -0.130 NA
BRANCH  12  21
ATOM     17  C   UNL     1      -3.861  10.233   0.652  0.00  0.00    +0.044 C 
ATOM     18  C   UNL     1      -3.330   8.827   0.756  0.00  0.00    -0.050 A 
ATOM     19  C   UNL     1      -4.202   7.755   0.693  0.00  0.00    +0.004 A 
ATOM     20  C   UNL     1      -3.721   6.464   0.789  0.00  0.00    +0.012 A 
ATOM     21  C   UNL     1      -2.355   6.243   0.948  0.00  0.00    +0.023 A 
ATOM     22  C   UNL     1      -1.482   7.327   1.016  0.00  0.00    +0.012 A 
ATOM     23  C   UNL     1      -1.973   8.613   0.915  0.00  0.00    +0.004 A 
ENDBRANCH  12  21
ENDBRANCH  11  15
ENDBRANCH   1  11
BRANCH   3  24
ATOM     24  C   UNL     1       3.004   1.132  -1.349  0.00  0.00    +0.199 C 
BRANCH  24  25
ATOM     25  C   UNL     1       2.089   0.289  -2.198  0.00  0.00    +0.007 A 
ATOM     26  C   UNL     1       0.773   0.099  -2.009  0.00  0.00    +0.089 A 
ATOM     27  N   UNL     1       0.276  -0.725  -2.982  0.00  0.00    -0.360 N 
ATOM     28  H   UNL     1      -0.650  -1.004  -3.056  0.00  0.00    +0.165 HD
ATOM     29  C   UNL     1       1.287  -1.103  -3.837  0.00  0.00    +0.047 A 
ATOM     30  C   UNL     1       2.467  -0.485  -3.384  0.00  0.00    +0.005 A 
ATOM     31  C   UNL     1       3.667  -0.691  -4.065  0.00  0.00    +0.010 A 
ATOM     32  C   UNL     1       3.690  -1.494  -5.171  0.00  0.00    +0.001 A 
ATOM     33  C   UNL     1       2.529  -2.106  -5.622  0.00  0.00    +0.002 A 
ATOM     34  C   UNL     1       1.333  -1.916  -4.964  0.00  0.00    +0.026 A 
ENDBRANCH  24  25
BRANCH  24  35
ATOM     35  C   UNL     1       3.239   2.458  -2.027  0.00  0.00    +0.239 C 
ATOM     36  O   UNL     1       2.921   3.488  -1.470  0.00  0.00    -0.273 OA
ATOM     37  N   UNL     1       3.801   2.498  -3.251  0.00  0.00    -0.311 N 
ATOM     38  H   UNL     1       4.055   1.675  -3.696  0.00  0.00    +0.149 HD
BRANCH  37  39
ATOM     39  C   UNL     1       4.029   3.787  -3.910  0.00  0.00    +0.135 C 
BRANCH  39  40
ATOM     40  C   UNL     1       4.674   3.553  -5.277  0.00  0.00    +0.135 C 
ATOM     41  C   UNL     1       4.918   4.904  -5.979  0.00  0.00    +0.035 C 
ATOM     42  C   UNL     1       6.445   4.929  -6.232  0.00  0.00    +0.031 C 
ATOM     43  C   UNL     1       6.812   3.425  -6.158  0.00  0.00    +0.160 C 
ATOM     44  O   UNL     1       5.954   2.920  -5.113  0.00  0.00    -0.375 OA
ENDBRANCH  39  40
ENDBRANCH  37  39
ENDBRANCH  24  35
ENDBRANCH   3  24
TORSDOF 9
