REMARK  Name = ZINC36206510
REMARK  14 active torsions:
REMARK  status: ('A' for Active; 'I' for Inactive)
REMARK    1  A    between atoms: C_1  and  C_2
REMARK    2  A    between atoms: C_2  and  O_3
REMARK    3  A    between atoms: O_3  and  C_4
REMARK    4  A    between atoms: C_4  and  C_5
REMARK    5  A    between atoms: C_5  and  C_7
REMARK    6  A    between atoms: C_5  and  O_35
REMARK    7  A    between atoms: C_7  and  N_8
REMARK    8  A    between atoms: N_8  and  C_9
REMARK    9  A    between atoms: N_8  and  C_15
REMARK   10  A    between atoms: C_9  and  C_10
REMARK   11  A    between atoms: C_15  and  C_16
REMARK   12  A    between atoms: C_22  and  C_27
REMARK   13  A    between atoms: C_29  and  C_34
REMARK   14  A    between atoms: C_32  and  C_33
REMARK                            x       y       z     vdW  Elec       q    Type
REMARK                         _______ _______ _______ _____ _____    ______ ____
ROOT
ATOM      1  C   UNL     1       2.821  -5.802  -5.540  0.00  0.00    +0.094 A 
ATOM      2  N   UNL     1       2.858  -7.086  -5.979  0.00  0.00    -0.312 N 
ATOM      3  H   UNL     1       2.435  -7.782  -5.451  0.00  0.00    +0.170 HD
ATOM      4  C   UNL     1       3.469  -7.413  -7.133  0.00  0.00    +0.260 A 
ATOM      5  O   UNL     1       3.493  -8.571  -7.514  0.00  0.00    -0.267 OA
ATOM      6  C   UNL     1       4.091  -6.381  -7.906  0.00  0.00    +0.080 A 
ATOM      7  C   UNL     1       4.806  -6.481  -9.172  0.00  0.00    +0.004 A 
ATOM      8  C   UNL     1       5.315  -5.353  -9.724  0.00  0.00    +0.056 A 
ATOM      9  S   UNL     1       4.857  -4.082  -8.560  0.00  0.00    -0.076 S 
ATOM     10  C   UNL     1       4.002  -5.085  -7.372  0.00  0.00    +0.116 A 
ATOM     11  N   UNL     1       3.374  -4.838  -6.226  0.00  0.00    -0.229 NA
ENDROOT
BRANCH   7  12
ATOM     12  C   UNL     1       4.972  -7.792  -9.844  0.00  0.00    -0.013 A 
ATOM     13  C   UNL     1       6.244  -8.345  -9.993  0.00  0.00    +0.012 A 
ATOM     14  C   UNL     1       6.393  -9.565 -10.619  0.00  0.00    -0.050 A 
ATOM     15  C   UNL     1       5.284 -10.240 -11.098  0.00  0.00    +0.003 A 
ATOM     16  C   UNL     1       4.021  -9.697 -10.954  0.00  0.00    +0.004 A 
ATOM     17  C   UNL     1       3.859  -8.479 -10.325  0.00  0.00    -0.043 A 
ATOM     18  C   UNL     1       2.481  -7.891 -10.162  0.00  0.00    +0.044 C 
ATOM     19  C   UNL     1       7.766 -10.164 -10.782  0.00  0.00    +0.044 C 
ENDBRANCH   7  12
BRANCH   1  20
ATOM     20  C   UNL     1       2.124  -5.483  -4.242  0.00  0.00    -0.003 C 
BRANCH  20  21
ATOM     21  N   UNL     1       2.210  -4.039  -3.983  0.00  0.00    +0.391 N 
ATOM     22  H   UNL     1       3.176  -3.749  -4.016  0.00  0.00    -0.080 HD
BRANCH  21  23
ATOM     23  C   UNL     1       1.656  -3.747  -2.654  0.00  0.00    -0.044 C 
BRANCH  23  24
ATOM     24  C   UNL     1       2.568  -4.341  -1.579  0.00  0.00    +0.124 C 
BRANCH  24  25
ATOM     25  O   UNL     1       2.501  -5.768  -1.632  0.00  0.00    -0.391 OA
ATOM     26  H   UNL     1       1.614  -6.125  -1.484  0.00  0.00    +0.210 HD
ENDBRANCH  24  25
BRANCH  24  27
ATOM     27  C   UNL     1       2.112  -3.860  -0.200  0.00  0.00    +0.189 C 
BRANCH  27  28
ATOM     28  O   UNL     1       3.032  -4.320   0.793  0.00  0.00    -0.378 OA
BRANCH  28  30
ATOM     29  C   UNL     1       3.743  -4.467   3.098  0.00  0.00    +0.034 C 
ATOM     30  C   UNL     1       2.696  -3.923   2.124  0.00  0.00    +0.156 C 
ENDBRANCH  28  30
ENDBRANCH  27  28
ENDBRANCH  24  27
ENDBRANCH  23  24
ENDBRANCH  21  23
BRANCH  21  31
ATOM     31  C   UNL     1       1.445  -3.312  -5.004  0.00  0.00    -0.002 C 
BRANCH  31  32
ATOM     32  C   UNL     1       1.650  -1.830  -4.824  0.00  0.00    +0.089 A 
ATOM     33  C   UNL     1       2.556  -1.077  -5.473  0.00  0.00    +0.042 A 
ATOM     34  C   UNL     1       2.402   0.247  -5.001  0.00  0.00    +0.041 A 
ATOM     35  C   UNL     1       1.412   0.224  -4.092  0.00  0.00    +0.195 A 
ATOM     36  O   UNL     1       0.956  -1.035  -3.993  0.00  0.00    -0.470 OA
ENDBRANCH  31  32
ENDBRANCH  21  31
ENDBRANCH  20  21
ENDBRANCH   1  20
TORSDOF 11
