REMARK  Name = ZINC67132943
REMARK  6 active torsions:
REMARK  status: ('A' for Active; 'I' for Inactive)
REMARK    1  A    between atoms: C_4  and  C_7
REMARK    2  A    between atoms: C_7  and  C_9
REMARK    3  A    between atoms: C_7  and  N_14
REMARK    4  A    between atoms: N_14  and  C_15
REMARK    5  A    between atoms: C_15  and  C_16
REMARK    6  A    between atoms: C_19  and  C_21
REMARK                            x       y       z     vdW  Elec       q    Type
REMARK                         _______ _______ _______ _____ _____    ______ ____
ROOT
ATOM      1  N   UNL     1       3.630  -1.877   0.848  0.00  0.00    +0.392 N 
ATOM      2  H   UNL     1       3.346  -1.581   1.770  0.00  0.00    -0.084 HD
ATOM      3  H   UNL     1       2.954  -2.530   0.481  0.00  0.00    -0.084 HD
ENDROOT
BRANCH   1   4
ATOM      4  C   UNL     1       3.711  -0.707  -0.038  0.00  0.00    +0.027 C 
BRANCH   4   8
ATOM      5  C   UNL     1      -0.017   1.378   0.010  0.00  0.00    +0.000 A 
ATOM      6  C   UNL     1       1.171   2.086   0.002  0.00  0.00    +0.000 A 
ATOM      7  C   UNL     1       2.377   1.411  -0.013  0.00  0.00    +0.002 A 
ATOM      8  C   UNL     1       2.396   0.029  -0.020  0.00  0.00    -0.054 A 
ATOM      9  C   UNL     1       1.208  -0.679  -0.012  0.00  0.00    +0.002 A 
ATOM     10  C   UNL     1       0.002  -0.004   0.002  0.00  0.00    +0.000 A 
ENDBRANCH   4   8
BRANCH   4  11
ATOM     11  C   UNL     1       4.014  -1.161  -1.442  0.00  0.00    +0.095 A 
ATOM     12  C   UNL     1       4.853  -0.554  -2.301  0.00  0.00    +0.043 A 
ATOM     13  C   UNL     1       4.836  -1.311  -3.495  0.00  0.00    +0.041 A 
ATOM     14  C   UNL     1       3.988  -2.336  -3.294  0.00  0.00    +0.195 A 
ATOM     15  O   UNL     1       3.497  -2.243  -2.047  0.00  0.00    -0.469 OA
ENDBRANCH   4  11
ENDBRANCH   1   4
BRANCH   1  16
ATOM     16  C   UNL     1       4.946  -2.525   0.924  0.00  0.00    -0.024 C 
BRANCH  16  17
ATOM     17  C   UNL     1       4.862  -3.725   1.833  0.00  0.00    +0.032 A 
ATOM     18  C   UNL     1       4.650  -4.961   1.309  0.00  0.00    +0.068 A 
ATOM     19  S   UNL     1       4.645  -5.954   2.796  0.00  0.00    -0.075 S 
ATOM     20  C   UNL     1       4.926  -4.618   3.952  0.00  0.00    +0.115 A 
ATOM     21  N   UNL     1       5.000  -3.578   3.130  0.00  0.00    -0.245 NA
BRANCH  20  22
ATOM     22  C   UNL     1       5.047  -4.662   5.418  0.00  0.00    +0.044 A 
ATOM     23  C   UNL     1       4.980  -5.743   6.259  0.00  0.00    +0.018 A 
ATOM     24  C   UNL     1       5.124  -5.537   7.612  0.00  0.00    +0.008 A 
ATOM     25  C   UNL     1       5.327  -4.275   8.072  0.00  0.00    +0.046 A 
ATOM     26  S   UNL     1       5.328  -3.321   6.563  0.00  0.00    -0.095 S 
ENDBRANCH  20  22
ENDBRANCH  16  17
ENDBRANCH   1  16
TORSDOF 6
