REMARK  Name = ZINC59213271
REMARK  7 active torsions:
REMARK  status: ('A' for Active; 'I' for Inactive)
REMARK    1  A    between atoms: C_1  and  C_2
REMARK    2  A    between atoms: C_3  and  N_11
REMARK    3  A    between atoms: C_7  and  N_8
REMARK    4  A    between atoms: C_12  and  C_14
REMARK    5  A    between atoms: C_14  and  S_15
REMARK    6  A    between atoms: S_15  and  C_16
REMARK    7  A    between atoms: C_18  and  C_21
REMARK                            x       y       z     vdW  Elec       q    Type
REMARK                         _______ _______ _______ _____ _____    ______ ____
ROOT
ATOM      1  N   UNL     1      -0.411   0.193  -2.476  0.00  0.00    -0.285 N 
ATOM      2  C   UNL     1      -0.694  -0.488  -3.604  0.00  0.00    +0.227 C 
ATOM      3  O   UNL     1      -0.662  -1.700  -3.606  0.00  0.00    -0.275 OA
ATOM      4  H   UNL     1      -0.384   1.162  -2.489  0.00  0.00    +0.155 HD
ENDROOT
BRANCH   1   7
ATOM      5  C   UNL     1      -1.255   1.371  -0.027  0.00  0.00    +0.048 C 
ATOM      6  C   UNL     1      -0.550   0.040  -0.070  0.00  0.00    +0.001 A 
ATOM      7  C   UNL     1      -0.155  -0.499  -1.287  0.00  0.00    +0.038 A 
ATOM      8  C   UNL     1       0.495  -1.726  -1.322  0.00  0.00    +0.024 A 
ATOM      9  C   UNL     1       0.746  -2.407  -0.147  0.00  0.00    +0.004 A 
ATOM     10  C   UNL     1       0.350  -1.868   1.064  0.00  0.00    +0.033 A 
ATOM     11  C   UNL     1      -0.292  -0.643   1.102  0.00  0.00    +0.131 A 
BRANCH  11  12
ATOM     12  N   UNL     1      -0.707  -0.067   2.401  0.00  0.00    +0.057 N 
ATOM     13  O   UNL     1      -0.803   1.131   2.527  0.00  0.00    -0.126 OA
ATOM     14  O   UNL     1      -0.951  -0.795   3.335  0.00  0.00    -0.126 OA
ENDBRANCH  11  12
ENDBRANCH   1   7
BRANCH   2  15
ATOM     15  C   UNL     1      -1.050   0.257  -4.865  0.00  0.00    +0.172 C 
BRANCH  15  16
ATOM     16  S   UNL     1      -1.375  -0.929  -6.198  0.00  0.00    -0.089 S 
BRANCH  16  17
ATOM     17  C   UNL     1      -1.772   0.084  -7.583  0.00  0.00    +0.136 A 
ATOM     18  N   UNL     1      -2.097  -0.273  -8.813  0.00  0.00    -0.233 NA
ATOM     19  C   UNL     1      -2.369   0.639  -9.744  0.00  0.00    +0.079 A 
ATOM     20  C   UNL     1      -2.311   1.964  -9.419  0.00  0.00    +0.076 A 
ATOM     21  S   UNL     1      -1.850   1.866  -7.695  0.00  0.00    -0.069 S 
BRANCH  19  22
ATOM     22  C   UNL     1      -2.731   0.220 -11.120  0.00  0.00    +0.001 A 
ATOM     23  C   UNL     1      -3.010   1.179 -12.093  0.00  0.00    +0.011 A 
ATOM     24  C   UNL     1      -3.345   0.783 -13.371  0.00  0.00    +0.020 A 
ATOM     25  C   UNL     1      -3.407  -0.563 -13.689  0.00  0.00    +0.041 A 
ATOM     26  C   UNL     1      -3.131  -1.519 -12.726  0.00  0.00    +0.020 A 
ATOM     27  C   UNL     1      -2.789  -1.134 -11.446  0.00  0.00    +0.011 A 
ATOM     28 CL   UNL     1      -3.831  -1.054 -15.299  0.00  0.00    -0.084 Cl
ENDBRANCH  19  22
ENDBRANCH  16  17
ENDBRANCH  15  16
ENDBRANCH   2  15
TORSDOF 6
