REMARK  Name = ZINC39634637
REMARK  12 active torsions:
REMARK  status: ('A' for Active; 'I' for Inactive)
REMARK    1  A    between atoms: C_1  and  C_2
REMARK    2  A    between atoms: C_2  and  O_3
REMARK    3  A    between atoms: O_3  and  C_4
REMARK    4  A    between atoms: C_8  and  C_10
REMARK    5  A    between atoms: C_14  and  C_23
REMARK    6  A    between atoms: N_25  and  C_26
REMARK    7  A    between atoms: C_26  and  C_27
REMARK    8  A    between atoms: C_27  and  C_28
REMARK    9  A    between atoms: C_31  and  O_36
REMARK   10  A    between atoms: C_32  and  O_34
REMARK   11  A    between atoms: O_34  and  C_35
REMARK   12  A    between atoms: O_36  and  C_37
REMARK                            x       y       z     vdW  Elec       q    Type
REMARK                         _______ _______ _______ _____ _____    ______ ____
ROOT
ATOM      1  C   UNL     1      -4.283  -4.371   0.007  0.00  0.00    +0.247 C 
ATOM      2  O   UNL     1      -5.258  -3.655   0.124  0.00  0.00    -0.270 OA
ATOM      3  N   UNL     1      -4.437  -5.706  -0.102  0.00  0.00    -0.296 N 
ATOM      4  C   UNL     1      -3.379  -6.743  -0.123  0.00  0.00    +0.121 C 
ATOM      5  C   UNL     1      -3.959  -7.909   0.709  0.00  0.00    +0.100 C 
ATOM      6  C   UNL     1      -5.484  -7.723   0.635  0.00  0.00    -0.004 C 
ATOM      7  C   UNL     1      -5.703  -6.468  -0.222  0.00  0.00    +0.115 C 
ATOM      8  C   UNL     1      -6.059  -7.509   2.031  0.00  0.00    -0.010 C 
ATOM      9  C   UNL     1      -7.583  -7.383   1.937  0.00  0.00    -0.082 C 
ATOM     10  N   UNL     1      -8.139  -8.603   1.339  0.00  0.00    +0.379 N 
ATOM     11  C   UNL     1      -7.653  -8.752  -0.038  0.00  0.00    -0.082 C 
ATOM     12  C   UNL     1      -6.133  -8.935  -0.028  0.00  0.00    -0.010 C 
ATOM     13  H   UNL     1      -7.855  -9.403   1.883  0.00  0.00    -0.086 HD
ATOM     14  H   UNL     1      -9.147  -8.544   1.334  0.00  0.00    -0.086 HD
ENDROOT
BRANCH   1  19
ATOM     15  C   UNL     1      -0.612  -3.897  -0.651  0.00  0.00    +0.121 A 
ATOM     16  C   UNL     1      -0.390  -2.664  -0.052  0.00  0.00    +0.046 A 
ATOM     17  C   UNL     1      -1.430  -1.991   0.562  0.00  0.00    +0.004 A 
ATOM     18  C   UNL     1      -2.695  -2.541   0.584  0.00  0.00    +0.013 A 
ATOM     19  C   UNL     1      -2.928  -3.779  -0.015  0.00  0.00    +0.040 A 
ATOM     20  C   UNL     1      -1.879  -4.454  -0.640  0.00  0.00    +0.058 A 
BRANCH  15  21
ATOM     21  O   UNL     1       0.414  -4.553  -1.254  0.00  0.00    -0.492 OA
BRANCH  21  23
ATOM     22  C   UNL     1       2.715  -4.802  -1.950  0.00  0.00    +0.048 C 
ATOM     23  C   UNL     1       1.694  -3.920  -1.228  0.00  0.00    +0.225 C 
ENDBRANCH  21  23
ENDBRANCH  15  21
ENDBRANCH   1  19
BRANCH   5  24
ATOM     24  C   UNL     1      -3.560  -9.232   0.109  0.00  0.00    +0.218 C 
ATOM     25  O   UNL     1      -3.291  -9.306  -1.072  0.00  0.00    -0.275 OA
ATOM     26  N   UNL     1      -3.501 -10.334   0.883  0.00  0.00    -0.315 N 
ATOM     27  H   UNL     1      -3.716 -10.275   1.827  0.00  0.00    +0.149 HD
BRANCH  26  28
ATOM     28  C   UNL     1      -3.112 -11.620   0.299  0.00  0.00    +0.109 C 
BRANCH  28  29
ATOM     29  C   UNL     1      -3.125 -12.697   1.385  0.00  0.00    +0.054 C 
BRANCH  29  30
ATOM     30  C   UNL     1      -2.725 -14.021   0.785  0.00  0.00    -0.042 A 
ATOM     31  C   UNL     1      -3.691 -14.859   0.258  0.00  0.00    +0.007 A 
ATOM     32  C   UNL     1      -3.329 -16.073  -0.294  0.00  0.00    +0.049 A 
ATOM     33  C   UNL     1      -1.997 -16.453  -0.321  0.00  0.00    +0.161 A 
ATOM     34  C   UNL     1      -1.025 -15.609   0.209  0.00  0.00    +0.162 A 
ATOM     35  C   UNL     1      -1.394 -14.391   0.757  0.00  0.00    +0.053 A 
BRANCH  34  36
ATOM     36  O   UNL     1       0.284 -15.978   0.185  0.00  0.00    -0.491 OA
ATOM     37  C   UNL     1       1.226 -15.062   0.747  0.00  0.00    +0.277 C 
ENDBRANCH  34  36
BRANCH  33  38
ATOM     38  O   UNL     1      -1.639 -17.648  -0.863  0.00  0.00    -0.491 OA
ATOM     39  C   UNL     1      -2.690 -18.462  -1.387  0.00  0.00    +0.277 C 
ENDBRANCH  33  38
ENDBRANCH  29  30
ENDBRANCH  28  29
ENDBRANCH  26  28
ENDBRANCH   5  24
TORSDOF 9
