REMARK  Name = ZINC40802567
REMARK  1 active torsions:
REMARK  status: ('A' for Active; 'I' for Inactive)
REMARK    1  A    between atoms: N_10  and  C_11
REMARK                            x       y       z     vdW  Elec       q    Type
REMARK                         _______ _______ _______ _____ _____    ______ ____
ROOT
ATOM      1  C   UNL     1      -0.012   1.335  -0.532  0.00  0.00    +0.001 A 
ATOM      2  C   UNL     1       1.128   2.046  -0.202  0.00  0.00    +0.001 A 
ATOM      3  C   UNL     1       2.352   1.404  -0.101  0.00  0.00    +0.012 A 
ATOM      4  C   UNL     1       2.433   0.042  -0.331  0.00  0.00    +0.030 A 
ATOM      5  C   UNL     1       1.271  -0.685  -0.668  0.00  0.00    +0.025 A 
ATOM      6  C   UNL     1       0.052  -0.028  -0.766  0.00  0.00    +0.012 A 
ATOM      7  C   UNL     1       1.709  -2.082  -0.841  0.00  0.00    +0.126 C 
ATOM      8  N   UNL     1       3.003  -2.159  -0.626  0.00  0.00    -0.212 NA
ATOM      9  C   UNL     1       3.527  -0.954  -0.316  0.00  0.00    +0.163 C 
ATOM     10  N   UNL     1       4.792  -0.708  -0.048  0.00  0.00    -0.226 NA
ATOM     11  N   UNL     1       0.893  -3.136  -1.175  0.00  0.00    -0.343 N 
ATOM     12  H   UNL     1      -0.055  -2.990  -1.316  0.00  0.00    +0.144 HD
ATOM     13  H   UNL     1       1.266  -4.027  -1.269  0.00  0.00    +0.144 HD
ENDROOT
BRANCH  10  14
ATOM     14  C   UNL     1       5.675  -1.726   0.040  0.00  0.00    +0.092 A 
ATOM     15  C   UNL     1       5.393  -2.847   0.819  0.00  0.00    +0.030 A 
ATOM     16  C   UNL     1       6.300  -3.892   0.908  0.00  0.00    +0.003 A 
ATOM     17  C   UNL     1       7.491  -3.866   0.246  0.00  0.00    +0.010 A 
ATOM     18  C   UNL     1       7.842  -2.768  -0.556  0.00  0.00    +0.002 A 
ATOM     19  C   UNL     1       6.947  -1.679  -0.685  0.00  0.00    +0.096 A 
ATOM     20  N   UNL     1       7.269  -0.636  -1.448  0.00  0.00    -0.253 NA
ATOM     21  C   UNL     1       8.409  -0.594  -2.098  0.00  0.00    +0.111 A 
ATOM     22  C   UNL     1       9.333  -1.632  -2.022  0.00  0.00    +0.020 A 
ATOM     23  C   UNL     1       9.068  -2.725  -1.246  0.00  0.00    +0.011 A 
ENDBRANCH  10  14
TORSDOF 1
