REMARK  Name = ZINC48884213
REMARK  13 active torsions:
REMARK  status: ('A' for Active; 'I' for Inactive)
REMARK    1  A    between atoms: C_1  and  C_2
REMARK    2  A    between atoms: C_5  and  C_32
REMARK    3  A    between atoms: N_8  and  C_10
REMARK    4  A    between atoms: C_10  and  C_11
REMARK    5  A    between atoms: C_16  and  C_17
REMARK    6  A    between atoms: C_17  and  N_18
REMARK    7  A    between atoms: C_19  and  C_21
REMARK    8  A    between atoms: C_21  and  C_22
REMARK    9  A    between atoms: C_22  and  C_23
REMARK   10  A    between atoms: C_25  and  C_28
REMARK   11  A    between atoms: C_28  and  C_29
REMARK   12  A    between atoms: C_28  and  C_30
REMARK   13  A    between atoms: C_28  and  C_31
REMARK                            x       y       z     vdW  Elec       q    Type
REMARK                         _______ _______ _______ _____ _____    ______ ____
ROOT
ATOM      1  C   UNL     1       2.517  -2.035   2.263  0.00  0.00    -0.059 A 
ATOM      2  C   UNL     1       3.339  -2.980   1.678  0.00  0.00    +0.002 A 
ATOM      3  C   UNL     1       4.669  -2.688   1.442  0.00  0.00    +0.000 A 
ATOM      4  C   UNL     1       5.178  -1.451   1.792  0.00  0.00    +0.000 A 
ATOM      5  C   UNL     1       4.356  -0.506   2.377  0.00  0.00    +0.005 A 
ATOM      6  C   UNL     1       3.024  -0.797   2.608  0.00  0.00    -0.029 A 
ENDROOT
BRANCH   1   7
ATOM      7  C   UNL     1       1.066  -2.353   2.520  0.00  0.00    -0.043 C 
BRANCH   7  13
ATOM      8  C   UNL     1       2.236  -5.715   5.881  0.00  0.00    +0.005 C 
ATOM      9  C   UNL     1       1.496  -4.398   5.638  0.00  0.00    -0.031 C 
ATOM     10  C   UNL     1       0.020  -4.564   6.009  0.00  0.00    +0.003 C 
ATOM     11  C   UNL     1      -0.727  -3.266   5.688  0.00  0.00    -0.031 C 
ATOM     12  C   UNL     1      -0.536  -2.927   4.208  0.00  0.00    -0.075 C 
ATOM     13  N   UNL     1       0.894  -2.755   3.922  0.00  0.00    +0.383 N 
ATOM     14  C   UNL     1       1.605  -4.016   4.160  0.00  0.00    -0.075 C 
ATOM     15  C   UNL     1      -2.217  -3.447   5.983  0.00  0.00    +0.005 C 
ATOM     16  H   UNL     1       1.272  -2.039   4.524  0.00  0.00    -0.081 HD
ENDBRANCH   7  13
ENDBRANCH   1   7
BRANCH   6  17
ATOM     17  C   UNL     1       2.126   0.235   3.241  0.00  0.00    +0.139 C 
BRANCH  17  18
ATOM     18  N   UNL     1       2.001  -0.039   4.675  0.00  0.00    -0.311 N 
ATOM     19  C   UNL     1       1.155   0.690   5.429  0.00  0.00    +0.214 C 
ATOM     20  O   UNL     1       0.498   1.574   4.921  0.00  0.00    -0.276 OA
ATOM     21  H   UNL     1       2.526  -0.746   5.081  0.00  0.00    +0.149 HD
BRANCH  19  22
ATOM     22  C   UNL     1       1.026   0.407   6.904  0.00  0.00    +0.105 C 
BRANCH  22  23
ATOM     23  C   UNL     1       0.009   1.369   7.520  0.00  0.00    +0.108 C 
BRANCH  23  24
ATOM     24  C   UNL     1      -0.121   1.086   8.995  0.00  0.00    +0.228 A 
ATOM     25  N   UNL     1       0.585   1.637   9.943  0.00  0.00    -0.196 NA
ATOM     26  C   UNL     1       0.209   1.156  11.134  0.00  0.00    +0.177 A 
ATOM     27  N   UNL     1      -0.746   0.289  10.956  0.00  0.00    -0.061 NA
ATOM     28  O   UNL     1      -0.983   0.230   9.557  0.00  0.00    -0.338 OA
BRANCH  26  29
ATOM     29  C   UNL     1       0.795   1.554  12.464  0.00  0.00    +0.025 C 
ATOM     30  C   UNL     1       0.595   3.055  12.681  0.00  0.00    +0.019 C 
ATOM     31  C   UNL     1       0.094   0.779  13.582  0.00  0.00    +0.019 C 
ATOM     32  C   UNL     1       2.290   1.230  12.480  0.00  0.00    +0.019 C 
ENDBRANCH  26  29
ENDBRANCH  23  24
ENDBRANCH  22  23
ENDBRANCH  19  22
ENDBRANCH  17  18
ENDBRANCH   6  17
TORSDOF 8
