REMARK  Name = ZINC35600902
REMARK  7 active torsions:
REMARK  status: ('A' for Active; 'I' for Inactive)
REMARK    1  A    between atoms: C_1  and  C_2
REMARK    2  A    between atoms: C_2  and  C_4
REMARK    3  A    between atoms: C_2  and  N_21
REMARK    4  A    between atoms: N_6  and  C_7
REMARK    5  A    between atoms: C_10  and  S_13
REMARK    6  A    between atoms: S_13  and  N_16
REMARK    7  A    between atoms: C_25  and  C_28
REMARK                            x       y       z     vdW  Elec       q    Type
REMARK                         _______ _______ _______ _____ _____    ______ ____
ROOT
ATOM      1  C   UNL     1       0.626  -0.286   1.272  0.00  0.00    +0.203 C 
ATOM      2  O   UNL     1      -0.041  -0.784   2.155  0.00  0.00    -0.277 OA
ATOM      3  N   UNL     1       1.924   0.002   1.488  0.00  0.00    -0.287 N 
ATOM      4  H   UNL     1       2.438   0.468   0.810  0.00  0.00    +0.155 HD
ENDROOT
BRANCH   3   5
ATOM      5  C   UNL     1       2.533  -0.372   2.692  0.00  0.00    +0.033 A 
ATOM      6  C   UNL     1       3.864  -0.767   2.706  0.00  0.00    +0.025 A 
ATOM      7  C   UNL     1       4.462  -1.135   3.895  0.00  0.00    +0.030 A 
ATOM      8  C   UNL     1       3.735  -1.110   5.072  0.00  0.00    +0.106 A 
ATOM      9  C   UNL     1       2.409  -0.718   5.061  0.00  0.00    +0.030 A 
ATOM     10  C   UNL     1       1.808  -0.343   3.876  0.00  0.00    +0.025 A 
BRANCH   8  11
ATOM     11  S   UNL     1       4.501  -1.580   6.587  0.00  0.00    +0.061 S 
ATOM     12  O   UNL     1       3.458  -1.994   7.459  0.00  0.00    -0.153 OA
ATOM     13  O   UNL     1       5.590  -2.427   6.247  0.00  0.00    -0.153 OA
BRANCH  11  14
ATOM     14  N   UNL     1       5.157  -0.211   7.250  0.00  0.00    -0.177 NA
ATOM     15  C   UNL     1       6.516   0.293   7.007  0.00  0.00    +0.109 C 
ATOM     16  C   UNL     1       6.689   1.572   7.852  0.00  0.00    +0.018 C 
ATOM     17  C   UNL     1       5.615   1.405   8.959  0.00  0.00    +0.018 C 
ATOM     18  C   UNL     1       4.471   0.708   8.177  0.00  0.00    +0.109 C 
ENDBRANCH  11  14
ENDBRANCH   8  11
ENDBRANCH   3   5
BRANCH   1  20
ATOM     19  C   UNL     1      -0.197   1.519  -0.215  0.00  0.00    -0.004 C 
ATOM     20  C   UNL     1       0.001   0.009  -0.067  0.00  0.00    +0.016 C 
BRANCH  20  21
ATOM     21  N   UNL     1      -1.299  -0.667  -0.161  0.00  0.00    +0.388 N 
ATOM     22  C   UNL     1      -1.096  -2.120  -0.142  0.00  0.00    -0.078 C 
ATOM     23  C   UNL     1      -2.452  -2.829  -0.158  0.00  0.00    -0.018 C 
ATOM     24  C   UNL     1      -3.213  -2.435  -1.427  0.00  0.00    +0.008 C 
ATOM     25  C   UNL     1      -3.354  -0.911  -1.474  0.00  0.00    +0.077 C 
ATOM     26  C   UNL     1      -1.965  -0.273  -1.409  0.00  0.00    -0.066 C 
ATOM     27  H   UNL     1      -1.874  -0.399   0.624  0.00  0.00    -0.081 HD
BRANCH  25  28
ATOM     28  C   UNL     1      -4.045  -0.501  -2.776  0.00  0.00    +0.391 C 
ATOM     29  F   UNL     1      -5.314  -1.089  -2.835  0.00  0.00    -0.171 F 
ATOM     30  F   UNL     1      -4.174   0.891  -2.817  0.00  0.00    -0.171 F 
ATOM     31  F   UNL     1      -3.280  -0.932  -3.865  0.00  0.00    -0.171 F 
ENDBRANCH  25  28
ENDBRANCH  20  21
ENDBRANCH   1  20
TORSDOF 6
