REMARK  Name = ZINC20764204
REMARK  7 active torsions:
REMARK  status: ('A' for Active; 'I' for Inactive)
REMARK    1  A    between atoms: C_1  and  C_2
REMARK    2  A    between atoms: C_2  and  O_3
REMARK    3  A    between atoms: O_3  and  C_4
REMARK    4  A    between atoms: C_8  and  C_11
REMARK    5  A    between atoms: C_9  and  O_10
REMARK    6  A    between atoms: C_14  and  C_27
REMARK    7  A    between atoms: C_16  and  C_19
REMARK                            x       y       z     vdW  Elec       q    Type
REMARK                         _______ _______ _______ _____ _____    ______ ____
ROOT
ATOM      1  C   UNL     1       6.136  -0.772  -0.449  0.00  0.00    -0.028 C 
ATOM      2  C   UNL     1       4.962   0.124  -0.050  0.00  0.00    +0.044 C 
ATOM      3  C   UNL     1       3.693  -0.683  -0.036  0.00  0.00    +0.040 C 
ATOM      4  N   UNL     1       3.679  -1.962  -0.042  0.00  0.00    -0.299 NA
ATOM      5  C   UNL     1       4.876  -2.794  -0.067  0.00  0.00    +0.081 C 
ATOM      6  N   UNL     1       6.055  -2.017   0.335  0.00  0.00    +0.401 N 
ATOM      7  H   UNL     1       6.959  -2.619   0.161  0.00  0.00    -0.081 HD
ATOM      8  H   UNL     1       5.978  -1.772   1.405  0.00  0.00    -0.081 HD
ENDROOT
BRANCH   5   9
ATOM      9  C   UNL     1       5.083  -3.324  -1.462  0.00  0.00    -0.039 A 
ATOM     10  C   UNL     1       6.362  -3.580  -1.921  0.00  0.00    +0.006 A 
ATOM     11  C   UNL     1       6.552  -4.072  -3.198  0.00  0.00    +0.040 A 
ATOM     12  C   UNL     1       5.463  -4.298  -4.023  0.00  0.00    +0.137 A 
ATOM     13  C   UNL     1       4.183  -4.036  -3.564  0.00  0.00    +0.053 A 
ATOM     14  C   UNL     1       3.994  -3.549  -2.283  0.00  0.00    +0.022 A 
ATOM     15 BR   UNL     1       2.693  -4.344  -4.688  0.00  0.00    -0.047 Br
ATOM     16  F   UNL     1       5.649  -4.774  -5.274  0.00  0.00    -0.204 F 
ENDBRANCH   5   9
BRANCH   3  17
ATOM     17  C   UNL     1       2.404   0.035  -0.020  0.00  0.00    -0.004 A 
ATOM     18  C   UNL     1       1.204  -0.680  -0.013  0.00  0.00    +0.011 A 
ATOM     19  C   UNL     1       0.002  -0.004   0.002  0.00  0.00    +0.020 A 
ATOM     20  C   UNL     1      -0.017   1.381   0.010  0.00  0.00    +0.041 A 
ATOM     21  C   UNL     1       1.170   2.095   0.002  0.00  0.00    +0.020 A 
ATOM     22  C   UNL     1       2.378   1.431  -0.013  0.00  0.00    +0.011 A 
ATOM     23 CL   UNL     1      -1.534   2.225   0.021  0.00  0.00    -0.084 Cl
ENDBRANCH   3  17
BRANCH   1  28
ATOM     24  C   UNL     1       9.133   1.516  -0.774  0.00  0.00    +0.162 A 
ATOM     25  C   UNL     1       9.831   1.215   0.385  0.00  0.00    +0.049 A 
ATOM     26  C   UNL     1       9.333   0.275   1.267  0.00  0.00    +0.004 A 
ATOM     27  C   UNL     1       8.138  -0.367   0.997  0.00  0.00    +0.006 A 
ATOM     28  C   UNL     1       7.437  -0.071  -0.157  0.00  0.00    -0.016 A 
ATOM     29  C   UNL     1       7.934   0.866  -1.049  0.00  0.00    +0.160 A 
BRANCH  29  30
ATOM     30  O   UNL     1       7.248   1.155  -2.187  0.00  0.00    -0.503 OA
ATOM     31  H   UNL     1       6.300   0.641  -2.403  0.00  0.00    +0.292 HD
ENDBRANCH  29  30
BRANCH  24  32
ATOM     32  O   UNL     1       9.622   2.441  -1.643  0.00  0.00    -0.489 OA
BRANCH  32  34
ATOM     33  C   UNL     1      11.248   4.067  -2.387  0.00  0.00    +0.048 C 
ATOM     34  C   UNL     1      10.861   3.064  -1.298  0.00  0.00    +0.226 C 
ENDBRANCH  32  34
ENDBRANCH  24  32
ENDBRANCH   1  28
TORSDOF 6
