REMARK  Name = ZINC39527842
REMARK  6 active torsions:
REMARK  status: ('A' for Active; 'I' for Inactive)
REMARK    1  A    between atoms: C_1  and  C_2
REMARK    2  A    between atoms: C_2  and  C_3
REMARK    3  A    between atoms: C_2  and  S_4
REMARK    4  A    between atoms: S_4  and  N_7
REMARK    5  A    between atoms: C_17  and  C_20
REMARK    6  A    between atoms: C_25  and  O_26
REMARK                            x       y       z     vdW  Elec       q    Type
REMARK                         _______ _______ _______ _____ _____    ______ ____
ROOT
ATOM      1  N   UNL     1       0.126  -0.178   2.733  0.00  0.00    -0.142 NA
ATOM      2  C   UNL     1       0.265   1.172   3.296  0.00  0.00    +0.257 C 
ATOM      3  C   UNL     1      -1.124   1.812   3.388  0.00  0.00    +0.055 C 
ATOM      4  C   UNL     1      -2.054   0.893   4.183  0.00  0.00    +0.006 C 
ATOM      5  C   UNL     1      -2.188  -0.449   3.460  0.00  0.00    +0.024 C 
ATOM      6  C   UNL     1      -0.817  -1.111   3.362  0.00  0.00    +0.046 C 
ATOM      7  C   UNL     1      -0.920  -2.380   2.516  0.00  0.00    +0.024 C 
ATOM      8  C   UNL     1       0.456  -3.042   2.420  0.00  0.00    +0.002 C 
ATOM      9  C   UNL     1       0.950  -3.401   3.823  0.00  0.00    +0.008 C 
ATOM     10  C   UNL     1       1.054  -2.129   4.667  0.00  0.00    +0.024 C 
ATOM     11  C   UNL     1      -0.322  -1.467   4.765  0.00  0.00    +0.032 C 
ATOM     12  F   UNL     1       1.086   1.944   2.467  0.00  0.00    -0.227 F 
ENDROOT
BRANCH  10  13
ATOM     13  C   UNL     1       1.541  -2.482   6.049  0.00  0.00    -0.003 A 
ATOM     14  C   UNL     1       0.812  -3.353   6.837  0.00  0.00    +0.007 A 
ATOM     15  C   UNL     1       1.258  -3.677   8.105  0.00  0.00    +0.001 A 
ATOM     16  C   UNL     1       2.433  -3.131   8.588  0.00  0.00    +0.004 A 
ATOM     17  C   UNL     1       3.165  -2.261   7.804  0.00  0.00    +0.046 A 
ATOM     18  C   UNL     1       2.723  -1.938   6.529  0.00  0.00    +0.120 A 
BRANCH  18  19
ATOM     19  O   UNL     1       3.444  -1.087   5.753  0.00  0.00    -0.506 OA
ATOM     20  H   UNL     1       3.203  -0.156   5.862  0.00  0.00    +0.292 HD
ENDBRANCH  18  19
ENDBRANCH  10  13
BRANCH   1  21
ATOM     21  S   UNL     1       1.012  -0.636   1.411  0.00  0.00    +0.037 S 
ATOM     22  O   UNL     1       0.251  -1.673   0.806  0.00  0.00    -0.158 OA
ATOM     23  O   UNL     1       2.314  -0.895   1.919  0.00  0.00    -0.158 OA
BRANCH  21  25
ATOM     24  C   UNL     1       1.670   0.461  -1.007  0.00  0.00    +0.033 C 
ATOM     25  C   UNL     1       1.039   0.826   0.338  0.00  0.00    +0.142 C 
ATOM     26  C   UNL     1      -0.391   1.320   0.113  0.00  0.00    +0.033 C 
ENDBRANCH  21  25
ENDBRANCH   1  21
TORSDOF 4
