REMARK  Name = ZINC13223115
REMARK  10 active torsions:
REMARK  status: ('A' for Active; 'I' for Inactive)
REMARK    1  A    between atoms: C_1  and  C_2
REMARK    2  A    between atoms: C_4  and  C_17
REMARK    3  A    between atoms: C_5  and  C_16
REMARK    4  A    between atoms: N_6  and  N_7
REMARK    5  A    between atoms: C_8  and  C_10
REMARK    6  A    between atoms: C_17  and  C_19
REMARK    7  A    between atoms: C_19  and  S_20
REMARK    8  A    between atoms: S_20  and  C_21
REMARK    9  A    between atoms: N_31  and  C_32
REMARK   10  A    between atoms: C_32  and  C_33
REMARK                            x       y       z     vdW  Elec       q    Type
REMARK                         _______ _______ _______ _____ _____    ______ ____
ROOT
ATOM      1  C   UNL     1       2.779   5.731   2.471  0.00  0.00    +0.175 C 
ATOM      2  O   UNL     1       3.869   5.280   2.188  0.00  0.00    -0.291 OA
ENDROOT
BRANCH   1   6
ATOM      3  C   UNL     1       0.785  10.258   3.693  0.00  0.00    +0.065 C 
ATOM      4  C   UNL     1       1.733   9.151   3.311  0.00  0.00    +0.037 A 
ATOM      5  C   UNL     1       1.393   7.865   3.122  0.00  0.00    +0.036 A 
ATOM      6  C   UNL     1       2.632   7.157   2.769  0.00  0.00    +0.041 A 
ATOM      7  C   UNL     1       3.628   8.115   2.771  0.00  0.00    +0.047 A 
ATOM      8  N   UNL     1       3.073   9.296   3.096  0.00  0.00    -0.267 N 
ATOM      9  C   UNL     1       5.084   7.877   2.462  0.00  0.00    +0.066 C 
BRANCH   8  10
ATOM     10  N   UNL     1       3.772  10.506   3.200  0.00  0.00    -0.219 N 
ATOM     11  C   UNL     1       4.408  11.011   2.124  0.00  0.00    +0.262 C 
ATOM     12  O   UNL     1       4.444  10.379   1.087  0.00  0.00    -0.268 OA
ATOM     13  H   UNL     1       3.799  10.980   4.046  0.00  0.00    +0.176 HD
BRANCH  11  14
ATOM     14  C   UNL     1       5.062  12.335   2.206  0.00  0.00    +0.038 A 
ATOM     15  C   UNL     1       5.018  13.066   3.394  0.00  0.00    +0.013 A 
ATOM     16  C   UNL     1       5.636  14.297   3.466  0.00  0.00    +0.001 A 
ATOM     17  C   UNL     1       6.287  14.813   2.360  0.00  0.00    +0.000 A 
ATOM     18  C   UNL     1       6.329  14.097   1.177  0.00  0.00    +0.001 A 
ATOM     19  C   UNL     1       5.721  12.861   1.094  0.00  0.00    +0.013 A 
ENDBRANCH  11  14
ENDBRANCH   8  10
ENDBRANCH   1   6
BRANCH   1  20
ATOM     20  C   UNL     1       1.577   4.823   2.517  0.00  0.00    +0.157 C 
BRANCH  20  21
ATOM     21  S   UNL     1       2.080   3.134   2.104  0.00  0.00    -0.080 S 
BRANCH  21  22
ATOM     22  C   UNL     1       0.526   2.313   2.230  0.00  0.00    +0.173 A 
ATOM     23  N   UNL     1      -0.530   3.020   2.550  0.00  0.00    -0.223 NA
ATOM     24  C   UNL     1      -1.748   2.455   2.668  0.00  0.00    +0.079 A 
ATOM     25  C   UNL     1      -2.874   3.208   3.016  0.00  0.00    +0.028 A 
ATOM     26  C   UNL     1      -4.090   2.595   3.126  0.00  0.00    +0.002 A 
ATOM     27  C   UNL     1      -4.227   1.232   2.897  0.00  0.00    +0.001 A 
ATOM     28  C   UNL     1      -3.144   0.469   2.555  0.00  0.00    +0.015 A 
ATOM     29  C   UNL     1      -1.891   1.069   2.436  0.00  0.00    +0.065 A 
ATOM     30  C   UNL     1      -0.694   0.299   2.073  0.00  0.00    +0.263 A 
ATOM     31  O   UNL     1      -0.753  -0.898   1.861  0.00  0.00    -0.267 OA
ATOM     32  N   UNL     1       0.478   0.971   1.983  0.00  0.00    -0.276 N 
BRANCH  32  33
ATOM     33  C   UNL     1       1.703   0.252   1.625  0.00  0.00    +0.252 C 
BRANCH  33  34
ATOM     34  C   UNL     1       1.871   0.261   0.128  0.00  0.00    +0.375 C 
ATOM     35  O   UNL     1       1.052   0.811  -0.569  0.00  0.00    -0.244 OA
ATOM     36  O   UNL     1       2.932  -0.342  -0.432  0.00  0.00    -0.244 OA
ENDBRANCH  33  34
ENDBRANCH  32  33
ENDBRANCH  21  22
ENDBRANCH  20  21
ENDBRANCH   1  20
TORSDOF 8
