REMARK  Name = ZINC39686753
REMARK  10 active torsions:
REMARK  status: ('A' for Active; 'I' for Inactive)
REMARK    1  A    between atoms: C_1  and  C_2
REMARK    2  A    between atoms: C_5  and  C_8
REMARK    3  A    between atoms: C_8  and  C_9
REMARK    4  A    between atoms: C_13  and  C_22
REMARK    5  A    between atoms: N_24  and  C_25
REMARK    6  A    between atoms: C_25  and  C_27
REMARK    7  A    between atoms: C_25  and  C_28
REMARK    8  A    between atoms: C_28  and  C_29
REMARK    9  A    between atoms: C_34  and  O_35
REMARK   10  A    between atoms: O_35  and  C_36
REMARK                            x       y       z     vdW  Elec       q    Type
REMARK                         _______ _______ _______ _____ _____    ______ ____
ROOT
ATOM      1  C   UNL     1      -0.288  -5.123  -0.221  0.00  0.00    +0.220 C 
ATOM      2  O   UNL     1       0.297  -4.063  -0.150  0.00  0.00    -0.275 OA
ATOM      3  N   UNL     1       0.409  -6.277  -0.241  0.00  0.00    -0.300 N 
ATOM      4  C   UNL     1      -0.123  -7.658  -0.330  0.00  0.00    +0.121 C 
ATOM      5  C   UNL     1       0.861  -8.395  -1.266  0.00  0.00    +0.100 C 
ATOM      6  C   UNL     1       2.174  -7.600  -1.161  0.00  0.00    -0.004 C 
ATOM      7  C   UNL     1       1.880  -6.452  -0.184  0.00  0.00    +0.115 C 
ATOM      8  C   UNL     1       2.563  -7.038  -2.525  0.00  0.00    -0.010 C 
ATOM      9  C   UNL     1       3.899  -6.301  -2.405  0.00  0.00    -0.082 C 
ATOM     10  N   UNL     1       4.930  -7.228  -1.923  0.00  0.00    +0.379 N 
ATOM     11  C   UNL     1       4.594  -7.692  -0.572  0.00  0.00    -0.082 C 
ATOM     12  C   UNL     1       3.287  -8.488  -0.613  0.00  0.00    -0.010 C 
ATOM     13  H   UNL     1       4.986  -8.021  -2.545  0.00  0.00    -0.086 HD
ATOM     14  H   UNL     1       5.822  -6.756  -1.903  0.00  0.00    -0.086 HD
ENDROOT
BRANCH   5  15
ATOM     15  C   UNL     1       0.349  -8.380  -2.683  0.00  0.00    +0.218 C 
ATOM     16  O   UNL     1      -0.242  -7.408  -3.104  0.00  0.00    -0.275 OA
ATOM     17  N   UNL     1       0.546  -9.447  -3.483  0.00  0.00    -0.312 N 
ATOM     18  H   UNL     1       0.954 -10.251  -3.126  0.00  0.00    +0.149 HD
BRANCH  17  19
ATOM     19  C   UNL     1       0.146  -9.391  -4.891  0.00  0.00    +0.074 C 
ATOM     20  C   UNL     1      -1.349  -9.696  -5.009  0.00  0.00    +0.028 C 
BRANCH  19  21
ATOM     21  C   UNL     1       0.942 -10.426  -5.689  0.00  0.00    +0.060 C 
BRANCH  21  22
ATOM     22  C   UNL     1       2.402 -10.050  -5.683  0.00  0.00    -0.004 A 
ATOM     23  C   UNL     1       2.914  -9.248  -6.684  0.00  0.00    +0.007 A 
ATOM     24  C   UNL     1       4.252  -8.903  -6.679  0.00  0.00    +0.000 A 
ATOM     25  C   UNL     1       5.083  -9.360  -5.672  0.00  0.00    +0.004 A 
ATOM     26  C   UNL     1       4.576 -10.162  -4.668  0.00  0.00    +0.046 A 
ATOM     27  C   UNL     1       3.231 -10.505  -4.668  0.00  0.00    +0.123 A 
BRANCH  27  28
ATOM     28  O   UNL     1       2.729 -11.290  -3.679  0.00  0.00    -0.495 OA
ATOM     29  C   UNL     1       3.657 -11.790  -2.713  0.00  0.00    +0.277 C 
ENDBRANCH  27  28
ENDBRANCH  21  22
ENDBRANCH  19  21
ENDBRANCH  17  19
ENDBRANCH   5  15
BRANCH   1  30
ATOM     30  C   UNL     1      -1.793  -5.151  -0.288  0.00  0.00    +0.131 C 
BRANCH  30  35
ATOM     31  C   UNL     1      -3.829   0.255  -0.142  0.00  0.00    +0.044 C 
ATOM     32  C   UNL     1      -3.298  -1.154  -0.180  0.00  0.00    -0.050 A 
ATOM     33  C   UNL     1      -3.002  -1.749  -1.392  0.00  0.00    +0.003 A 
ATOM     34  C   UNL     1      -2.514  -3.042  -1.427  0.00  0.00    +0.004 A 
ATOM     35  C   UNL     1      -2.323  -3.741  -0.250  0.00  0.00    -0.039 A 
ATOM     36  C   UNL     1      -2.619  -3.146   0.963  0.00  0.00    +0.004 A 
ATOM     37  C   UNL     1      -3.102  -1.851   0.998  0.00  0.00    +0.003 A 
ENDBRANCH  30  35
ENDBRANCH   1  30
TORSDOF 7
