REMARK  Name = ZINC05778623
REMARK  7 active torsions:
REMARK  status: ('A' for Active; 'I' for Inactive)
REMARK    1  A    between atoms: C_1  and  C_2
REMARK    2  A    between atoms: C_5  and  C_9
REMARK    3  A    between atoms: C_7  and  C_8
REMARK    4  A    between atoms: C_9  and  O_11
REMARK    5  A    between atoms: O_11  and  C_12
REMARK    6  A    between atoms: C_12  and  C_13
REMARK    7  A    between atoms: N_15  and  C_16
REMARK                            x       y       z     vdW  Elec       q    Type
REMARK                         _______ _______ _______ _____ _____    ______ ____
ROOT
ATOM      1  C   UNL     1       3.590   6.110   0.676  0.00  0.00    +0.255 C 
ATOM      2  O   UNL     1       4.634   5.553   0.413  0.00  0.00    -0.272 OA
ATOM      3  N   UNL     1       2.426   5.437   0.586  0.00  0.00    -0.282 N 
ATOM      4  H   UNL     1       1.586   5.900   0.732  0.00  0.00    +0.155 HD
ENDROOT
BRANCH   3   5
ATOM      5  C   UNL     1       2.429   4.080   0.285  0.00  0.00    +0.045 A 
ATOM      6  C   UNL     1       3.382   3.557  -0.589  0.00  0.00    +0.024 A 
ATOM      7  C   UNL     1       3.389   2.212  -0.891  0.00  0.00    +0.003 A 
ATOM      8  C   UNL     1       2.449   1.358  -0.332  0.00  0.00    +0.012 A 
ATOM      9  C   UNL     1       1.491   1.857   0.542  0.00  0.00    +0.035 A 
ATOM     10  C   UNL     1       1.476   3.230   0.856  0.00  0.00    +0.054 A 
ATOM     11  C   UNL     1       0.457   3.759   1.781  0.00  0.00    +0.196 C 
ATOM     12  O   UNL     1       0.575   4.872   2.255  0.00  0.00    -0.287 OA
ATOM     13  C   UNL     1      -0.711   2.918   2.127  0.00  0.00    +0.033 A 
ATOM     14  C   UNL     1      -1.820   3.472   2.756  0.00  0.00    +0.012 A 
ATOM     15  C   UNL     1      -2.914   2.671   3.054  0.00  0.00    +0.001 A 
ATOM     16  C   UNL     1      -2.900   1.322   2.747  0.00  0.00    +0.001 A 
ATOM     17  C   UNL     1      -1.801   0.755   2.127  0.00  0.00    +0.012 A 
ATOM     18  C   UNL     1      -0.701   1.546   1.809  0.00  0.00    +0.033 A 
ATOM     19  C   UNL     1       0.483   0.958   1.145  0.00  0.00    +0.195 C 
ATOM     20  O   UNL     1       0.623  -0.247   1.092  0.00  0.00    -0.287 OA
ENDBRANCH   3   5
BRANCH   1  21
ATOM     21  C   UNL     1       3.594   7.555   1.105  0.00  0.00    +0.328 C 
BRANCH  21  22
ATOM     22  O   UNL     1       4.958   8.051   1.124  0.00  0.00    -0.452 OA
BRANCH  22  23
ATOM     23  C   UNL     1       5.138   9.335   1.488  0.00  0.00    +0.340 C 
ATOM     24  O   UNL     1       4.180  10.022   1.782  0.00  0.00    -0.245 OA
BRANCH  23  29
ATOM     25  C   UNL     1      10.438  11.567   1.650  0.00  0.00    +0.044 C 
ATOM     26  C   UNL     1       9.050  10.982   1.608  0.00  0.00    -0.047 A 
ATOM     27  C   UNL     1       8.870   9.662   1.234  0.00  0.00    +0.004 A 
ATOM     28  C   UNL     1       7.602   9.119   1.198  0.00  0.00    +0.015 A 
ATOM     29  C   UNL     1       6.499   9.908   1.530  0.00  0.00    +0.059 A 
ATOM     30  C   UNL     1       6.688  11.239   1.907  0.00  0.00    +0.018 A 
ATOM     31  C   UNL     1       7.962  11.767   1.944  0.00  0.00    -0.047 A 
ATOM     32  C   UNL     1       8.168  13.204   2.351  0.00  0.00    +0.044 C 
ENDBRANCH  23  29
ENDBRANCH  22  23
ENDBRANCH  21  22
ENDBRANCH   1  21
TORSDOF 5
