REMARK  Name = ZINC50227382
REMARK  5 active torsions:
REMARK  status: ('A' for Active; 'I' for Inactive)
REMARK    1  A    between atoms: C_1  and  S_2
REMARK    2  A    between atoms: S_2  and  C_5
REMARK    3  A    between atoms: C_13  and  C_15
REMARK    4  A    between atoms: C_18  and  N_22
REMARK    5  A    between atoms: C_19  and  O_21
REMARK                            x       y       z     vdW  Elec       q    Type
REMARK                         _______ _______ _______ _____ _____    ______ ____
ROOT
ATOM      1  C   UNL     1       0.845  -0.437  -1.483  0.00  0.00    +0.090 A 
ATOM      2  C   UNL     1       0.127  -0.612  -2.658  0.00  0.00    +0.029 A 
ATOM      3  C   UNL     1       0.762  -0.948  -3.819  0.00  0.00    +0.032 A 
ATOM      4  C   UNL     1       2.150  -1.118  -3.831  0.00  0.00    +0.090 A 
ATOM      5  C   UNL     1       2.878  -0.941  -2.641  0.00  0.00    +0.068 A 
ATOM      6  C   UNL     1       2.216  -0.595  -1.472  0.00  0.00    +0.054 A 
ATOM      7  N   UNL     1       4.202  -1.172  -2.960  0.00  0.00    -0.338 N 
ATOM      8  H   UNL     1       4.957  -1.128  -2.353  0.00  0.00    +0.167 HD
ATOM      9  C   UNL     1       4.250  -1.475  -4.295  0.00  0.00    +0.139 A 
ATOM     10  N   UNL     1       3.041  -1.441  -4.801  0.00  0.00    -0.228 NA
ENDROOT
BRANCH   9  11
ATOM     11  C   UNL     1       5.479  -1.791  -5.051  0.00  0.00    +0.021 A 
ATOM     12  C   UNL     1       6.716  -1.801  -4.403  0.00  0.00    +0.013 A 
ATOM     13  C   UNL     1       7.862  -2.096  -5.110  0.00  0.00    +0.027 A 
ATOM     14  C   UNL     1       7.790  -2.384  -6.467  0.00  0.00    +0.067 A 
ATOM     15  C   UNL     1       6.557  -2.375  -7.120  0.00  0.00    +0.138 A 
ATOM     16  C   UNL     1       5.405  -2.086  -6.415  0.00  0.00    +0.058 A 
BRANCH  14  17
ATOM     17  N   UNL     1       8.954  -2.682  -7.179  0.00  0.00    -0.355 N 
ATOM     18  H   UNL     1       9.811  -2.688  -6.726  0.00  0.00    +0.142 HD
ATOM     19  H   UNL     1       8.904  -2.883  -8.126  0.00  0.00    +0.142 HD
ENDBRANCH  14  17
BRANCH  15  20
ATOM     20  O   UNL     1       6.489  -2.657  -8.448  0.00  0.00    -0.505 OA
ATOM     21  H   UNL     1       6.364  -3.595  -8.646  0.00  0.00    +0.292 HD
ENDBRANCH  15  20
ENDBRANCH   9  11
BRANCH   1  23
ATOM     22  C   UNL     1      -0.022   1.810   0.012  0.00  0.00    +0.200 C 
ATOM     23  S   UNL     1       0.002  -0.004   0.002  0.00  0.00    -0.006 S 
ATOM     24  O   UNL     1       0.835  -0.488   1.046  0.00  0.00    -0.170 OA
ATOM     25  O   UNL     1      -1.315  -0.510  -0.168  0.00  0.00    -0.170 OA
ENDBRANCH   1  23
TORSDOF 4
