REMARK  Name = ZINC14547854
REMARK  4 active torsions:
REMARK  status: ('A' for Active; 'I' for Inactive)
REMARK    1  A    between atoms: C_1  and  C_2
REMARK    2  A    between atoms: C_5  and  C_29
REMARK    3  A    between atoms: C_15  and  C_18
REMARK    4  A    between atoms: C_27  and  O_28
REMARK                            x       y       z     vdW  Elec       q    Type
REMARK                         _______ _______ _______ _____ _____    ______ ____
ROOT
ATOM      1  C   UNL     1      -1.303  -0.801   0.001  0.00  0.00    +0.044 C 
ATOM      2  C   UNL     1      -0.012  -0.025   0.013  0.00  0.00    -0.045 A 
ATOM      3  C   UNL     1      -0.028   1.337  -0.227  0.00  0.00    +0.004 A 
ATOM      4  C   UNL     1       1.159   2.046  -0.220  0.00  0.00    +0.005 A 
ATOM      5  C   UNL     1       2.350   1.402   0.031  0.00  0.00    -0.029 A 
ATOM      6  C   UNL     1       2.382   0.030   0.284  0.00  0.00    +0.035 A 
ATOM      7  C   UNL     1       1.176  -0.677   0.263  0.00  0.00    -0.016 A 
ATOM      8  C   UNL     1       1.228  -2.136   0.502  0.00  0.00    +0.049 C 
ATOM      9  C   UNL     1       0.110  -2.884   1.130  0.00  0.00    -0.023 C 
ATOM     10  C   UNL     1       0.600  -3.898   1.814  0.00  0.00    -0.030 C 
ATOM     11  C   UNL     1       2.129  -3.872   1.754  0.00  0.00    +0.033 C 
ATOM     12  C   UNL     1       2.399  -2.384   1.503  0.00  0.00    +0.029 C 
ATOM     13  C   UNL     1       3.647  -2.008   0.731  0.00  0.00    +0.109 C 
ATOM     14  N   UNL     1       3.621  -0.547   0.554  0.00  0.00    -0.336 N 
ATOM     15  C   UNL     1       3.636   2.189   0.033  0.00  0.00    +0.045 C 
ATOM     16  H   UNL     1       4.077  -0.081   1.324  0.00  0.00    +0.147 HD
ENDROOT
BRANCH  13  17
ATOM     17  C   UNL     1       4.873  -2.409   1.510  0.00  0.00    +0.022 A 
ATOM     18  C   UNL     1       5.666  -3.483   1.074  0.00  0.00    -0.009 A 
ATOM     19  C   UNL     1       5.347  -4.199  -0.093  0.00  0.00    +0.009 A 
ATOM     20  C   UNL     1       6.142  -5.230  -0.489  0.00  0.00    +0.001 A 
ATOM     21  C   UNL     1       7.272  -5.588   0.244  0.00  0.00    +0.001 A 
ATOM     22  C   UNL     1       7.614  -4.915   1.377  0.00  0.00    +0.008 A 
ATOM     23  C   UNL     1       6.819  -3.844   1.817  0.00  0.00    -0.017 A 
ATOM     24  C   UNL     1       7.142  -3.127   2.982  0.00  0.00    +0.012 A 
ATOM     25  C   UNL     1       6.351  -2.095   3.380  0.00  0.00    +0.046 A 
ATOM     26  C   UNL     1       5.216  -1.734   2.647  0.00  0.00    +0.122 A 
BRANCH  26  27
ATOM     27  O   UNL     1       4.446  -0.698   3.070  0.00  0.00    -0.506 OA
ATOM     28  H   UNL     1       3.734  -0.957   3.671  0.00  0.00    +0.292 HD
ENDBRANCH  26  27
ENDBRANCH  13  17
TORSDOF 2
