REMARK  Name = ZINC47905360
REMARK  11 active torsions:
REMARK  status: ('A' for Active; 'I' for Inactive)
REMARK    1  A    between atoms: C_1  and  C_2
REMARK    2  A    between atoms: C_3  and  C_16
REMARK    3  A    between atoms: C_4  and  C_15
REMARK    4  A    between atoms: C_9  and  C_11
REMARK    5  A    between atoms: C_16  and  C_17
REMARK    6  A    between atoms: C_17  and  C_18
REMARK    7  A    between atoms: N_20  and  C_21
REMARK    8  A    between atoms: C_21  and  C_22
REMARK    9  A    between atoms: C_22  and  C_24
REMARK   10  A    between atoms: C_22  and  C_25
REMARK   11  A    between atoms: C_25  and  N_26
REMARK                            x       y       z     vdW  Elec       q    Type
REMARK                         _______ _______ _______ _____ _____    ______ ____
ROOT
ATOM      1  C   UNL     1      -2.499  -0.569   0.571  0.00  0.00    +0.048 C 
ENDROOT
BRANCH   1   4
ATOM      2  C   UNL     1       0.035   0.862   0.443  0.00  0.00    +0.066 C 
ATOM      3  C   UNL     1       0.023  -0.634   0.622  0.00  0.00    +0.047 A 
ATOM      4  C   UNL     1      -1.197  -1.319   0.682  0.00  0.00    -0.005 A 
ATOM      5  C   UNL     1      -1.193  -2.667   0.843  0.00  0.00    +0.048 A 
ATOM      6  N   UNL     1      -0.002  -3.317   0.941  0.00  0.00    -0.200 N 
ATOM      7  C   UNL     1       1.171  -2.618   0.878  0.00  0.00    +0.254 A 
ATOM      8  N   UNL     1       1.157  -1.290   0.715  0.00  0.00    -0.216 NA
ATOM      9  N   UNL     1       2.159  -3.498   1.000  0.00  0.00    -0.186 NA
ATOM     10  C   UNL     1       1.658  -4.718   1.137  0.00  0.00    +0.257 A 
ATOM     11  N   UNL     1       0.348  -4.663   1.107  0.00  0.00    -0.139 NA
ATOM     12  C   UNL     1      -2.489  -3.433   0.912  0.00  0.00    +0.066 C 
BRANCH  10  13
ATOM     13  C   UNL     1       2.471  -5.977   1.300  0.00  0.00    +0.454 C 
ATOM     14  F   UNL     1       3.789  -5.641   1.627  0.00  0.00    -0.163 F 
ATOM     15  F   UNL     1       1.921  -6.757   2.323  0.00  0.00    -0.163 F 
ATOM     16  F   UNL     1       2.457  -6.700   0.103  0.00  0.00    -0.163 F 
ENDBRANCH  10  13
ENDBRANCH   1   4
BRANCH   1  17
ATOM     17  C   UNL     1      -2.901  -0.037   1.948  0.00  0.00    +0.100 C 
BRANCH  17  18
ATOM     18  C   UNL     1      -4.202   0.714   1.836  0.00  0.00    +0.213 C 
ATOM     19  O   UNL     1      -4.755   0.814   0.761  0.00  0.00    -0.276 OA
ATOM     20  N   UNL     1      -4.753   1.274   2.932  0.00  0.00    -0.315 N 
ATOM     21  H   UNL     1      -4.312   1.194   3.791  0.00  0.00    +0.149 HD
BRANCH  20  22
ATOM     22  C   UNL     1      -6.019   2.003   2.823  0.00  0.00    +0.105 C 
BRANCH  22  23
ATOM     23  C   UNL     1      -6.421   2.535   4.200  0.00  0.00    -0.014 C 
ATOM     24  C   UNL     1      -5.395   3.570   4.667  0.00  0.00    +0.007 C 
BRANCH  23  25
ATOM     25  C   UNL     1      -7.801   3.189   4.112  0.00  0.00    -0.074 C 
BRANCH  25  26
ATOM     26  N   UNL     1      -8.808   2.166   3.795  0.00  0.00    +0.380 N 
ATOM     27  C   UNL     1      -8.984   1.247   4.948  0.00  0.00    -0.079 C 
ATOM     28  C   UNL     1     -10.389   0.639   4.705  0.00  0.00    -0.020 C 
ATOM     29  C   UNL     1     -11.188   1.833   4.136  0.00  0.00    -0.020 C 
ATOM     30  C   UNL     1     -10.127   2.799   3.578  0.00  0.00    -0.079 C 
ATOM     31  H   UNL     1      -8.531   1.648   2.974  0.00  0.00    -0.082 HD
ENDBRANCH  25  26
ENDBRANCH  23  25
ENDBRANCH  22  23
ENDBRANCH  20  22
ENDBRANCH  17  18
ENDBRANCH   1  17
TORSDOF 8
