REMARK  Name = ZINC08306667
REMARK  8 active torsions:
REMARK  status: ('A' for Active; 'I' for Inactive)
REMARK    1  A    between atoms: C_1  and  C_2
REMARK    2  A    between atoms: C_5  and  N_9
REMARK    3  A    between atoms: C_7  and  C_8
REMARK    4  A    between atoms: C_10  and  C_12
REMARK    5  A    between atoms: C_12  and  C_13
REMARK    6  A    between atoms: N_17  and  C_29
REMARK    7  A    between atoms: N_19  and  C_20
REMARK    8  A    between atoms: C_25  and  C_26
REMARK                            x       y       z     vdW  Elec       q    Type
REMARK                         _______ _______ _______ _____ _____    ______ ____
ROOT
ATOM      1  C   UNL     1      -0.248  -6.860  -2.620  0.00  0.00    +0.149 C 
ATOM      2  C   UNL     1      -0.363  -8.375  -2.685  0.00  0.00    +0.235 C 
ATOM      3  O   UNL     1      -1.302  -8.971  -2.202  0.00  0.00    -0.274 OA
ATOM      4  N   UNL     1       0.625  -9.001  -3.302  0.00  0.00    -0.253 N 
ATOM      5  C   UNL     1       1.696  -8.331  -3.854  0.00  0.00    +0.164 C 
ATOM      6  N   UNL     1       2.729  -8.836  -4.487  0.00  0.00    -0.225 NA
ATOM      7  S   UNL     1       1.346  -6.612  -3.508  0.00  0.00    -0.077 S 
ATOM      8  C   UNL     1       0.580 -10.462  -3.401  0.00  0.00    +0.140 C 
ENDROOT
BRANCH   6   9
ATOM      9  C   UNL     1       2.886 -10.194  -4.566  0.00  0.00    +0.071 A 
ATOM     10  C   UNL     1       2.423 -10.890  -5.684  0.00  0.00    +0.048 A 
ATOM     11  C   UNL     1       2.586 -12.259  -5.756  0.00  0.00    +0.043 A 
ATOM     12  C   UNL     1       3.206 -12.941  -4.723  0.00  0.00    +0.020 A 
ATOM     13  C   UNL     1       3.667 -12.257  -3.613  0.00  0.00    +0.007 A 
ATOM     14  C   UNL     1       3.517 -10.887  -3.531  0.00  0.00    -0.025 A 
ATOM     15  C   UNL     1       4.026 -10.143  -2.323  0.00  0.00    +0.046 C 
ATOM     16 CL   UNL     1       2.010 -13.128  -7.145  0.00  0.00    -0.083 Cl
ENDBRANCH   6   9
BRANCH   1  17
ATOM     17  C   UNL     1      -0.158  -6.372  -1.173  0.00  0.00    +0.120 C 
BRANCH  17  19
ATOM     18  N   UNL     1       0.013  -4.213   0.021  0.00  0.00    -0.285 N 
ATOM     19  C   UNL     1      -0.074  -4.868  -1.154  0.00  0.00    +0.219 C 
ATOM     20  O   UNL     1      -0.085  -4.247  -2.196  0.00  0.00    -0.275 OA
ATOM     21  H   UNL     1       0.107  -4.710   0.848  0.00  0.00    +0.155 HD
BRANCH  18  26
ATOM     22  C   UNL     1      -0.176   1.456   0.127  0.00  0.00    +0.044 C 
ATOM     23  C   UNL     1      -0.126  -0.050   0.099  0.00  0.00    -0.047 A 
ATOM     24  C   UNL     1      -0.727  -0.741  -0.938  0.00  0.00    +0.005 A 
ATOM     25  C   UNL     1      -0.683  -2.120  -0.966  0.00  0.00    +0.023 A 
ATOM     26  C   UNL     1      -0.034  -2.814   0.047  0.00  0.00    +0.034 A 
ATOM     27  C   UNL     1       0.569  -2.117   1.085  0.00  0.00    +0.027 A 
ATOM     28  C   UNL     1       0.526  -0.737   1.106  0.00  0.00    -0.046 A 
ATOM     29  C   UNL     1       1.184   0.020   2.230  0.00  0.00    +0.044 C 
ENDBRANCH  18  26
ENDBRANCH  17  19
ENDBRANCH   1  17
TORSDOF 4
