REMARK  Name = ZINC60015910
REMARK  11 active torsions:
REMARK  status: ('A' for Active; 'I' for Inactive)
REMARK    1  A    between atoms: C_1  and  C_2
REMARK    2  A    between atoms: C_5  and  C_34
REMARK    3  A    between atoms: N_8  and  C_10
REMARK    4  A    between atoms: C_10  and  C_11
REMARK    5  A    between atoms: C_11  and  C_13
REMARK    6  A    between atoms: C_11  and  N_14
REMARK    7  A    between atoms: C_15  and  C_17
REMARK    8  A    between atoms: C_17  and  C_18
REMARK    9  A    between atoms: C_18  and  N_19
REMARK   10  A    between atoms: N_19  and  S_20
REMARK   11  A    between atoms: S_20  and  C_23
REMARK                            x       y       z     vdW  Elec       q    Type
REMARK                         _______ _______ _______ _____ _____    ______ ____
ROOT
ATOM      1  C   UNL     1       5.072  -2.332  -0.961  0.00  0.00    +0.112 C 
ENDROOT
BRANCH   1   3
ATOM      2  N   UNL     1       3.510  -2.495   0.951  0.00  0.00    -0.314 N 
ATOM      3  C   UNL     1       4.540  -1.852   0.365  0.00  0.00    +0.214 C 
ATOM      4  O   UNL     1       5.038  -0.887   0.905  0.00  0.00    -0.276 OA
ATOM      5  H   UNL     1       3.112  -3.266   0.519  0.00  0.00    +0.149 HD
BRANCH   2   6
ATOM      6  C   UNL     1       2.993  -2.028   2.239  0.00  0.00    +0.053 C 
ATOM      7  C   UNL     1       3.825  -2.634   3.372  0.00  0.00    +0.026 C 
BRANCH   6   8
ATOM      8  C   UNL     1       1.534  -2.461   2.390  0.00  0.00    -0.057 C 
BRANCH   8  14
ATOM      9  C   UNL     1      -0.019   1.526   0.010  0.00  0.00    +0.005 C 
ATOM     10  C   UNL     1       0.002  -0.004   0.002  0.00  0.00    -0.031 C 
ATOM     11  C   UNL     1      -1.434  -0.535   0.015  0.00  0.00    +0.003 C 
ATOM     12  C   UNL     1      -1.402  -2.064   0.086  0.00  0.00    -0.031 C 
ATOM     13  C   UNL     1      -0.613  -2.496   1.324  0.00  0.00    -0.076 C 
ATOM     14  N   UNL     1       0.758  -1.980   1.239  0.00  0.00    +0.381 N 
ATOM     15  C   UNL     1       0.740  -0.512   1.242  0.00  0.00    -0.076 C 
ATOM     16  C   UNL     1      -0.728  -2.620  -1.170  0.00  0.00    +0.005 C 
ATOM     17  H   UNL     1       1.188  -2.307   0.386  0.00  0.00    -0.082 HD
ENDBRANCH   8  14
ENDBRANCH   6   8
ENDBRANCH   2   6
ENDBRANCH   1   3
BRANCH   1  18
ATOM     18  C   UNL     1       6.230  -1.434  -1.401  0.00  0.00    +0.115 C 
BRANCH  18  19
ATOM     19  N   UNL     1       6.748  -1.901  -2.689  0.00  0.00    -0.189 NA
ATOM     20  H   UNL     1       6.509  -2.782  -3.018  0.00  0.00    +0.148 HD
BRANCH  19  21
ATOM     21  S   UNL     1       7.740  -0.925  -3.586  0.00  0.00    +0.059 S 
ATOM     22  O   UNL     1       8.089  -1.660  -4.751  0.00  0.00    -0.153 OA
ATOM     23  O   UNL     1       7.110   0.347  -3.648  0.00  0.00    -0.153 OA
BRANCH  21  24
ATOM     24  C   UNL     1       9.226  -0.706  -2.665  0.00  0.00    +0.109 A 
ATOM     25  C   UNL     1       9.334   0.343  -1.770  0.00  0.00    +0.032 A 
ATOM     26  C   UNL     1      10.497   0.520  -1.042  0.00  0.00    +0.051 A 
ATOM     27  C   UNL     1      11.555  -0.357  -1.214  0.00  0.00    +0.162 A 
ATOM     28  C   UNL     1      11.447  -1.409  -2.112  0.00  0.00    +0.164 A 
ATOM     29  C   UNL     1      10.279  -1.587  -2.835  0.00  0.00    +0.078 A 
ATOM     30  O   UNL     1      12.494  -2.269  -2.273  0.00  0.00    -0.488 OA
ATOM     31  C   UNL     1      13.661  -1.723  -2.892  0.00  0.00    +0.232 C 
ATOM     32  C   UNL     1      14.538  -1.022  -1.865  0.00  0.00    +0.082 C 
ATOM     33  C   UNL     1      13.858   0.194  -1.256  0.00  0.00    +0.232 C 
ATOM     34  O   UNL     1      12.708  -0.194  -0.502  0.00  0.00    -0.488 OA
ENDBRANCH  21  24
ENDBRANCH  19  21
ENDBRANCH  18  19
ENDBRANCH   1  18
TORSDOF 8
