REMARK  Name = ZINC06244042
REMARK  3 active torsions:
REMARK  status: ('A' for Active; 'I' for Inactive)
REMARK    1  A    between atoms: C_11  and  C_19
REMARK    2  A    between atoms: C_13  and  C_17
REMARK    3  A    between atoms: C_14  and  N_16
REMARK                            x       y       z     vdW  Elec       q    Type
REMARK                         _______ _______ _______ _____ _____    ______ ____
ROOT
ATOM      1  C   UNL     1      -0.013   4.176   0.023  0.00  0.00    +0.001 A 
ATOM      2  C   UNL     1      -1.215   3.472   0.032  0.00  0.00    +0.001 A 
ATOM      3  C   UNL     1      -1.231   2.111   0.031  0.00  0.00    +0.009 A 
ATOM      4  C   UNL     1      -0.017   1.402   0.010  0.00  0.00    -0.010 A 
ATOM      5  C   UNL     1       1.206   2.118   0.002  0.00  0.00    -0.017 A 
ATOM      6  C   UNL     1       1.182   3.523   0.008  0.00  0.00    +0.008 A 
ATOM      7  C   UNL     1       2.418   1.408  -0.011  0.00  0.00    +0.012 A 
ATOM      8  C   UNL     1       2.403   0.050  -0.017  0.00  0.00    +0.047 A 
ATOM      9  C   UNL     1       1.196  -0.664  -0.010  0.00  0.00    +0.135 A 
ATOM     10  C   UNL     1       0.002  -0.004   0.002  0.00  0.00    +0.016 A 
ATOM     11  C   UNL     1      -1.299  -0.761   0.006  0.00  0.00    +0.105 C 
ATOM     12  C   UNL     1      -1.069  -2.189   0.414  0.00  0.00    +0.099 C 
ATOM     13  C   UNL     1       0.172  -2.731   0.382  0.00  0.00    +0.199 C 
ATOM     14  O   UNL     1       1.240  -2.021  -0.015  0.00  0.00    -0.441 OA
ENDROOT
BRANCH  11  15
ATOM     15  C   UNL     1      -1.901  -0.727  -1.375  0.00  0.00    +0.004 A 
ATOM     16  C   UNL     1      -3.098  -0.231  -1.773  0.00  0.00    +0.013 A 
ATOM     17  C   UNL     1      -3.444  -0.305  -3.109  0.00  0.00    +0.023 A 
ATOM     18  C   UNL     1      -2.580  -0.883  -3.981  0.00  0.00    +0.055 A 
ATOM     19  S   UNL     1      -1.225  -1.338  -2.910  0.00  0.00    -0.085 S 
ATOM     20 BR   UNL     1      -2.763  -1.141  -5.845  0.00  0.00    -0.043 Br
ENDBRANCH  11  15
BRANCH  13  21
ATOM     21  N   UNL     1       0.342  -4.039   0.764  0.00  0.00    -0.328 N 
ATOM     22  H   UNL     1      -0.421  -4.563   1.053  0.00  0.00    +0.145 HD
ATOM     23  H   UNL     1       1.226  -4.439   0.745  0.00  0.00    +0.145 HD
ENDBRANCH  13  21
BRANCH  12  24
ATOM     24  C   UNL     1      -2.178  -2.988   0.844  0.00  0.00    +0.101 C 
ATOM     25  N   UNL     1      -3.057  -3.622   1.185  0.00  0.00    -0.191 NA
ENDBRANCH  12  24
TORSDOF 3
