REMARK  Name = ZINC18230170
REMARK  8 active torsions:
REMARK  status: ('A' for Active; 'I' for Inactive)
REMARK    1  A    between atoms: C_1  and  C_2
REMARK    2  A    between atoms: C_6  and  N_8
REMARK    3  A    between atoms: N_8  and  C_9
REMARK    4  A    between atoms: N_19  and  C_22
REMARK    5  A    between atoms: C_26  and  S_28
REMARK    6  A    between atoms: S_28  and  N_31
REMARK    7  A    between atoms: N_31  and  C_32
REMARK    8  A    between atoms: C_32  and  C_33
REMARK                            x       y       z     vdW  Elec       q    Type
REMARK                         _______ _______ _______ _____ _____    ______ ____
ROOT
ATOM      1  C   UNL     1       0.120  -3.993   2.462  0.00  0.00    +0.087 C 
ATOM      2  C   UNL     1       0.214  -4.639   3.674  0.00  0.00    +0.059 C 
ATOM      3  C   UNL     1       0.327  -6.111   3.745  0.00  0.00    +0.000 A 
ATOM      4  C   UNL     1       0.343  -6.900   2.601  0.00  0.00    +0.009 A 
ATOM      5  C   UNL     1       0.451  -8.270   2.720  0.00  0.00    +0.001 A 
ATOM      6  C   UNL     1       0.542  -8.864   3.970  0.00  0.00    +0.001 A 
ATOM      7  C   UNL     1       0.527  -8.099   5.116  0.00  0.00    +0.014 A 
ATOM      8  C   UNL     1       0.420  -6.711   5.018  0.00  0.00    +0.046 A 
ATOM      9  C   UNL     1       0.402  -5.859   6.214  0.00  0.00    +0.258 C 
ATOM     10  O   UNL     1       0.482  -6.371   7.314  0.00  0.00    -0.269 OA
ATOM     11  N   UNL     1       0.298  -4.524   6.113  0.00  0.00    -0.202 N 
ATOM     12  C   UNL     1       0.211  -3.886   4.934  0.00  0.00    +0.259 C 
ATOM     13  O   UNL     1       0.125  -2.672   4.910  0.00  0.00    -0.269 OA
ENDROOT
BRANCH  11  14
ATOM     14  C   UNL     1       0.285  -3.762   7.289  0.00  0.00    +0.046 A 
ATOM     15  C   UNL     1       1.417  -3.703   8.091  0.00  0.00    +0.024 A 
ATOM     16  C   UNL     1       1.402  -2.951   9.249  0.00  0.00    +0.004 A 
ATOM     17  C   UNL     1       0.261  -2.257   9.610  0.00  0.00    +0.028 A 
ATOM     18  C   UNL     1      -0.868  -2.314   8.813  0.00  0.00    +0.107 A 
ATOM     19  C   UNL     1      -0.857  -3.061   7.651  0.00  0.00    +0.052 A 
BRANCH  18  20
ATOM     20  S   UNL     1      -2.319  -1.429   9.277  0.00  0.00    +0.059 S 
ATOM     21  O   UNL     1      -3.412  -2.084   8.649  0.00  0.00    -0.153 OA
ATOM     22  O   UNL     1      -2.248  -1.243  10.684  0.00  0.00    -0.153 OA
BRANCH  20  23
ATOM     23  N   UNL     1      -2.213   0.076   8.595  0.00  0.00    -0.183 NA
ATOM     24  H   UNL     1      -2.139   0.861   9.161  0.00  0.00    +0.148 HD
BRANCH  23  25
ATOM     25  C   UNL     1      -2.230   0.223   7.138  0.00  0.00    +0.180 C 
BRANCH  25  26
ATOM     26  C   UNL     1      -2.492   1.664   6.781  0.00  0.00    +0.120 A 
ATOM     27  C   UNL     1      -1.555   2.611   6.597  0.00  0.00    +0.046 A 
ATOM     28  C   UNL     1      -2.239   3.807   6.279  0.00  0.00    +0.041 A 
ATOM     29  C   UNL     1      -3.553   3.519   6.289  0.00  0.00    +0.195 A 
ATOM     30  O   UNL     1      -3.700   2.218   6.588  0.00  0.00    -0.466 OA
ENDBRANCH  25  26
ENDBRANCH  23  25
ENDBRANCH  20  23
ENDBRANCH  18  20
ENDBRANCH  11  14
BRANCH   1  31
ATOM     31  N   UNL     1       0.164  -2.634   2.410  0.00  0.00    -0.306 N 
ATOM     32  H   UNL     1       0.182  -2.117   3.231  0.00  0.00    +0.153 HD
BRANCH  31  38
ATOM     33  C   UNL     1       0.289   1.499  -0.005  0.00  0.00    +0.063 C 
ATOM     34  C   UNL     1       0.240  -0.007  -0.009  0.00  0.00    +0.014 A 
ATOM     35  C   UNL     1       0.215  -0.684  -1.213  0.00  0.00    +0.021 A 
ATOM     36  C   UNL     1       0.171  -2.072  -1.211  0.00  0.00    +0.005 A 
ATOM     37  C   UNL     1       0.153  -2.730   0.006  0.00  0.00    +0.042 A 
ATOM     38  C   UNL     1       0.181  -1.984   1.179  0.00  0.00    +0.100 A 
ATOM     39  N   UNL     1       0.228  -0.661   1.135  0.00  0.00    -0.347 N 
ATOM     40  H   UNL     1       0.250  -0.161   1.966  0.00  0.00    +0.167 HD
ENDBRANCH  31  38
ENDBRANCH   1  31
TORSDOF 7
