REMARK  Name = ZINC29050003
REMARK  9 active torsions:
REMARK  status: ('A' for Active; 'I' for Inactive)
REMARK    1  A    between atoms: C_1  and  C_2
REMARK    2  A    between atoms: C_2  and  C_3
REMARK    3  A    between atoms: C_2  and  C_4
REMARK    4  A    between atoms: C_2  and  C_5
REMARK    5  A    between atoms: C_10  and  C_15
REMARK    6  A    between atoms: N_17  and  N_18
REMARK    7  A    between atoms: N_18  and  C_19
REMARK    8  A    between atoms: C_19  and  N_21
REMARK    9  A    between atoms: N_21  and  C_22
REMARK                            x       y       z     vdW  Elec       q    Type
REMARK                         _______ _______ _______ _____ _____    ______ ____
ROOT
ATOM      1  C   UNL     1       2.854   3.009   5.200  0.00  0.00    +0.276 C 
ATOM      2  O   UNL     1       2.506   2.996   6.365  0.00  0.00    -0.267 OA
ATOM      3  N   UNL     1       1.982   2.667   4.231  0.00  0.00    -0.230 N 
ATOM      4  H   UNL     1       2.297   2.679   3.178  0.00  0.00    +0.173 HD
ENDROOT
BRANCH   1  10
ATOM      5  C   UNL     1       8.290   4.485   3.047  0.00  0.00    -0.040 A 
ATOM      6  C   UNL     1       8.595   4.684   4.388  0.00  0.00    +0.005 A 
ATOM      7  C   UNL     1       7.652   4.475   5.352  0.00  0.00    +0.010 A 
ATOM      8  C   UNL     1       6.365   4.057   4.990  0.00  0.00    +0.000 A 
ATOM      9  C   UNL     1       5.195   3.761   5.730  0.00  0.00    +0.041 A 
ATOM     10  C   UNL     1       4.228   3.398   4.847  0.00  0.00    +0.104 A 
ATOM     11  N   UNL     1       4.743   3.447   3.566  0.00  0.00    -0.351 N 
ATOM     12  H   UNL     1       4.109   3.179   2.708  0.00  0.00    +0.166 HD
ATOM     13  C   UNL     1       6.054   3.855   3.632  0.00  0.00    +0.047 A 
ATOM     14  C   UNL     1       7.033   4.074   2.666  0.00  0.00    +0.030 A 
BRANCH   5  16
ATOM     15  C   UNL     1      10.645   5.168   2.675  0.00  0.00    +0.015 C 
ATOM     16  C   UNL     1       9.348   4.721   1.999  0.00  0.00    -0.013 C 
ATOM     17  C   UNL     1       9.596   3.426   1.224  0.00  0.00    +0.015 C 
ATOM     18  C   UNL     1       8.874   5.810   1.034  0.00  0.00    +0.015 C 
ENDBRANCH   5  16
ENDBRANCH   1  10
BRANCH   3  19
ATOM     19  N   UNL     1       0.673   2.296   4.567  0.00  0.00    -0.246 N 
ATOM     20  H   UNL     1       0.358   2.284   5.621  0.00  0.00    +0.172 HD
BRANCH  19  21
ATOM     21  C   UNL     1      -0.200   1.954   3.599  0.00  0.00    +0.147 C 
ATOM     22  S   UNL     1      -1.799   1.502   4.009  0.00  0.00    -0.017 S 
BRANCH  21  23
ATOM     23  N   UNL     1       0.186   1.969   2.308  0.00  0.00    -0.323 N 
ATOM     24  H   UNL     1       1.214   2.260   2.044  0.00  0.00    +0.148 HD
BRANCH  23  25
ATOM     25  C   UNL     1      -0.763   1.597   1.255  0.00  0.00    +0.072 C 
ATOM     26  C   UNL     1      -0.013   1.086   0.008  0.00  0.00    +0.022 C 
ATOM     27  C   UNL     1      -0.784   1.609  -1.216  0.00  0.00    +0.002 C 
ATOM     28  C   UNL     1      -1.978   2.421  -0.670  0.00  0.00    +0.002 C 
ATOM     29  C   UNL     1      -1.531   2.845   0.750  0.00  0.00    +0.022 C 
ENDBRANCH  23  25
ENDBRANCH  21  23
ENDBRANCH  19  21
ENDBRANCH   3  19
TORSDOF 6
