REMARK  Name = ZINC14146752
REMARK  9 active torsions:
REMARK  status: ('A' for Active; 'I' for Inactive)
REMARK    1  A    between atoms: C_1  and  C_2
REMARK    2  A    between atoms: C_5  and  N_9
REMARK    3  A    between atoms: C_6  and  C_8
REMARK    4  A    between atoms: C_10  and  C_12
REMARK    5  A    between atoms: C_12  and  C_14
REMARK    6  A    between atoms: C_12  and  O_15
REMARK    7  A    between atoms: O_15  and  C_16
REMARK    8  A    between atoms: C_16  and  C_18
REMARK    9  A    between atoms: C_27  and  C_30
REMARK                            x       y       z     vdW  Elec       q    Type
REMARK                         _______ _______ _______ _____ _____    ______ ____
ROOT
ATOM      1  C   UNL     1      -0.875   9.644   0.908  0.00  0.00    +0.311 C 
ATOM      2  O   UNL     1      -1.437  10.153  -0.032  0.00  0.00    -0.251 OA
ENDROOT
BRANCH   1   3
ATOM      3  C   UNL     1      -0.888   8.146   1.073  0.00  0.00    +0.101 C 
ATOM      4  C   UNL     1      -1.675   7.512  -0.077  0.00  0.00    +0.033 C 
ATOM      5  C   UNL     1      -1.635   5.988   0.062  0.00  0.00    +0.107 C 
ATOM      6  N   UNL     1      -0.241   5.530   0.036  0.00  0.00    -0.315 N 
ATOM      7  C   UNL     1       0.523   6.088   1.160  0.00  0.00    +0.107 C 
ATOM      8  C   UNL     1       0.547   7.615   1.052  0.00  0.00    +0.033 C 
ATOM      9  C   UNL     1      -0.173   4.145   0.030  0.00  0.00    +0.121 A 
ATOM     10  C   UNL     1       1.071   3.518   0.006  0.00  0.00    +0.045 A 
ATOM     11  C   UNL     1       1.134   2.151  -0.001  0.00  0.00    +0.024 A 
ATOM     12  C   UNL     1      -0.067   1.425   0.016  0.00  0.00    +0.070 A 
ATOM     13  C   UNL     1      -1.278   2.119   0.034  0.00  0.00    +0.131 A 
ATOM     14  N   UNL     1      -1.293   3.436   0.046  0.00  0.00    -0.239 NA
BRANCH  12  15
ATOM     15  C   UNL     1      -0.051  -0.007   0.009  0.00  0.00    +0.101 C 
ATOM     16  N   UNL     1      -0.038  -1.143   0.003  0.00  0.00    -0.191 NA
ENDBRANCH  12  15
ENDBRANCH   1   3
BRANCH   1  17
ATOM     17  O   UNL     1      -0.239  10.412   1.806  0.00  0.00    -0.452 OA
BRANCH  17  18
ATOM     18  C   UNL     1      -0.267  11.847   1.585  0.00  0.00    +0.259 C 
ATOM     19  C   UNL     1       0.935  12.254   0.731  0.00  0.00    +0.062 C 
BRANCH  18  21
ATOM     20  N   UNL     1      -0.322  13.903   2.958  0.00  0.00    -0.282 N 
ATOM     21  C   UNL     1      -0.207  12.561   2.910  0.00  0.00    +0.258 C 
ATOM     22  O   UNL     1      -0.055  11.929   3.934  0.00  0.00    -0.271 OA
ATOM     23  H   UNL     1      -0.369  14.485   2.025  0.00  0.00    +0.155 HD
BRANCH  20  28
ATOM     24  C   UNL     1      -0.568  16.552   7.969  0.00  0.00    +0.044 C 
ATOM     25  C   UNL     1      -0.502  15.849   6.638  0.00  0.00    -0.050 A 
ATOM     26  C   UNL     1      -0.894  14.526   6.536  0.00  0.00    +0.005 A 
ATOM     27  C   UNL     1      -0.836  13.878   5.318  0.00  0.00    +0.024 A 
ATOM     28  C   UNL     1      -0.383  14.557   4.194  0.00  0.00    +0.036 A 
ATOM     29  C   UNL     1       0.015  15.883   4.300  0.00  0.00    -0.029 A 
ATOM     30  C   UNL     1      -0.051  16.526   5.520  0.00  0.00    +0.008 A 
ATOM     31  C   UNL     1       0.513  16.620   3.084  0.00  0.00    +0.045 C 
ENDBRANCH  20  28
ENDBRANCH  18  21
ENDBRANCH  17  18
ENDBRANCH   1  17
TORSDOF 6
