REMARK  Name = ZINC62777820
REMARK  4 active torsions:
REMARK  status: ('A' for Active; 'I' for Inactive)
REMARK    1  A    between atoms: C_1  and  N_2
REMARK    2  A    between atoms: C_3  and  N_20
REMARK    3  A    between atoms: C_4  and  C_13
REMARK    4  A    between atoms: C_5  and  C_7
REMARK                            x       y       z     vdW  Elec       q    Type
REMARK                         _______ _______ _______ _____ _____    ______ ____
ROOT
ATOM      1  C   UNL     1      -0.018   1.461   0.010  0.00  0.00    +0.174 C 
ATOM      2  N   UNL     1       0.002  -0.004   0.002  0.00  0.00    -0.253 N 
ATOM      3  C   UNL     1       0.008  -0.792  -1.104  0.00  0.00    +0.123 A 
ATOM      4  C   UNL     1       0.028  -2.106  -0.675  0.00  0.00    +0.052 A 
ATOM      5  C   UNL     1       0.035  -2.085   0.743  0.00  0.00    +0.120 A 
ATOM      6  N   UNL     1       0.025  -0.828   1.133  0.00  0.00    -0.168 NA
ENDROOT
BRANCH   4   7
ATOM      7  C   UNL     1       0.041  -3.311  -1.537  0.00  0.00    +0.006 A 
ATOM      8  C   UNL     1       1.252  -3.868  -1.945  0.00  0.00    +0.010 A 
ATOM      9  C   UNL     1       1.257  -4.991  -2.747  0.00  0.00    +0.001 A 
ATOM     10  C   UNL     1       0.063  -5.565  -3.146  0.00  0.00    +0.001 A 
ATOM     11  C   UNL     1      -1.142  -5.018  -2.745  0.00  0.00    +0.020 A 
ATOM     12  C   UNL     1      -1.160  -3.898  -1.938  0.00  0.00    +0.049 A 
ATOM     13 CL   UNL     1      -2.674  -3.217  -1.429  0.00  0.00    -0.083 Cl
ENDBRANCH   4   7
BRANCH   5  14
ATOM     14  C   UNL     1       0.056  -3.269   1.629  0.00  0.00    +0.086 A 
ATOM     15  C   UNL     1      -0.572  -3.388   2.837  0.00  0.00    +0.051 A 
ATOM     16  C   UNL     1      -0.296  -4.659   3.339  0.00  0.00    +0.135 A 
ATOM     17  N   UNL     1       0.465  -5.291   2.482  0.00  0.00    -0.182 NA
ATOM     18  N   UNL     1       0.701  -4.445   1.390  0.00  0.00    -0.275 N 
ATOM     19  H   UNL     1       1.230  -4.658   0.606  0.00  0.00    +0.189 HD
ENDBRANCH   5  14
BRANCH   3  20
ATOM     20  N   UNL     1      -0.005  -0.357  -2.422  0.00  0.00    -0.343 N 
ATOM     21  H   UNL     1      -0.019   0.592  -2.620  0.00  0.00    +0.144 HD
ATOM     22  H   UNL     1       0.000  -1.004  -3.146  0.00  0.00    +0.144 HD
ENDBRANCH   3  20
TORSDOF 3
