REMARK  Name = ZINC13941007
REMARK  6 active torsions:
REMARK  status: ('A' for Active; 'I' for Inactive)
REMARK    1  A    between atoms: C_1  and  C_2
REMARK    2  A    between atoms: C_2  and  N_3
REMARK    3  A    between atoms: C_7  and  C_8
REMARK    4  A    between atoms: C_13  and  O_14
REMARK    5  A    between atoms: N_17  and  C_18
REMARK    6  A    between atoms: C_21  and  C_24
REMARK                            x       y       z     vdW  Elec       q    Type
REMARK                         _______ _______ _______ _____ _____    ______ ____
ROOT
ATOM      1  N   UNL     1       4.306   0.422  -1.838  0.00  0.00    -0.246 N 
ATOM      2  C   UNL     1       5.228   1.099  -2.501  0.00  0.00    +0.259 C 
ATOM      3  O   UNL     1       6.309   0.608  -2.769  0.00  0.00    -0.269 OA
ATOM      4  C   UNL     1       4.886   2.477  -2.903  0.00  0.00    +0.078 C 
ATOM      5  C   UNL     1       5.632   3.385  -3.583  0.00  0.00    +0.032 C 
ATOM      6  S   UNL     1       3.226   2.626  -2.260  0.00  0.00    -0.049 S 
ATOM      7  C   UNL     1       3.088   0.996  -1.545  0.00  0.00    +0.168 C 
ATOM      8  N   UNL     1       2.071   0.470  -0.900  0.00  0.00    -0.225 NA
ENDROOT
BRANCH   8   9
ATOM      9  C   UNL     1       0.932   1.203  -0.704  0.00  0.00    +0.067 A 
ATOM     10  C   UNL     1      -0.321   0.627  -0.928  0.00  0.00    +0.028 A 
ATOM     11  C   UNL     1      -1.464   1.373  -0.734  0.00  0.00    +0.005 A 
ATOM     12  C   UNL     1      -1.373   2.686  -0.306  0.00  0.00    -0.050 A 
ATOM     13  C   UNL     1      -0.135   3.263  -0.082  0.00  0.00    +0.005 A 
ATOM     14  C   UNL     1       1.017   2.530  -0.278  0.00  0.00    +0.028 A 
ATOM     15  C   UNL     1      -2.627   3.494  -0.090  0.00  0.00    +0.044 C 
ENDBRANCH   8   9
BRANCH   5  16
ATOM     16  C   UNL     1       7.042   3.104  -3.879  0.00  0.00    +0.018 A 
ATOM     17  C   UNL     1       7.861   2.516  -2.908  0.00  0.00    +0.011 A 
ATOM     18  C   UNL     1       9.184   2.255  -3.193  0.00  0.00    +0.001 A 
ATOM     19  C   UNL     1       9.707   2.572  -4.436  0.00  0.00    +0.004 A 
ATOM     20  C   UNL     1       8.910   3.152  -5.404  0.00  0.00    +0.046 A 
ATOM     21  C   UNL     1       7.576   3.418  -5.139  0.00  0.00    +0.124 A 
BRANCH  21  22
ATOM     22  O   UNL     1       6.792   3.984  -6.091  0.00  0.00    -0.506 OA
ATOM     23  H   UNL     1       6.786   4.951  -6.072  0.00  0.00    +0.292 HD
ENDBRANCH  21  22
ENDBRANCH   5  16
BRANCH   1  25
ATOM     24  C   UNL     1       4.145  -1.925  -2.506  0.00  0.00    +0.025 C 
ATOM     25  C   UNL     1       4.582  -0.952  -1.410  0.00  0.00    +0.112 C 
ENDBRANCH   1  25
TORSDOF 4
