REMARK  Name = ZINC35907990
REMARK  5 active torsions:
REMARK  status: ('A' for Active; 'I' for Inactive)
REMARK    1  A    between atoms: C_6  and  C_7
REMARK    2  A    between atoms: C_12  and  C_27
REMARK    3  A    between atoms: N_19  and  C_21
REMARK    4  A    between atoms: N_29  and  C_30
REMARK    5  A    between atoms: C_30  and  C_31
REMARK                            x       y       z     vdW  Elec       q    Type
REMARK                         _______ _______ _______ _____ _____    ______ ____
ROOT
ATOM      1  C   UNL     1      -0.017   1.378   0.010  0.00  0.00    +0.014 A 
ATOM      2  C   UNL     1       1.169   2.085   0.002  0.00  0.00    +0.024 A 
ATOM      3  C   UNL     1       2.383   1.407  -0.013  0.00  0.00    +0.033 A 
ATOM      4  C   UNL     1       2.399   0.020  -0.024  0.00  0.00    -0.025 A 
ATOM      5  C   UNL     1       1.207  -0.681  -0.015  0.00  0.00    +0.017 A 
ATOM      6  C   UNL     1       0.002  -0.004   0.002  0.00  0.00    +0.055 A 
ATOM      7  C   UNL     1       3.702  -0.725  -0.049  0.00  0.00    +0.051 C 
ATOM      8  C   UNL     1       4.814   0.052   0.623  0.00  0.00    +0.098 C 
ATOM      9  C   UNL     1       4.869   1.510   0.259  0.00  0.00    +0.069 C 
ATOM     10  N   UNL     1       3.575   2.120  -0.016  0.00  0.00    -0.329 N 
ATOM     11  C   UNL     1       3.570   3.558  -0.355  0.00  0.00    +0.087 C 
ATOM     12  C   UNL     1       4.547   3.751  -1.524  0.00  0.00    -0.059 C 
ATOM     13  N   UNL     1       5.868   3.228  -1.158  0.00  0.00    +0.384 N 
ATOM     14  C   UNL     1       5.803   1.778  -0.922  0.00  0.00    -0.055 C 
ATOM     15  H   UNL     1       6.188   3.688  -0.319  0.00  0.00    -0.081 HD
ENDROOT
BRANCH  13  16
ATOM     16  C   UNL     1       6.815   3.499  -2.248  0.00  0.00    -0.068 C 
ATOM     17  C   UNL     1       8.195   2.956  -1.872  0.00  0.00    -0.015 C 
ATOM     18  C   UNL     1       9.181   3.238  -3.007  0.00  0.00    -0.002 C 
ATOM     19  C   UNL     1       9.273   4.748  -3.240  0.00  0.00    -0.000 C 
ATOM     20  C   UNL     1       7.893   5.291  -3.616  0.00  0.00    -0.002 C 
ATOM     21  C   UNL     1       6.907   5.009  -2.480  0.00  0.00    -0.015 C 
ENDBRANCH  13  16
BRANCH   6  22
ATOM     22  C   UNL     1      -1.293  -0.774   0.012  0.00  0.00    +0.417 C 
ATOM     23  F   UNL     1      -2.368   0.122   0.028  0.00  0.00    -0.166 F 
ATOM     24  F   UNL     1      -1.370  -1.573  -1.134  0.00  0.00    -0.166 F 
ATOM     25  F   UNL     1      -1.345  -1.585   1.151  0.00  0.00    -0.166 F 
ENDBRANCH   6  22
BRANCH   8  26
ATOM     26  C   UNL     1       4.639  -0.058   2.116  0.00  0.00    +0.218 C 
ATOM     27  O   UNL     1       4.478   0.942   2.782  0.00  0.00    -0.275 OA
ATOM     28  N   UNL     1       4.661  -1.268   2.710  0.00  0.00    -0.313 N 
ATOM     29  H   UNL     1       4.790  -2.068   2.176  0.00  0.00    +0.149 HD
BRANCH  28  30
ATOM     30  C   UNL     1       4.490  -1.374   4.161  0.00  0.00    +0.135 C 
BRANCH  30  31
ATOM     31  C   UNL     1       4.555  -2.846   4.575  0.00  0.00    +0.135 C 
ATOM     32  C   UNL     1       4.255  -2.979   6.084  0.00  0.00    +0.035 C 
ATOM     33  C   UNL     1       5.260  -4.079   6.523  0.00  0.00    +0.031 C 
ATOM     34  C   UNL     1       6.460  -3.769   5.593  0.00  0.00    +0.160 C 
ATOM     35  O   UNL     1       5.873  -3.357   4.347  0.00  0.00    -0.375 OA
ENDBRANCH  30  31
ENDBRANCH  28  30
ENDBRANCH   8  26
TORSDOF 5
