REMARK  Name = ZINC06296651
REMARK  12 active torsions:
REMARK  status: ('A' for Active; 'I' for Inactive)
REMARK    1  A    between atoms: C_1  and  C_2
REMARK    2  A    between atoms: C_2  and  C_3
REMARK    3  A    between atoms: C_3  and  C_4
REMARK    4  A    between atoms: C_4  and  N_5
REMARK    5  A    between atoms: N_5  and  C_6
REMARK    6  A    between atoms: C_7  and  C_9
REMARK    7  A    between atoms: C_15  and  S_20
REMARK    8  A    between atoms: S_20  and  N_23
REMARK    9  A    between atoms: N_23  and  C_24
REMARK   10  A    between atoms: N_23  and  C_25
REMARK   11  A    between atoms: C_30  and  C_31
REMARK   12  A    between atoms: C_31  and  C_32
REMARK                            x       y       z     vdW  Elec       q    Type
REMARK                         _______ _______ _______ _____ _____    ______ ____
ROOT
ATOM      1  C   UNL     1      -3.895   2.838   0.613  0.00  0.00    +0.100 A 
ATOM      2  C   UNL     1      -3.611   4.205   0.464  0.00  0.00    +0.100 A 
ATOM      3  N   UNL     1      -2.387   4.638   0.302  0.00  0.00    -0.360 N 
ATOM      4  C   UNL     1      -1.341   3.803   0.252  0.00  0.00    +0.050 A 
ATOM      5  C   UNL     1      -0.039   4.293   0.054  0.00  0.00    +0.028 A 
ATOM      6  C   UNL     1       1.010   3.426   0.001  0.00  0.00    +0.031 A 
ATOM      7  C   UNL     1       0.816   2.054   0.140  0.00  0.00    +0.110 A 
ATOM      8  C   UNL     1      -0.433   1.543   0.334  0.00  0.00    +0.042 A 
ATOM      9  C   UNL     1      -1.536   2.408   0.388  0.00  0.00    +0.048 A 
ATOM     10  C   UNL     1      -2.846   1.912   0.576  0.00  0.00    +0.202 A 
ATOM     11  O   UNL     1      -3.078   0.587   0.716  0.00  0.00    -0.286 OA
ATOM     12  H   UNL     1      -2.228   5.622   0.212  0.00  0.00    +0.165 HD
ENDROOT
BRANCH   1  15
ATOM     13  N   UNL     1      -6.075   2.998   1.706  0.00  0.00    -0.300 N 
ATOM     14  C   UNL     1      -5.587   4.177   2.426  0.00  0.00    +0.132 C 
ATOM     15  C   UNL     1      -5.283   2.382   0.806  0.00  0.00    +0.251 C 
ATOM     16  O   UNL     1      -5.714   1.451   0.154  0.00  0.00    -0.270 OA
BRANCH  13  17
ATOM     17  C   UNL     1      -7.424   2.489   1.965  0.00  0.00    +0.108 C 
BRANCH  17  18
ATOM     18  C   UNL     1      -7.373   1.460   3.096  0.00  0.00    +0.019 C 
BRANCH  18  20
ATOM     19  C   UNL     1      -8.730  -0.101   4.497  0.00  0.00    +0.004 C 
ATOM     20  C   UNL     1      -8.781   0.928   3.366  0.00  0.00    -0.002 C 
ENDBRANCH  18  20
ENDBRANCH  17  18
ENDBRANCH  13  17
ENDBRANCH   1  15
BRANCH   7  21
ATOM     21  S   UNL     1       2.200   0.967   0.066  0.00  0.00    +0.074 S 
ATOM     22  O   UNL     1       3.316   1.696   0.557  0.00  0.00    -0.150 OA
ATOM     23  O   UNL     1       1.781  -0.264   0.640  0.00  0.00    -0.150 OA
BRANCH  21  24
ATOM     24  N   UNL     1       2.500   0.665  -1.535  0.00  0.00    -0.206 N 
ATOM     25  C   UNL     1       3.512   1.445  -2.250  0.00  0.00    +0.157 C 
BRANCH  24  26
ATOM     26  C   UNL     1       1.787  -0.334  -2.202  0.00  0.00    +0.054 A 
ATOM     27  C   UNL     1       2.298  -1.624  -2.274  0.00  0.00    +0.025 A 
ATOM     28  C   UNL     1       1.589  -2.610  -2.931  0.00  0.00    +0.002 A 
ATOM     29  C   UNL     1       0.376  -2.312  -3.526  0.00  0.00    +0.000 A 
ATOM     30  C   UNL     1      -0.133  -1.028  -3.461  0.00  0.00    +0.005 A 
ATOM     31  C   UNL     1       0.569  -0.038  -2.801  0.00  0.00    -0.025 A 
BRANCH  31  32
ATOM     32  C   UNL     1       0.015   1.361  -2.731  0.00  0.00    +0.033 C 
ATOM     33  C   UNL     1       0.505   2.165  -3.937  0.00  0.00    +0.009 C 
ENDBRANCH  31  32
ENDBRANCH  24  26
ENDBRANCH  21  24
ENDBRANCH   7  21
TORSDOF 8
