REMARK  Name = ZINC14654017
REMARK  15 active torsions:
REMARK  status: ('A' for Active; 'I' for Inactive)
REMARK    1  A    between atoms: C_1  and  C_2
REMARK    2  A    between atoms: C_2  and  C_3
REMARK    3  A    between atoms: C_3  and  C_4
REMARK    4  A    between atoms: C_4  and  O_5
REMARK    5  A    between atoms: O_5  and  C_6
REMARK    6  A    between atoms: C_6  and  C_8
REMARK    7  A    between atoms: C_8  and  C_9
REMARK    8  A    between atoms: N_16  and  C_17
REMARK    9  A    between atoms: C_17  and  N_19
REMARK   10  A    between atoms: C_20  and  C_22
REMARK   11  A    between atoms: C_25  and  O_29
REMARK   12  A    between atoms: O_29  and  C_30
REMARK   13  A    between atoms: C_30  and  C_31
REMARK   14  A    between atoms: C_31  and  C_32
REMARK   15  A    between atoms: C_31  and  C_33
REMARK                            x       y       z     vdW  Elec       q    Type
REMARK                         _______ _______ _______ _____ _____    ______ ____
ROOT
ATOM      1  C   UNL     1      -3.206   1.581  -5.551  0.00  0.00    +0.140 C 
ATOM      2  S   UNL     1      -4.716   0.810  -5.310  0.00  0.00    -0.018 S 
ENDROOT
BRANCH   1   9
ATOM      3  C   UNL     1      -0.808   1.472  -6.077  0.00  0.00    +0.171 C 
ATOM      4  C   UNL     1      -0.168   1.018  -7.361  0.00  0.00    +0.234 C 
ATOM      5  O   UNL     1       0.834   1.588  -7.740  0.00  0.00    -0.274 OA
ATOM      6  N   UNL     1      -0.650   0.019  -8.101  0.00  0.00    -0.312 N 
ATOM      7  C   UNL     1      -1.888  -0.695  -7.820  0.00  0.00    +0.123 C 
ATOM      8  C   UNL     1      -2.275  -0.552  -6.346  0.00  0.00    +0.126 C 
ATOM      9  N   UNL     1      -2.144   0.867  -5.973  0.00  0.00    -0.299 N 
ATOM     10  H   UNL     1      -0.141  -0.251  -8.881  0.00  0.00    +0.149 HD
BRANCH   3  11
ATOM     11  C   UNL     1       0.050   1.027  -4.891  0.00  0.00    +0.152 C 
BRANCH  11  12
ATOM     12  C   UNL     1      -0.518   1.598  -3.618  0.00  0.00    +0.309 C 
ATOM     13  O   UNL     1      -1.429   2.389  -3.665  0.00  0.00    -0.251 OA
BRANCH  12  14
ATOM     14  O   UNL     1      -0.011   1.227  -2.431  0.00  0.00    -0.465 OA
BRANCH  14  15
ATOM     15  C   UNL     1      -0.607   1.818  -1.246  0.00  0.00    +0.232 C 
BRANCH  15  16
ATOM     16  C   UNL     1       0.096   1.279   0.001  0.00  0.00    +0.041 C 
BRANCH  16  18
ATOM     17  C   UNL     1       0.171   1.363   2.497  0.00  0.00    +0.004 C 
ATOM     18  C   UNL     1      -0.532   1.902   1.249  0.00  0.00    -0.000 C 
ENDBRANCH  16  18
ENDBRANCH  15  16
ENDBRANCH  14  15
ENDBRANCH  12  14
ENDBRANCH  11  12
ENDBRANCH   3  11
ENDBRANCH   1   9
BRANCH   1  19
ATOM     19  N   UNL     1      -3.080   2.903  -5.319  0.00  0.00    -0.264 N 
ATOM     20  C   UNL     1      -4.164   3.637  -4.999  0.00  0.00    +0.250 C 
ATOM     21  O   UNL     1      -5.255   3.107  -4.919  0.00  0.00    -0.270 OA
ATOM     22  H   UNL     1      -2.210   3.326  -5.383  0.00  0.00    +0.157 HD
BRANCH  20  23
ATOM     23  C   UNL     1      -4.026   5.084  -4.745  0.00  0.00    +0.038 A 
ATOM     24  C   UNL     1      -5.149   5.847  -4.413  0.00  0.00    +0.017 A 
ATOM     25  C   UNL     1      -5.016   7.197  -4.177  0.00  0.00    +0.047 A 
ATOM     26  C   UNL     1      -3.768   7.802  -4.268  0.00  0.00    +0.134 A 
ATOM     27  C   UNL     1      -2.648   7.046  -4.598  0.00  0.00    +0.060 A 
ATOM     28  C   UNL     1      -2.772   5.694  -4.831  0.00  0.00    +0.032 A 
ATOM     29 BR   UNL     1      -0.953   7.875  -4.721  0.00  0.00    -0.046 Br
BRANCH  26  30
ATOM     30  O   UNL     1      -3.642   9.133  -4.034  0.00  0.00    -0.491 OA
BRANCH  30  31
ATOM     31  C   UNL     1      -4.832   9.848  -3.699  0.00  0.00    +0.232 C 
BRANCH  31  32
ATOM     32  C   UNL     1      -4.494  11.323  -3.472  0.00  0.00    +0.020 C 
ATOM     33  C   UNL     1      -4.005  11.942  -4.783  0.00  0.00    +0.010 C 
ATOM     34  C   UNL     1      -5.743  12.065  -2.993  0.00  0.00    +0.010 C 
ENDBRANCH  31  32
ENDBRANCH  30  31
ENDBRANCH  26  30
ENDBRANCH  20  23
ENDBRANCH   1  19
TORSDOF 12
