REMARK  Name = ZINC36027194
REMARK  6 active torsions:
REMARK  status: ('A' for Active; 'I' for Inactive)
REMARK    1  A    between atoms: C_1  and  C_2
REMARK    2  A    between atoms: C_2  and  C_3
REMARK    3  A    between atoms: C_3  and  N_4
REMARK    4  A    between atoms: C_7  and  C_26
REMARK    5  A    between atoms: N_13  and  S_16
REMARK    6  A    between atoms: S_16  and  C_19
REMARK                            x       y       z     vdW  Elec       q    Type
REMARK                         _______ _______ _______ _____ _____    ______ ____
ROOT
ATOM      1  N   UNL     1       0.632  -1.958  -1.323  0.00  0.00    -0.314 N 
ATOM      2  C   UNL     1       1.508  -2.816  -0.758  0.00  0.00    +0.200 C 
ATOM      3  O   UNL     1       2.487  -2.507  -0.113  0.00  0.00    -0.277 OA
ATOM      4  C   UNL     1       1.062  -4.229  -1.066  0.00  0.00    +0.016 C 
ATOM      5  N   UNL     1       0.101  -4.087  -2.186  0.00  0.00    +0.401 N 
ATOM      6  C   UNL     1      -0.421  -2.714  -2.006  0.00  0.00    +0.006 C 
ATOM      7  C   UNL     1      -1.687  -2.747  -1.152  0.00  0.00    +0.023 C 
ATOM      8  C   UNL     1      -2.196  -1.317  -0.940  0.00  0.00    +0.109 C 
ATOM      9  N   UNL     1      -2.359  -0.676  -2.252  0.00  0.00    -0.177 NA
ATOM     10  C   UNL     1      -1.218  -0.658  -3.177  0.00  0.00    +0.109 C 
ATOM     11  C   UNL     1      -0.717  -2.093  -3.370  0.00  0.00    +0.023 C 
ATOM     12  C   UNL     1       2.257  -5.085  -1.491  0.00  0.00    -0.004 C 
ATOM     13  H   UNL     1       0.572  -4.179  -3.074  0.00  0.00    -0.082 HD
ATOM     14  H   UNL     1      -0.644  -4.763  -2.105  0.00  0.00    -0.082 HD
ENDROOT
BRANCH   9  15
ATOM     15  S   UNL     1      -3.802   0.015  -2.679  0.00  0.00    +0.061 S 
ATOM     16  O   UNL     1      -3.841   0.030  -4.099  0.00  0.00    -0.153 OA
ATOM     17  O   UNL     1      -4.804  -0.620  -1.896  0.00  0.00    -0.153 OA
BRANCH  15  18
ATOM     18  C   UNL     1      -3.748   1.698  -2.159  0.00  0.00    +0.106 A 
ATOM     19  C   UNL     1      -4.184   2.045  -0.894  0.00  0.00    +0.031 A 
ATOM     20  C   UNL     1      -4.142   3.364  -0.485  0.00  0.00    +0.040 A 
ATOM     21  C   UNL     1      -3.662   4.339  -1.344  0.00  0.00    +0.124 A 
ATOM     22  C   UNL     1      -3.225   3.991  -2.611  0.00  0.00    +0.040 A 
ATOM     23  C   UNL     1      -3.264   2.670  -3.015  0.00  0.00    +0.031 A 
ATOM     24  F   UNL     1      -3.621   5.629  -0.945  0.00  0.00    -0.205 F 
ENDBRANCH  15  18
ENDBRANCH   9  15
BRANCH   1  25
ATOM     25  C   UNL     1       0.718  -0.497  -1.257  0.00  0.00    +0.106 C 
BRANCH  25  27
ATOM     26  C   UNL     1       1.542   1.546  -2.434  0.00  0.00    +0.005 C 
ATOM     27  C   UNL     1       1.564   0.017  -2.423  0.00  0.00    +0.015 C 
ENDBRANCH  25  27
ENDBRANCH   1  25
TORSDOF 4
