REMARK  Name = ZINC20833804
REMARK  7 active torsions:
REMARK  status: ('A' for Active; 'I' for Inactive)
REMARK    1  A    between atoms: C_3  and  C_9
REMARK    2  A    between atoms: N_10  and  N_11
REMARK    3  A    between atoms: C_14  and  S_17
REMARK    4  A    between atoms: S_17  and  C_18
REMARK    5  A    between atoms: C_18  and  C_19
REMARK    6  A    between atoms: N_21  and  C_22
REMARK    7  A    between atoms: N_21  and  C_28
REMARK                            x       y       z     vdW  Elec       q    Type
REMARK                         _______ _______ _______ _____ _____    ______ ____
ROOT
ATOM      1  N   UNL     1      -3.757   5.858  -0.082  0.00  0.00    -0.205 N 
ATOM      2  C   UNL     1      -3.771   7.245  -0.053  0.00  0.00    +0.232 A 
ATOM      3  N   UNL     1      -4.885   8.037  -0.021  0.00  0.00    -0.186 NA
ATOM      4  C   UNL     1      -4.476   9.340   0.001  0.00  0.00    +0.211 A 
ATOM      5  N   UNL     1      -3.165   9.354  -0.018  0.00  0.00    -0.144 NA
ATOM      6  N   UNL     1      -2.718   8.026  -0.046  0.00  0.00    -0.245 N 
ATOM      7  H   UNL     1      -4.704   5.298  -0.080  0.00  0.00    +0.177 HD
ATOM      8  H   UNL     1      -1.709   7.589  -0.062  0.00  0.00    +0.192 HD
ENDROOT
BRANCH   1  10
ATOM      9  C   UNL     1      -2.524   3.872  -0.142  0.00  0.00    +0.139 C 
ATOM     10  N   UNL     1      -2.537   5.170  -0.114  0.00  0.00    -0.188 NA
BRANCH   9  13
ATOM     11  C   UNL     1      -0.018   1.080  -0.236  0.00  0.00    +0.002 A 
ATOM     12  C   UNL     1      -1.223   1.752  -0.210  0.00  0.00    +0.011 A 
ATOM     13  C   UNL     1      -1.240   3.148  -0.175  0.00  0.00    +0.014 A 
ATOM     14  C   UNL     1      -0.035   3.856  -0.177  0.00  0.00    +0.068 A 
ATOM     15  C   UNL     1       1.164   3.170  -0.209  0.00  0.00    +0.060 A 
ATOM     16  C   UNL     1       1.172   1.786  -0.238  0.00  0.00    +0.021 A 
ATOM     17 CL   UNL     1       2.663   4.046  -0.212  0.00  0.00    -0.082 Cl
ATOM     18 CL   UNL     1      -0.044   5.592  -0.140  0.00  0.00    -0.081 Cl
ENDBRANCH   9  13
ENDBRANCH   1  10
BRANCH   4  19
ATOM     19  S   UNL     1      -5.526  10.755   0.046  0.00  0.00    -0.075 S 
BRANCH  19  20
ATOM     20  C   UNL     1      -4.374  12.156   0.059  0.00  0.00    +0.173 C 
BRANCH  20  21
ATOM     21  C   UNL     1      -5.153  13.446   0.097  0.00  0.00    +0.226 C 
ATOM     22  O   UNL     1      -6.363  13.427   0.014  0.00  0.00    -0.275 OA
ATOM     23  N   UNL     1      -4.505  14.620   0.225  0.00  0.00    -0.295 N 
BRANCH  23  24
ATOM     24  C   UNL     1      -3.040  14.654   0.211  0.00  0.00    +0.076 C 
ATOM     25  C   UNL     1      -2.529  15.152   1.564  0.00  0.00    +0.022 C 
ATOM     26  C   UNL     1      -0.999  15.187   1.550  0.00  0.00    +0.002 C 
ATOM     27  C   UNL     1      -0.521  16.132   0.446  0.00  0.00    +0.000 C 
ATOM     28  C   UNL     1      -1.032  15.634  -0.908  0.00  0.00    +0.002 C 
ATOM     29  C   UNL     1      -2.562  15.599  -0.894  0.00  0.00    +0.022 C 
ENDBRANCH  23  24
BRANCH  23  30
ATOM     30  C   UNL     1      -5.265  15.864   0.376  0.00  0.00    +0.076 C 
ATOM     31  C   UNL     1      -6.131  15.781   1.635  0.00  0.00    +0.022 C 
ATOM     32  C   UNL     1      -6.925  17.080   1.793  0.00  0.00    +0.002 C 
ATOM     33  C   UNL     1      -7.821  17.282   0.570  0.00  0.00    +0.000 C 
ATOM     34  C   UNL     1      -6.954  17.365  -0.689  0.00  0.00    +0.002 C 
ATOM     35  C   UNL     1      -6.161  16.066  -0.847  0.00  0.00    +0.022 C 
ENDBRANCH  23  30
ENDBRANCH  20  21
ENDBRANCH  19  20
ENDBRANCH   4  19
TORSDOF 7
