REMARK  Name = ZINC43667487
REMARK  6 active torsions:
REMARK  status: ('A' for Active; 'I' for Inactive)
REMARK    1  A    between atoms: C_1  and  C_2
REMARK    2  A    between atoms: C_4  and  N_20
REMARK    3  A    between atoms: N_5  and  C_7
REMARK    4  A    between atoms: C_7  and  C_9
REMARK    5  A    between atoms: C_7  and  C_10
REMARK    6  A    between atoms: N_18  and  C_19
REMARK                            x       y       z     vdW  Elec       q    Type
REMARK                         _______ _______ _______ _____ _____    ______ ____
ROOT
ATOM      1  C   UNL     1       0.053  -3.291   1.500  0.00  0.00    +0.172 C 
ATOM      2  C   UNL     1       1.306  -3.259   2.378  0.00  0.00    +0.041 C 
ENDROOT
BRANCH   1   3
ATOM      3  C   UNL     1      -1.173  -3.293   2.376  0.00  0.00    +0.135 A 
ATOM      4  N   UNL     1      -1.486  -2.356   3.223  0.00  0.00    -0.230 NA
ATOM      5  C   UNL     1      -2.650  -2.672   3.845  0.00  0.00    +0.089 A 
ATOM      6  C   UNL     1      -3.425  -2.040   4.821  0.00  0.00    +0.030 A 
ATOM      7  C   UNL     1      -4.580  -2.624   5.257  0.00  0.00    +0.002 A 
ATOM      8  C   UNL     1      -4.995  -3.844   4.742  0.00  0.00    +0.002 A 
ATOM      9  C   UNL     1      -4.247  -4.486   3.779  0.00  0.00    +0.028 A 
ATOM     10  C   UNL     1      -3.070  -3.908   3.322  0.00  0.00    +0.069 A 
ATOM     11  N   UNL     1      -2.118  -4.271   2.391  0.00  0.00    -0.329 N 
ATOM     12  C   UNL     1      -2.123  -5.487   1.574  0.00  0.00    +0.150 C 
ENDBRANCH   1   3
BRANCH   1  17
ATOM     13  C   UNL     1      -0.018   1.503   0.010  0.00  0.00    +0.069 C 
ATOM     14  C   UNL     1       0.002  -0.004   0.002  0.00  0.00    +0.080 A 
ATOM     15  C   UNL     1       0.008  -0.815  -1.136  0.00  0.00    +0.103 A 
ATOM     16  C   UNL     1       0.027  -2.113  -0.724  0.00  0.00    +0.134 A 
ATOM     17  N   UNL     1       0.034  -2.109   0.634  0.00  0.00    -0.239 N 
ATOM     18  N   UNL     1       0.023  -0.775   1.059  0.00  0.00    -0.173 NA
ATOM     19 CL   UNL     1      -0.008  -0.266  -2.783  0.00  0.00    -0.078 Cl
BRANCH  16  20
ATOM     20  N   UNL     1       0.039  -3.238  -1.545  0.00  0.00    -0.342 N 
ATOM     21  H   UNL     1       0.033  -3.135  -2.510  0.00  0.00    +0.144 HD
ATOM     22  H   UNL     1       0.052  -4.125  -1.153  0.00  0.00    +0.144 HD
ENDBRANCH  16  20
ENDBRANCH   1  17
TORSDOF 3
