REMARK  Name = ZINC21508843
REMARK  7 active torsions:
REMARK  status: ('A' for Active; 'I' for Inactive)
REMARK    1  A    between atoms: C_1  and  C_2
REMARK    2  A    between atoms: C_5  and  N_21
REMARK    3  A    between atoms: C_7  and  N_8
REMARK    4  A    between atoms: C_9  and  C_11
REMARK    5  A    between atoms: C_11  and  S_12
REMARK    6  A    between atoms: S_12  and  C_13
REMARK    7  A    between atoms: C_15  and  C_20
REMARK                            x       y       z     vdW  Elec       q    Type
REMARK                         _______ _______ _______ _____ _____    ______ ____
ROOT
ATOM      1  N   UNL     1       0.069  -6.886  -3.115  0.00  0.00    -0.285 N 
ATOM      2  C   UNL     1       0.045  -5.554  -3.315  0.00  0.00    +0.227 C 
ATOM      3  O   UNL     1       0.035  -5.110  -4.444  0.00  0.00    -0.275 OA
ATOM      4  H   UNL     1       0.169  -7.288  -2.095  0.00  0.00    +0.155 HD
ENDROOT
BRANCH   1  11
ATOM      5  C   UNL     1       1.151  -9.502  -2.844  0.00  0.00    +0.045 C 
ATOM      6  C   UNL     1       0.480  -9.046  -4.114  0.00  0.00    -0.029 A 
ATOM      7  C   UNL     1       0.379  -9.909  -5.189  0.00  0.00    +0.007 A 
ATOM      8  C   UNL     1      -0.236  -9.495  -6.355  0.00  0.00    +0.023 A 
ATOM      9  C   UNL     1      -0.754  -8.209  -6.450  0.00  0.00    +0.026 A 
ATOM     10  C   UNL     1      -0.657  -7.342  -5.371  0.00  0.00    +0.046 A 
ATOM     11  C   UNL     1      -0.035  -7.759  -4.203  0.00  0.00    +0.038 A 
BRANCH   9  12
ATOM     12  N   UNL     1      -1.375  -7.792  -7.629  0.00  0.00    -0.358 N 
ATOM     13  H   UNL     1      -1.785  -6.774  -7.704  0.00  0.00    +0.142 HD
ATOM     14  H   UNL     1      -1.456  -8.481  -8.483  0.00  0.00    +0.142 HD
ENDBRANCH   9  12
ENDBRANCH   1  11
BRANCH   2  15
ATOM     15  C   UNL     1       0.031  -4.615  -2.136  0.00  0.00    +0.173 C 
BRANCH  15  16
ATOM     16  S   UNL     1       0.000  -2.905  -2.727  0.00  0.00    -0.077 S 
BRANCH  16  17
ATOM     17  C   UNL     1      -0.012  -2.049  -1.187  0.00  0.00    +0.192 A 
ATOM     18  N   UNL     1      -0.041  -0.689  -1.178  0.00  0.00    -0.227 NA
ATOM     19  C   UNL     1      -0.044  -0.005   0.004  0.00  0.00    +0.046 A 
ATOM     20  C   UNL     1      -0.030  -0.694   1.165  0.00  0.00    +0.095 A 
ATOM     21  C   UNL     1      -0.006  -2.112   1.122  0.00  0.00    +0.274 A 
ATOM     22  O   UNL     1       0.007  -2.758   2.158  0.00  0.00    -0.266 OA
ATOM     23  N   UNL     1       0.002  -2.737  -0.063  0.00  0.00    -0.183 NA
ATOM     24  C   UNL     1      -0.070   1.501   0.012  0.00  0.00    +0.066 C 
ENDBRANCH  16  17
ENDBRANCH  15  16
ENDBRANCH   2  15
TORSDOF 5
