REMARK  Name = ZINC15667335
REMARK  5 active torsions:
REMARK  status: ('A' for Active; 'I' for Inactive)
REMARK    1  A    between atoms: C_2  and  C_10
REMARK    2  A    between atoms: N_12  and  N_13
REMARK    3  A    between atoms: N_13  and  C_14
REMARK    4  A    between atoms: C_14  and  N_16
REMARK    5  A    between atoms: N_16  and  C_17
REMARK                            x       y       z     vdW  Elec       q    Type
REMARK                         _______ _______ _______ _____ _____    ______ ____
ROOT
ATOM      1  C   UNL     1       2.421   3.938  -0.001  0.00  0.00    +0.262 C 
ATOM      2  O   UNL     1       3.484   3.348  -0.014  0.00  0.00    -0.269 OA
ATOM      3  N   UNL     1       2.399   5.285   0.006  0.00  0.00    -0.231 N 
ATOM      4  H   UNL     1       1.551   5.756   0.017  0.00  0.00    +0.173 HD
ENDROOT
BRANCH   1   6
ATOM      5  C   UNL     1      -0.068   3.853   0.022  0.00  0.00    +0.054 A 
ATOM      6  C   UNL     1       1.155   3.178   0.008  0.00  0.00    +0.059 A 
ATOM      7  C   UNL     1       1.175   1.781   0.000  0.00  0.00    +0.055 A 
ATOM      8  C   UNL     1      -0.013   1.076   0.008  0.00  0.00    +0.043 A 
ATOM      9  C   UNL     1      -1.221   1.750   0.017  0.00  0.00    +0.077 A 
ATOM     10  C   UNL     1      -1.248   3.137   0.030  0.00  0.00    +0.142 A 
ATOM     11  F   UNL     1      -2.432   3.788   0.044  0.00  0.00    -0.204 F 
ATOM     12 CL   UNL     1      -2.709   0.856   0.020  0.00  0.00    -0.081 Cl
ATOM     13 CL   UNL     1       2.690   0.933  -0.019  0.00  0.00    -0.083 Cl
ENDBRANCH   1   6
BRANCH   3  14
ATOM     14  N   UNL     1       3.600   6.006  -0.002  0.00  0.00    -0.246 N 
ATOM     15  H   UNL     1       4.448   5.535  -0.013  0.00  0.00    +0.172 HD
BRANCH  14  16
ATOM     16  C   UNL     1       3.578   7.354   0.005  0.00  0.00    +0.147 C 
ATOM     17  S   UNL     1       5.046   8.235  -0.005  0.00  0.00    -0.017 S 
BRANCH  16  18
ATOM     18  N   UNL     1       2.399   8.008   0.020  0.00  0.00    -0.323 N 
ATOM     19  H   UNL     1       1.568   7.509   0.025  0.00  0.00    +0.148 HD
BRANCH  18  20
ATOM     20  C   UNL     1       2.375   9.473   0.028  0.00  0.00    +0.072 C 
ATOM     21  C   UNL     1       2.506   9.977   1.466  0.00  0.00    +0.022 C 
ATOM     22  C   UNL     1       2.481  11.507   1.474  0.00  0.00    +0.002 C 
ATOM     23  C   UNL     1       1.159  11.998   0.879  0.00  0.00    +0.000 C 
ATOM     24  C   UNL     1       1.028  11.494  -0.559  0.00  0.00    +0.002 C 
ATOM     25  C   UNL     1       1.053   9.964  -0.567  0.00  0.00    +0.022 C 
ENDBRANCH  18  20
ENDBRANCH  16  18
ENDBRANCH  14  16
ENDBRANCH   3  14
TORSDOF 5
