REMARK  Name = ZINC23153257
REMARK  3 active torsions:
REMARK  status: ('A' for Active; 'I' for Inactive)
REMARK    1  A    between atoms: C_13  and  N_16
REMARK    2  A    between atoms: C_18  and  C_21
REMARK    3  A    between atoms: C_21  and  O_26
REMARK                            x       y       z     vdW  Elec       q    Type
REMARK                         _______ _______ _______ _____ _____    ______ ____
ROOT
ATOM      1  C   UNL     1       3.707   0.831  -7.776  0.00  0.00    +0.002 A 
ATOM      2  C   UNL     1       4.716   0.207  -7.059  0.00  0.00    +0.004 A 
ATOM      3  C   UNL     1       4.649   0.126  -5.682  0.00  0.00    +0.048 A 
ATOM      4  C   UNL     1       3.568   0.673  -5.010  0.00  0.00    +0.157 A 
ATOM      5  C   UNL     1       2.546   1.307  -5.732  0.00  0.00    +0.111 A 
ATOM      6  C   UNL     1       2.625   1.380  -7.123  0.00  0.00    +0.031 A 
ATOM      7  N   UNL     1       1.634   1.739  -4.818  0.00  0.00    -0.195 NA
ATOM      8  C   UNL     1       2.048   1.406  -3.623  0.00  0.00    +0.291 A 
ATOM      9  O   UNL     1       3.225   0.760  -3.704  0.00  0.00    -0.424 OA
ATOM     10  N   UNL     1       1.379   1.681  -2.451  0.00  0.00    -0.285 N 
ATOM     11  C   UNL     1       2.118   1.169  -1.290  0.00  0.00    +0.111 C 
ATOM     12  C   UNL     1       1.423   1.617  -0.003  0.00  0.00    +0.046 C 
ATOM     13  C   UNL     1      -0.013   1.086   0.008  0.00  0.00    +0.112 C 
ATOM     14  C   UNL     1      -0.746   1.595  -1.236  0.00  0.00    +0.046 C 
ATOM     15  C   UNL     1       0.012   1.147  -2.488  0.00  0.00    +0.111 C 
ENDROOT
BRANCH  13  16
ATOM     16  N   UNL     1      -0.701   1.560   1.212  0.00  0.00    -0.248 N 
ATOM     17  C   UNL     1      -1.320   2.754   1.352  0.00  0.00    +0.136 A 
ATOM     18  C   UNL     1      -1.818   2.775   2.611  0.00  0.00    +0.114 A 
ATOM     19  N   UNL     1      -1.476   1.611   3.174  0.00  0.00    -0.132 NA
ATOM     20  N   UNL     1      -0.815   0.913   2.319  0.00  0.00    -0.065 NA
BRANCH  18  21
ATOM     21  C   UNL     1      -2.599   3.893   3.253  0.00  0.00    +0.111 C 
ATOM     22  C   UNL     1      -1.887   4.363   4.538  0.00  0.00    +0.041 C 
ATOM     23  C   UNL     1      -3.044   4.685   5.517  0.00  0.00    +0.003 C 
ATOM     24  C   UNL     1      -4.073   3.569   5.209  0.00  0.00    +0.003 C 
ATOM     25  C   UNL     1      -3.988   3.387   3.680  0.00  0.00    +0.041 C 
BRANCH  21  26
ATOM     26  O   UNL     1      -2.733   4.983   2.340  0.00  0.00    -0.382 OA
ATOM     27  H   UNL     1      -3.278   5.890   2.642  0.00  0.00    +0.211 HD
ENDBRANCH  21  26
ENDBRANCH  18  21
ENDBRANCH  13  16
TORSDOF 3
