REMARK  Name = ZINC11840528
REMARK  8 active torsions:
REMARK  status: ('A' for Active; 'I' for Inactive)
REMARK    1  A    between atoms: C_1  and  C_2
REMARK    2  A    between atoms: C_2  and  C_10
REMARK    3  A    between atoms: C_3  and  C_4
REMARK    4  A    between atoms: C_10  and  N_72
REMARK    5  A    between atoms: C_17  and  C_19
REMARK    6  A    between atoms: N_21  and  C_22
REMARK    7  A    between atoms: C_22  and  C_23
REMARK    8  A    between atoms: C_23  and  C_29
REMARK                            x       y       z     vdW  Elec       q    Type
REMARK                         _______ _______ _______ _____ _____    ______ ____
ROOT
ATOM      1  C   UNL     1      -4.893   1.867   2.841  0.00  0.00    -0.078 C 
ATOM      2  C   UNL     1      -4.772   1.506   4.326  0.00  0.00    -0.011 C 
ATOM      3  C   UNL     1      -6.017   0.715   4.740  0.00  0.00    -0.021 C 
ATOM      4  C   UNL     1      -6.346  -0.480   3.839  0.00  0.00    -0.011 C 
ATOM      5  C   UNL     1      -6.373  -0.002   2.383  0.00  0.00    -0.078 C 
ATOM      6  C   UNL     1      -7.185   1.490   5.349  0.00  0.00    +0.020 C 
ATOM      7  C   UNL     1      -6.319   0.587   6.232  0.00  0.00    +0.082 C 
ATOM      8  N   UNL     1      -5.071   0.622   2.061  0.00  0.00    +0.382 N 
ATOM      9  H   UNL     1      -4.319  -0.033   2.305  0.00  0.00    -0.081 HD
ENDROOT
BRANCH   7  10
ATOM     10  C   UNL     1      -6.926  -0.706   6.711  0.00  0.00    +0.217 C 
ATOM     11  O   UNL     1      -7.156  -1.597   5.921  0.00  0.00    -0.275 OA
ATOM     12  N   UNL     1      -7.212  -0.873   8.017  0.00  0.00    -0.314 N 
ATOM     13  H   UNL     1      -7.027  -0.160   8.649  0.00  0.00    +0.149 HD
BRANCH  12  14
ATOM     14  C   UNL     1      -7.801  -2.130   8.483  0.00  0.00    +0.115 C 
BRANCH  14  15
ATOM     15  C   UNL     1      -7.902  -2.111  10.010  0.00  0.00    +0.015 C 
ATOM     16  C   UNL     1      -6.511  -1.896  10.613  0.00  0.00    +0.041 C 
ATOM     17  C   UNL     1      -5.611  -3.075  10.233  0.00  0.00    +0.160 C 
ATOM     18  O   UNL     1      -6.202  -4.292  10.694  0.00  0.00    -0.380 OA
ATOM     19  C   UNL     1      -7.484  -4.569  10.128  0.00  0.00    +0.160 C 
ATOM     20  C   UNL     1      -8.459  -3.450  10.503  0.00  0.00    +0.041 C 
BRANCH  15  21
ATOM     21  C   UNL     1      -8.818  -0.995  10.441  0.00  0.00    -0.040 A 
ATOM     22  C   UNL     1     -10.159  -1.032  10.105  0.00  0.00    +0.004 A 
ATOM     23  C   UNL     1     -11.000  -0.010  10.505  0.00  0.00    +0.000 A 
ATOM     24  C   UNL     1     -10.499   1.053  11.231  0.00  0.00    +0.000 A 
ATOM     25  C   UNL     1      -9.157   1.093  11.562  0.00  0.00    +0.000 A 
ATOM     26  C   UNL     1      -8.317   0.069  11.168  0.00  0.00    +0.004 A 
ENDBRANCH  15  21
ENDBRANCH  14  15
ENDBRANCH  12  14
ENDBRANCH   7  10
BRANCH   8  27
ATOM     27  C   UNL     1      -4.998   0.919   0.617  0.00  0.00    -0.048 C 
BRANCH  27  29
ATOM     28  C   UNL     1      -3.913   3.290   0.485  0.00  0.00    +0.037 C 
ATOM     29  C   UNL     1      -3.799   1.793   0.353  0.00  0.00    -0.089 C 
ATOM     30  C   UNL     1      -2.643   1.245   0.004  0.00  0.00    +0.005 C 
BRANCH  30  31
ATOM     31  C   UNL     1      -1.511   2.103  -0.403  0.00  0.00    -0.025 A 
ATOM     32  C   UNL     1      -1.741   3.260  -1.149  0.00  0.00    +0.008 A 
ATOM     33  C   UNL     1      -0.680   4.060  -1.521  0.00  0.00    +0.001 A 
ATOM     34  C   UNL     1       0.610   3.715  -1.159  0.00  0.00    +0.000 A 
ATOM     35  C   UNL     1       0.846   2.567  -0.424  0.00  0.00    +0.001 A 
ATOM     36  C   UNL     1      -0.206   1.759  -0.045  0.00  0.00    +0.008 A 
ENDBRANCH  30  31
ENDBRANCH  27  29
ENDBRANCH   8  27
TORSDOF 7
