REMARK  Name = ZINC00646589
REMARK  7 active torsions:
REMARK  status: ('A' for Active; 'I' for Inactive)
REMARK    1  A    between atoms: C_1  and  C_2
REMARK    2  A    between atoms: C_8  and  C_10
REMARK    3  A    between atoms: C_10  and  C_12
REMARK    4  A    between atoms: C_10  and  S_13
REMARK    5  A    between atoms: S_13  and  C_14
REMARK    6  A    between atoms: C_16  and  C_24
REMARK    7  A    between atoms: C_18  and  C_20
REMARK                            x       y       z     vdW  Elec       q    Type
REMARK                         _______ _______ _______ _____ _____    ______ ____
ROOT
ATOM      1  C   UNL     1      -2.663   2.514   2.322  0.00  0.00    +0.190 A 
ATOM      2  N   UNL     1      -2.019   2.753   3.454  0.00  0.00    -0.222 NA
ATOM      3  C   UNL     1      -0.704   2.568   3.538  0.00  0.00    +0.076 A 
ATOM      4  C   UNL     1      -0.010   2.117   2.412  0.00  0.00    +0.060 A 
ATOM      5  C   UNL     1      -0.722   1.881   1.250  0.00  0.00    +0.148 A 
ATOM      6  N   UNL     1      -2.029   2.091   1.237  0.00  0.00    -0.218 NA
ENDROOT
BRANCH   3   7
ATOM      7  C   UNL     1       0.014   2.835   4.808  0.00  0.00    +0.000 A 
ATOM      8  C   UNL     1       1.391   2.632   4.889  0.00  0.00    +0.010 A 
ATOM      9  C   UNL     1       2.055   2.888   6.072  0.00  0.00    +0.001 A 
ATOM     10  C   UNL     1       1.355   3.333   7.178  0.00  0.00    +0.000 A 
ATOM     11  C   UNL     1      -0.012   3.531   7.106  0.00  0.00    +0.001 A 
ATOM     12  C   UNL     1      -0.686   3.284   5.927  0.00  0.00    +0.010 A 
ENDBRANCH   3   7
BRANCH   5  13
ATOM     13  C   UNL     1      -0.017   1.395   0.010  0.00  0.00    +0.434 C 
ATOM     14  F   UNL     1       0.002  -0.004   0.002  0.00  0.00    -0.164 F 
ATOM     15  F   UNL     1       1.296   1.879  -0.000  0.00  0.00    -0.164 F 
ATOM     16  F   UNL     1      -0.694   1.858  -1.124  0.00  0.00    -0.164 F 
ENDBRANCH   5  13
BRANCH   1  17
ATOM     17  S   UNL     1      -4.404   2.773   2.253  0.00  0.00    -0.074 S 
BRANCH  17  18
ATOM     18  C   UNL     1      -4.723   2.306   0.533  0.00  0.00    +0.137 C 
ATOM     19  C   UNL     1      -4.022   3.292  -0.402  0.00  0.00    +0.029 C 
BRANCH  18  27
ATOM     20  C   UNL     1     -11.615   2.572  -0.524  0.00  0.00    +0.089 C 
ATOM     21  C   UNL     1     -10.245   2.045  -0.864  0.00  0.00    +0.136 A 
ATOM     22  C   UNL     1      -9.081   2.369  -0.257  0.00  0.00    +0.091 A 
ATOM     23  C   UNL     1      -8.107   1.603  -0.952  0.00  0.00    +0.168 A 
ATOM     24  N   UNL     1      -8.756   0.932  -1.867  0.00  0.00    -0.063 NA
ATOM     25  O   UNL     1      -9.942   1.163  -1.827  0.00  0.00    -0.358 OA
ATOM     26  N   UNL     1      -6.734   1.577  -0.710  0.00  0.00    -0.267 N 
ATOM     27  C   UNL     1      -6.207   2.334   0.273  0.00  0.00    +0.231 C 
ATOM     28  O   UNL     1      -6.928   3.038   0.947  0.00  0.00    -0.274 OA
ATOM     29  H   UNL     1      -6.157   1.013  -1.250  0.00  0.00    +0.156 HD
ENDBRANCH  18  27
ENDBRANCH  17  18
ENDBRANCH   1  17
TORSDOF 5
