REMARK  Name = ZINC06134157
REMARK  13 active torsions:
REMARK  status: ('A' for Active; 'I' for Inactive)
REMARK    1  A    between atoms: C_1  and  C_2
REMARK    2  A    between atoms: C_2  and  C_3
REMARK    3  A    between atoms: C_2  and  C_4
REMARK    4  A    between atoms: C_4  and  C_5
REMARK    5  A    between atoms: C_5  and  N_6
REMARK    6  A    between atoms: C_7  and  C_9
REMARK    7  A    between atoms: C_9  and  C_11
REMARK    8  A    between atoms: C_9  and  N_18
REMARK    9  A    between atoms: N_18  and  C_19
REMARK   10  A    between atoms: C_19  and  C_20
REMARK   11  A    between atoms: C_27  and  C_29
REMARK   12  A    between atoms: C_30  and  N_37
REMARK   13  A    between atoms: C_31  and  C_34
REMARK                            x       y       z     vdW  Elec       q    Type
REMARK                         _______ _______ _______ _____ _____    ______ ____
ROOT
ATOM      1  N   UNL     1       0.752  -0.219   0.041  0.00  0.00    -0.277 N 
ATOM      2  C   UNL     1       1.554   0.383  -0.860  0.00  0.00    +0.258 C 
ATOM      3  O   UNL     1       1.597  -0.026  -2.005  0.00  0.00    -0.269 OA
ENDROOT
BRANCH   2   4
ATOM      4  C   UNL     1       2.372   1.530  -0.461  0.00  0.00    +0.115 A 
ATOM      5  C   UNL     1       3.569   1.995  -1.008  0.00  0.00    +0.076 A 
ATOM      6  C   UNL     1       4.053   3.126  -0.349  0.00  0.00    +0.155 A 
ATOM      7  N   UNL     1       3.377   3.618   0.665  0.00  0.00    -0.203 NA
ATOM      8  S   UNL     1       2.104   2.707   0.847  0.00  0.00    +0.019 S 
BRANCH   6   9
ATOM      9  C   UNL     1       5.310   3.761  -0.786  0.00  0.00    +0.262 C 
ATOM     10  O   UNL     1       5.930   3.301  -1.725  0.00  0.00    -0.269 OA
ATOM     11  N   UNL     1       5.771   4.853  -0.145  0.00  0.00    -0.324 N 
ATOM     12  H   UNL     1       5.276   5.221   0.604  0.00  0.00    +0.145 HD
ATOM     13  H   UNL     1       6.598   5.271  -0.432  0.00  0.00    +0.145 HD
ENDBRANCH   6   9
BRANCH   5  14
ATOM     14  N   UNL     1       4.207   1.400  -2.088  0.00  0.00    -0.355 N 
ATOM     15  H   UNL     1       3.821   0.614  -2.506  0.00  0.00    +0.142 HD
ATOM     16  H   UNL     1       5.038   1.770  -2.425  0.00  0.00    +0.142 HD
ENDBRANCH   5  14
ENDBRANCH   2   4
BRANCH   1  17
ATOM     17  C   UNL     1       0.003  -1.421  -0.333  0.00  0.00    +0.193 C 
BRANCH  17  18
ATOM     18  C   UNL     1      -1.395  -1.034  -0.742  0.00  0.00    -0.018 A 
ATOM     19  C   UNL     1      -2.086  -0.076  -0.023  0.00  0.00    +0.009 A 
ATOM     20  C   UNL     1      -3.365   0.283  -0.401  0.00  0.00    +0.038 A 
ATOM     21  C   UNL     1      -3.961  -0.325  -1.493  0.00  0.00    +0.123 A 
ATOM     22  C   UNL     1      -3.270  -1.288  -2.210  0.00  0.00    +0.038 A 
ATOM     23  C   UNL     1      -1.988  -1.641  -1.834  0.00  0.00    +0.009 A 
ATOM     24  F   UNL     1      -5.214   0.021  -1.860  0.00  0.00    -0.205 F 
ENDBRANCH  17  18
BRANCH  17  26
ATOM     25  N   UNL     1       0.596  -3.536   0.803  0.00  0.00    -0.313 N 
ATOM     26  C   UNL     1      -0.060  -2.360   0.844  0.00  0.00    +0.238 C 
ATOM     27  O   UNL     1      -0.702  -2.057   1.827  0.00  0.00    -0.273 OA
ATOM     28  H   UNL     1       1.110  -3.778   0.017  0.00  0.00    +0.149 HD
BRANCH  25  29
ATOM     29  C   UNL     1       0.535  -4.449   1.947  0.00  0.00    +0.104 C 
BRANCH  29  30
ATOM     30  C   UNL     1       1.361  -5.701   1.645  0.00  0.00    +0.022 C 
BRANCH  30  32
ATOM     31  C   UNL     1       2.017  -7.959   2.491  0.00  0.00    +0.007 C 
ATOM     32  C   UNL     1       1.297  -6.655   2.840  0.00  0.00    -0.016 C 
ATOM     33  C   UNL     1       1.975  -6.005   4.048  0.00  0.00    +0.007 C 
ENDBRANCH  30  32
ENDBRANCH  29  30
ENDBRANCH  25  29
ENDBRANCH  17  26
ENDBRANCH   1  17
BRANCH   1  34
ATOM     34  C   UNL     1       0.630   0.329   1.394  0.00  0.00    +0.144 C 
BRANCH  34  35
ATOM     35  C   UNL     1       1.769  -0.174   2.244  0.00  0.00    -0.030 A 
ATOM     36  C   UNL     1       1.517  -1.033   3.298  0.00  0.00    +0.008 A 
ATOM     37  C   UNL     1       2.561  -1.498   4.075  0.00  0.00    +0.038 A 
ATOM     38  C   UNL     1       3.858  -1.096   3.804  0.00  0.00    +0.123 A 
ATOM     39  C   UNL     1       4.108  -0.232   2.751  0.00  0.00    +0.038 A 
ATOM     40  C   UNL     1       3.063   0.228   1.972  0.00  0.00    +0.008 A 
ATOM     41  F   UNL     1       4.879  -1.547   4.566  0.00  0.00    -0.205 F 
ENDBRANCH  34  35
ENDBRANCH   1  34
TORSDOF 11
