REMARK  Name = ZINC04087572
REMARK  5 active torsions:
REMARK  status: ('A' for Active; 'I' for Inactive)
REMARK    1  A    between atoms: C_1  and  C_2
REMARK    2  A    between atoms: C_7  and  N_8
REMARK    3  A    between atoms: C_9  and  N_16
REMARK    4  A    between atoms: C_17  and  C_19
REMARK    5  A    between atoms: C_20  and  C_21
REMARK                            x       y       z     vdW  Elec       q    Type
REMARK                         _______ _______ _______ _____ _____    ______ ____
ROOT
ATOM      1  N   UNL     1       1.822  -0.034   2.053  0.00  0.00    -0.218 N 
ATOM      2  C   UNL     1       1.536  -0.431   3.317  0.00  0.00    +0.133 A 
ATOM      3  C   UNL     1       1.458   0.699   4.101  0.00  0.00    +0.026 A 
ATOM      4  C   UNL     1       1.702   1.794   3.289  0.00  0.00    +0.079 A 
ATOM      5  N   UNL     1       1.928   1.358   2.058  0.00  0.00    -0.168 NA
ATOM      6  C   UNL     1       1.666   3.167   3.959  0.00  0.00    +0.127 C 
ATOM      7  S   UNL     1       0.820   2.788   5.549  0.00  0.00    -0.150 S 
ATOM      8  C   UNL     1       1.177   0.983   5.575  0.00  0.00    +0.110 C 
ENDROOT
BRANCH   1  15
ATOM      9  C   UNL     1       0.627   0.745  -0.410  0.00  0.00    +0.046 C 
ATOM     10  C   UNL     1       1.422  -0.528  -0.279  0.00  0.00    -0.025 A 
ATOM     11  C   UNL     1       1.593  -1.352  -1.374  0.00  0.00    +0.005 A 
ATOM     12  C   UNL     1       2.323  -2.521  -1.254  0.00  0.00    +0.000 A 
ATOM     13  C   UNL     1       2.883  -2.868  -0.039  0.00  0.00    +0.002 A 
ATOM     14  C   UNL     1       2.716  -2.048   1.060  0.00  0.00    +0.028 A 
ATOM     15  C   UNL     1       1.989  -0.871   0.941  0.00  0.00    +0.070 A 
ENDBRANCH   1  15
BRANCH   2  16
ATOM     16  N   UNL     1       1.352  -1.744   3.746  0.00  0.00    -0.267 N 
ATOM     17  C   UNL     1       1.631  -2.081   5.021  0.00  0.00    +0.242 C 
ATOM     18  O   UNL     1       2.138  -1.266   5.770  0.00  0.00    -0.270 OA
ATOM     19  H   UNL     1       1.024  -2.414   3.127  0.00  0.00    +0.157 HD
BRANCH  17  20
ATOM     20  C   UNL     1       1.326  -3.427   5.504  0.00  0.00    +0.068 C 
ATOM     21  C   UNL     1       1.539  -3.744   6.799  0.00  0.00    +0.013 C 
BRANCH  21  22
ATOM     22  C   UNL     1       1.782  -2.682   7.785  0.00  0.00    -0.021 A 
ATOM     23  C   UNL     1       0.987  -1.530   7.787  0.00  0.00    +0.012 A 
ATOM     24  C   UNL     1       1.217  -0.536   8.713  0.00  0.00    +0.050 A 
ATOM     25  C   UNL     1       2.236  -0.672   9.646  0.00  0.00    +0.166 A 
ATOM     26  C   UNL     1       3.034  -1.817   9.650  0.00  0.00    +0.167 A 
ATOM     27  C   UNL     1       2.807  -2.821   8.729  0.00  0.00    +0.057 A 
ATOM     28  O   UNL     1       3.952  -1.705  10.655  0.00  0.00    -0.453 OA
ATOM     29  C   UNL     1       3.974  -0.307  11.000  0.00  0.00    +0.466 C 
ATOM     30  O   UNL     1       2.656   0.153  10.647  0.00  0.00    -0.453 OA
ENDBRANCH  21  22
ENDBRANCH  17  20
ENDBRANCH   2  16
TORSDOF 4
