REMARK  Name = ZINC12895839
REMARK  6 active torsions:
REMARK  status: ('A' for Active; 'I' for Inactive)
REMARK    1  A    between atoms: C_1  and  C_2
REMARK    2  A    between atoms: C_2  and  C_4
REMARK    3  A    between atoms: C_2  and  N_11
REMARK    4  A    between atoms: C_17  and  N_20
REMARK    5  A    between atoms: N_20  and  S_21
REMARK    6  A    between atoms: S_21  and  C_24
REMARK                            x       y       z     vdW  Elec       q    Type
REMARK                         _______ _______ _______ _____ _____    ______ ____
ROOT
ATOM      1  N   UNL     1      -4.661   6.476  -2.732  0.00  0.00    -0.293 N 
ATOM      2  C   UNL     1      -3.514   6.167  -3.369  0.00  0.00    +0.303 C 
ATOM      3  O   UNL     1      -3.378   6.444  -4.545  0.00  0.00    -0.253 OA
ATOM      4  N   UNL     1      -2.518   5.551  -2.703  0.00  0.00    -0.286 N 
ATOM      5  C   UNL     1      -1.308   5.106  -3.408  0.00  0.00    +0.111 C 
ATOM      6  C   UNL     1      -1.084   3.619  -3.114  0.00  0.00    +0.039 C 
ATOM      7  C   UNL     1      -1.043   3.404  -1.599  0.00  0.00    +0.080 C 
ATOM      8  C   UNL     1      -2.382   3.821  -0.987  0.00  0.00    +0.039 C 
ATOM      9  C   UNL     1      -2.621   5.310  -1.257  0.00  0.00    +0.111 C 
ATOM     10  H   UNL     1      -4.740   6.326  -1.776  0.00  0.00    +0.151 HD
ENDROOT
BRANCH   1  12
ATOM     11  C   UNL     1      -6.670   5.904  -4.003  0.00  0.00    +0.033 C 
ATOM     12  C   UNL     1      -5.787   7.039  -3.481  0.00  0.00    +0.103 C 
BRANCH  12  13
ATOM     13  C   UNL     1      -6.597   7.931  -2.576  0.00  0.00    -0.009 A 
ATOM     14  C   UNL     1      -6.606   7.706  -1.212  0.00  0.00    +0.007 A 
ATOM     15  C   UNL     1      -7.350   8.524  -0.382  0.00  0.00    +0.000 A 
ATOM     16  C   UNL     1      -8.085   9.567  -0.915  0.00  0.00    +0.001 A 
ATOM     17  C   UNL     1      -8.076   9.792  -2.278  0.00  0.00    +0.020 A 
ATOM     18  C   UNL     1      -7.328   8.977  -3.109  0.00  0.00    +0.046 A 
ATOM     19 CL   UNL     1      -7.311   9.264  -4.821  0.00  0.00    -0.083 Cl
ENDBRANCH  12  13
ENDBRANCH   1  12
BRANCH   7  20
ATOM     20  N   UNL     1      -0.796   1.988  -1.314  0.00  0.00    -0.186 NA
ATOM     21  H   UNL     1      -1.167   1.305  -1.894  0.00  0.00    +0.148 HD
BRANCH  20  22
ATOM     22  S   UNL     1       0.117   1.555  -0.003  0.00  0.00    +0.065 S 
ATOM     23  O   UNL     1       0.151   0.135   0.018  0.00  0.00    -0.153 OA
ATOM     24  O   UNL     1       1.298   2.344  -0.051  0.00  0.00    -0.153 OA
BRANCH  22  25
ATOM     25  C   UNL     1      -0.766   2.059   1.437  0.00  0.00    +0.142 A 
ATOM     26  C   UNL     1      -1.678   1.369   2.163  0.00  0.00    +0.036 A 
ATOM     27  C   UNL     1      -2.249   1.971   3.269  0.00  0.00    +0.010 A 
ATOM     28  C   UNL     1      -1.879   3.234   3.594  0.00  0.00    +0.047 A 
ATOM     29  S   UNL     1      -0.684   3.607   2.321  0.00  0.00    -0.077 S 
ENDBRANCH  22  25
ENDBRANCH  20  22
ENDBRANCH   7  20
TORSDOF 5
