REMARK  Name = ZINC21226112
REMARK  3 active torsions:
REMARK  status: ('A' for Active; 'I' for Inactive)
REMARK    1  A    between atoms: C_4  and  N_32
REMARK    2  A    between atoms: C_5  and  C_7
REMARK    3  A    between atoms: C_12  and  C_17
REMARK                            x       y       z     vdW  Elec       q    Type
REMARK                         _______ _______ _______ _____ _____    ______ ____
ROOT
ATOM      1  C   UNL     1      -2.885   2.218   2.431  0.00  0.00    +0.138 C 
ATOM      2  C   UNL     1      -2.030   1.766   1.271  0.00  0.00    +0.036 C 
ATOM      3  C   UNL     1      -0.701   1.584   1.296  0.00  0.00    +0.017 C 
ATOM      4  C   UNL     1       0.041   1.116   0.055  0.00  0.00    +0.059 C 
ATOM      5  C   UNL     1      -0.658   1.640  -1.198  0.00  0.00    +0.033 C 
ATOM      6  C   UNL     1      -2.094   1.099  -1.192  0.00  0.00    +0.088 C 
ATOM      7  C   UNL     1      -2.758   1.530   0.081  0.00  0.00    +0.163 C 
ATOM      8  O   UNL     1      -3.964   1.681   0.091  0.00  0.00    -0.292 OA
ATOM      9  N   UNL     1       0.086   1.775   2.389  0.00  0.00    -0.316 N 
ATOM     10  C   UNL     1       0.026   2.882   3.228  0.00  0.00    +0.052 A 
ATOM     11  C   UNL     1       1.097   3.743   3.394  0.00  0.00    +0.025 A 
ATOM     12  C   UNL     1       1.013   4.757   4.332  0.00  0.00    +0.002 A 
ATOM     13  C   UNL     1      -0.131   4.909   5.095  0.00  0.00    +0.002 A 
ATOM     14  C   UNL     1      -1.211   4.062   4.915  0.00  0.00    +0.025 A 
ATOM     15  C   UNL     1      -1.136   3.057   3.964  0.00  0.00    +0.049 A 
ATOM     16  N   UNL     1      -2.214   2.210   3.713  0.00  0.00    -0.331 N 
ATOM     17  H   UNL     1       0.839   1.022   2.664  0.00  0.00    +0.152 HD
ATOM     18  H   UNL     1      -2.552   1.528   4.507  0.00  0.00    +0.147 HD
ENDROOT
BRANCH   5  19
ATOM     19  C   UNL     1       0.065   1.154  -2.427  0.00  0.00    -0.025 A 
ATOM     20  C   UNL     1       0.192  -0.202  -2.664  0.00  0.00    +0.005 A 
ATOM     21  C   UNL     1       0.856  -0.648  -3.792  0.00  0.00    +0.000 A 
ATOM     22  C   UNL     1       1.392   0.262  -4.684  0.00  0.00    +0.001 A 
ATOM     23  C   UNL     1       1.266   1.617  -4.448  0.00  0.00    +0.020 A 
ATOM     24  C   UNL     1       0.598   2.064  -3.322  0.00  0.00    +0.044 A 
ATOM     25 CL   UNL     1       0.432   3.768  -3.030  0.00  0.00    -0.083 Cl
ENDBRANCH   5  19
BRANCH   1  30
ATOM     26  C   UNL     1      -3.171   5.675   0.941  0.00  0.00    +0.000 A 
ATOM     27  C   UNL     1      -4.245   6.190   1.642  0.00  0.00    +0.002 A 
ATOM     28  C   UNL     1      -4.880   5.419   2.598  0.00  0.00    +0.033 A 
ATOM     29  C   UNL     1      -4.440   4.133   2.853  0.00  0.00    +0.131 A 
ATOM     30  C   UNL     1      -3.365   3.619   2.152  0.00  0.00    +0.007 A 
ATOM     31  C   UNL     1      -2.728   4.392   1.200  0.00  0.00    +0.008 A 
BRANCH  29  32
ATOM     32  N   UNL     1      -5.119   3.308   3.877  0.00  0.00    +0.057 N 
ATOM     33  O   UNL     1      -6.126   3.722   4.423  0.00  0.00    -0.126 OA
ATOM     34  O   UNL     1      -4.670   2.216   4.175  0.00  0.00    -0.126 OA
ENDBRANCH  29  32
ENDBRANCH   1  30
TORSDOF 3
