REMARK  Name = ZINC66390443
REMARK  6 active torsions:
REMARK  status: ('A' for Active; 'I' for Inactive)
REMARK    1  A    between atoms: C_1  and  C_2
REMARK    2  A    between atoms: C_2  and  C_4
REMARK    3  A    between atoms: C_2  and  N_10
REMARK    4  A    between atoms: N_10  and  C_11
REMARK    5  A    between atoms: C_11  and  C_12
REMARK    6  A    between atoms: C_12  and  C_18
REMARK                            x       y       z     vdW  Elec       q    Type
REMARK                         _______ _______ _______ _____ _____    ______ ____
ROOT
ATOM      1  N   UNL     1       0.791  -0.448  -1.209  0.00  0.00    +0.387 N 
ATOM      2  H   UNL     1       1.631   0.112  -1.211  0.00  0.00    -0.085 HD
ATOM      3  H   UNL     1       1.038  -1.425  -1.261  0.00  0.00    -0.085 HD
ENDROOT
BRANCH   1   5
ATOM      4  C   UNL     1      -0.227   1.302   0.169  0.00  0.00    -0.004 C 
ATOM      5  C   UNL     1       0.040  -0.198   0.028  0.00  0.00    +0.013 C 
BRANCH   5   6
ATOM      6  C   UNL     1       0.842  -0.678   1.210  0.00  0.00    +0.206 C 
ATOM      7  O   UNL     1       1.933  -1.179   1.038  0.00  0.00    -0.277 OA
ATOM      8  N   UNL     1       0.348  -0.550   2.457  0.00  0.00    -0.242 N 
ATOM      9  C   UNL     1       1.066  -0.980   3.514  0.00  0.00    +0.303 C 
ATOM     10  O   UNL     1       2.159  -1.482   3.342  0.00  0.00    -0.253 OA
ATOM     11  N   UNL     1       0.572  -0.853   4.761  0.00  0.00    -0.313 N 
ATOM     12  H   UNL     1      -0.524  -0.149   2.594  0.00  0.00    +0.159 HD
ATOM     13  H   UNL     1      -0.301  -0.452   4.898  0.00  0.00    +0.146 HD
ATOM     14  H   UNL     1       1.089  -1.162   5.521  0.00  0.00    +0.146 HD
ENDBRANCH   5   6
ENDBRANCH   1   5
BRANCH   1  15
ATOM     15  C   UNL     1      -0.039  -0.090  -2.367  0.00  0.00    -0.070 C 
BRANCH  15  16
ATOM     16  C   UNL     1       0.690  -0.476  -3.655  0.00  0.00    -0.015 C 
ATOM     17  C   UNL     1       2.082   0.164  -3.668  0.00  0.00    +0.038 C 
ATOM     18  C   UNL     1       1.934   1.688  -3.670  0.00  0.00    +0.160 C 
ATOM     19  O   UNL     1       1.160   2.089  -4.802  0.00  0.00    -0.380 OA
ATOM     20  C   UNL     1      -0.167   1.559  -4.820  0.00  0.00    +0.160 C 
ATOM     21  C   UNL     1      -0.103   0.030  -4.864  0.00  0.00    +0.038 C 
BRANCH  16  22
ATOM     22  C   UNL     1       0.823  -1.975  -3.731  0.00  0.00    -0.043 A 
ATOM     23  C   UNL     1       0.184  -2.772  -2.799  0.00  0.00    +0.007 A 
ATOM     24  C   UNL     1       0.304  -4.147  -2.867  0.00  0.00    +0.038 A 
ATOM     25  C   UNL     1       1.064  -4.726  -3.869  0.00  0.00    +0.123 A 
ATOM     26  C   UNL     1       1.703  -3.927  -4.802  0.00  0.00    +0.038 A 
ATOM     27  C   UNL     1       1.577  -2.552  -4.735  0.00  0.00    +0.007 A 
ATOM     28  F   UNL     1       1.183  -6.071  -3.937  0.00  0.00    -0.205 F 
ENDBRANCH  16  22
ENDBRANCH  15  16
ENDBRANCH   1  15
TORSDOF 5
