REMARK  Name = ZINC45915343
REMARK  6 active torsions:
REMARK  status: ('A' for Active; 'I' for Inactive)
REMARK    1  A    between atoms: C_1  and  C_2
REMARK    2  A    between atoms: C_2  and  C_4
REMARK    3  A    between atoms: C_2  and  S_19
REMARK    4  A    between atoms: N_6  and  C_7
REMARK    5  A    between atoms: S_19  and  C_20
REMARK    6  A    between atoms: C_24  and  C_26
REMARK                            x       y       z     vdW  Elec       q    Type
REMARK                         _______ _______ _______ _____ _____    ______ ____
ROOT
ATOM      1  C   UNL     1      -1.412  -0.524   0.013  0.00  0.00    +0.230 C 
ATOM      2  O   UNL     1      -1.931  -0.891  -1.021  0.00  0.00    -0.274 OA
ATOM      3  N   UNL     1      -2.103  -0.575   1.169  0.00  0.00    -0.285 N 
ATOM      4  H   UNL     1      -1.668  -0.345   2.004  0.00  0.00    +0.155 HD
ENDROOT
BRANCH   3   5
ATOM      5  C   UNL     1      -3.450  -0.960   1.163  0.00  0.00    +0.035 A 
ATOM      6  C   UNL     1      -4.343  -0.372   2.052  0.00  0.00    +0.025 A 
ATOM      7  C   UNL     1      -5.671  -0.748   2.052  0.00  0.00    +0.029 A 
ATOM      8  C   UNL     1      -6.117  -1.714   1.163  0.00  0.00    +0.067 A 
ATOM      9  C   UNL     1      -5.223  -2.307   0.269  0.00  0.00    +0.069 A 
ATOM     10  C   UNL     1      -3.891  -1.923   0.268  0.00  0.00    +0.051 A 
ATOM     11  N   UNL     1      -5.953  -3.224  -0.483  0.00  0.00    -0.306 N 
ATOM     12  H   UNL     1      -5.599  -3.789  -1.188  0.00  0.00    +0.170 HD
ATOM     13  C   UNL     1      -7.233  -3.191  -0.068  0.00  0.00    +0.325 A 
ATOM     14  O   UNL     1      -8.134  -3.873  -0.520  0.00  0.00    -0.247 OA
ATOM     15  N   UNL     1      -7.365  -2.291   0.925  0.00  0.00    -0.306 N 
ATOM     16  H   UNL     1      -8.187  -2.080   1.394  0.00  0.00    +0.170 HD
ENDBRANCH   3   5
BRANCH   1  18
ATOM     17  C   UNL     1      -0.007   1.520   0.020  0.00  0.00    +0.029 C 
ATOM     18  C   UNL     1       0.004  -0.010   0.003  0.00  0.00    +0.137 C 
BRANCH  18  19
ATOM     19  S   UNL     1       0.849  -0.592  -1.493  0.00  0.00    -0.075 S 
BRANCH  19  20
ATOM     20  C   UNL     1       2.510  -0.042  -1.286  0.00  0.00    +0.168 A 
ATOM     21  N   UNL     1       3.528  -0.242  -2.168  0.00  0.00    -0.339 N 
ATOM     22  H   UNL     1       3.469  -0.709  -3.017  0.00  0.00    +0.167 HD
ATOM     23  C   UNL     1       4.652   0.340  -1.635  0.00  0.00    +0.113 A 
ATOM     24  C   UNL     1       4.291   0.877  -0.444  0.00  0.00    +0.090 A 
ATOM     25  N   UNL     1       2.970   0.632  -0.259  0.00  0.00    -0.222 NA
BRANCH  24  26
ATOM     26  C   UNL     1       5.181   1.610   0.489  0.00  0.00    +0.002 A 
ATOM     27  C   UNL     1       6.524   1.802   0.169  0.00  0.00    +0.010 A 
ATOM     28  C   UNL     1       7.348   2.483   1.041  0.00  0.00    +0.001 A 
ATOM     29  C   UNL     1       6.843   2.976   2.231  0.00  0.00    +0.000 A 
ATOM     30  C   UNL     1       5.511   2.789   2.554  0.00  0.00    +0.001 A 
ATOM     31  C   UNL     1       4.677   2.114   1.687  0.00  0.00    +0.010 A 
ENDBRANCH  24  26
ENDBRANCH  19  20
ENDBRANCH  18  19
ENDBRANCH   1  18
TORSDOF 5
