REMARK  Name = ZINC12446447
REMARK  14 active torsions:
REMARK  status: ('A' for Active; 'I' for Inactive)
REMARK    1  A    between atoms: C_1  and  C_2
REMARK    2  A    between atoms: C_2  and  C_3
REMARK    3  A    between atoms: C_2  and  C_4
REMARK    4  A    between atoms: C_4  and  N_57
REMARK    5  A    between atoms: C_5  and  N_57
REMARK    6  A    between atoms: C_6  and  C_7
REMARK    7  A    between atoms: C_6  and  N_57
REMARK    8  A    between atoms: C_10  and  S_19
REMARK    9  A    between atoms: N_11  and  C_12
REMARK   10  A    between atoms: C_12  and  C_13
REMARK   11  A    between atoms: S_19  and  C_22
REMARK   12  A    between atoms: C_22  and  C_23
REMARK   13  A    between atoms: C_23  and  C_24
REMARK   14  A    between atoms: C_23  and  C_25
REMARK                            x       y       z     vdW  Elec       q    Type
REMARK                         _______ _______ _______ _____ _____    ______ ____
ROOT
ATOM      1  C   UNL     1      -2.628  -0.646   1.764  0.00  0.00    +0.024 A 
ATOM      2  C   UNL     1      -3.373  -0.582   2.884  0.00  0.00    +0.133 A 
ATOM      3  N   UNL     1      -4.234   0.439   2.752  0.00  0.00    -0.220 NA
ATOM      4  C   UNL     1      -4.046   1.013   1.595  0.00  0.00    +0.252 A 
ATOM      5  N   UNL     1      -3.051   0.369   0.948  0.00  0.00    -0.311 N 
ENDROOT
BRANCH   4   6
ATOM      6  S   UNL     1      -4.944   2.397   0.978  0.00  0.00    +0.030 S 
ATOM      7  O   UNL     1      -5.218   3.192   2.124  0.00  0.00    -0.166 OA
ATOM      8  O   UNL     1      -4.145   2.905  -0.082  0.00  0.00    -0.166 OA
BRANCH   6   9
ATOM      9  C   UNL     1      -6.484   1.699   0.319  0.00  0.00    +0.178 C 
BRANCH   9  10
ATOM     10  C   UNL     1      -7.351   2.824  -0.249  0.00  0.00    +0.004 C 
ATOM     11  C   UNL     1      -6.646   3.454  -1.452  0.00  0.00    +0.009 C 
ATOM     12  C   UNL     1      -8.700   2.253  -0.691  0.00  0.00    +0.009 C 
ENDBRANCH   9  10
ENDBRANCH   6   9
ENDBRANCH   4   6
BRANCH   1  13
ATOM     13  C   UNL     1      -1.537  -1.642   1.467  0.00  0.00    -0.023 C 
BRANCH  13  15
ATOM     14  C   UNL     1      -2.527  -2.312  -0.638  0.00  0.00    -0.096 C 
ATOM     15  N   UNL     1      -2.114  -2.769   0.705  0.00  0.00    +0.382 N 
ATOM     16  H   UNL     1      -2.938  -3.122   1.205  0.00  0.00    -0.082 HD
BRANCH  15  17
ATOM     17  C   UNL     1      -1.122  -3.858   0.586  0.00  0.00    -0.076 C 
BRANCH  17  19
ATOM     18  C   UNL     1      -2.422  -5.283   2.174  0.00  0.00    +0.005 C 
ATOM     19  C   UNL     1      -1.069  -4.620   1.911  0.00  0.00    -0.034 C 
ATOM     20  C   UNL     1       0.019  -5.694   1.839  0.00  0.00    +0.005 C 
ENDBRANCH  17  19
ENDBRANCH  15  17
ENDBRANCH  13  15
ENDBRANCH   1  13
BRANCH   5  21
ATOM     21  C   UNL     1      -2.525   0.692  -0.381  0.00  0.00    +0.159 C 
BRANCH  21  22
ATOM     22  C   UNL     1      -1.293   1.548  -0.239  0.00  0.00    -0.028 A 
ATOM     23  C   UNL     1      -0.056   0.956  -0.070  0.00  0.00    +0.005 A 
ATOM     24  C   UNL     1       1.075   1.741   0.054  0.00  0.00    +0.000 A 
ATOM     25  C   UNL     1       0.968   3.119   0.015  0.00  0.00    +0.000 A 
ATOM     26  C   UNL     1      -0.270   3.711  -0.148  0.00  0.00    +0.000 A 
ATOM     27  C   UNL     1      -1.401   2.926  -0.273  0.00  0.00    +0.005 A 
ENDBRANCH  21  22
ENDBRANCH   5  21
TORSDOF 9
