REMARK  Name = ZINC22921113
REMARK  9 active torsions:
REMARK  status: ('A' for Active; 'I' for Inactive)
REMARK    1  A    between atoms: C_1  and  N_2
REMARK    2  A    between atoms: C_10  and  C_11
REMARK    3  A    between atoms: C_11  and  N_12
REMARK    4  A    between atoms: C_23  and  C_27
REMARK    5  A    between atoms: N_25  and  C_26
REMARK    6  A    between atoms: C_27  and  C_28
REMARK    7  A    between atoms: C_28  and  C_29
REMARK    8  A    between atoms: N_31  and  C_32
REMARK    9  A    between atoms: C_32  and  C_33
REMARK                            x       y       z     vdW  Elec       q    Type
REMARK                         _______ _______ _______ _____ _____    ______ ____
ROOT
ATOM      1  N   UNL     1      -1.709   0.542   2.751  0.00  0.00    -0.286 NA
ATOM      2  C   UNL     1      -2.787   1.256   2.035  0.00  0.00    +0.084 C 
ATOM      3  C   UNL     1      -3.608   2.023   3.095  0.00  0.00    +0.002 C 
ATOM      4  C   UNL     1      -3.300   1.234   4.405  0.00  0.00    -0.041 C 
ATOM      5  C   UNL     1      -1.833   0.860   4.180  0.00  0.00    +0.130 C 
ATOM      6  C   UNL     1      -1.255  -0.133   5.082  0.00  0.00    +0.229 C 
ATOM      7  O   UNL     1      -0.138   0.157   5.453  0.00  0.00    -0.274 OA
ATOM      8  N   UNL     1      -1.678  -1.266   5.579  0.00  0.00    -0.316 N 
ATOM      9  C   UNL     1      -3.014  -1.828   5.511  0.00  0.00    +0.089 C 
ATOM     10  C   UNL     1      -4.069  -0.752   5.601  0.00  0.00    -0.051 C 
ATOM     11  N   UNL     1      -4.174   0.082   4.439  0.00  0.00    +0.384 N 
ATOM     12  C   UNL     1      -5.560   0.554   4.311  0.00  0.00    -0.095 C 
ATOM     13  H   UNL     1      -1.018  -1.796   6.052  0.00  0.00    +0.149 HD
ATOM     14  H   UNL     1      -3.967  -0.494   3.638  0.00  0.00    -0.081 HD
ENDROOT
BRANCH   1  15
ATOM     15  C   UNL     1      -0.388   0.930   2.238  0.00  0.00    +0.159 C 
BRANCH  15  25
ATOM     16  C   UNL     1       0.770  -1.906   1.809  0.00  0.00    +0.150 C 
ATOM     17  N   UNL     1       0.360  -0.988   0.743  0.00  0.00    -0.330 N 
ATOM     18  C   UNL     1       0.416  -1.233  -0.615  0.00  0.00    +0.069 A 
ATOM     19  C   UNL     1       0.830  -2.311  -1.386  0.00  0.00    +0.028 A 
ATOM     20  C   UNL     1       0.754  -2.235  -2.760  0.00  0.00    +0.002 A 
ATOM     21  C   UNL     1       0.267  -1.091  -3.376  0.00  0.00    +0.002 A 
ATOM     22  C   UNL     1      -0.144  -0.021  -2.633  0.00  0.00    +0.030 A 
ATOM     23  C   UNL     1      -0.077  -0.075  -1.238  0.00  0.00    +0.089 A 
ATOM     24  N   UNL     1      -0.401   0.799  -0.251  0.00  0.00    -0.231 NA
ATOM     25  C   UNL     1      -0.151   0.262   0.907  0.00  0.00    +0.125 A 
ENDBRANCH  15  25
ENDBRANCH   1  15
BRANCH  10  26
ATOM     26  C   UNL     1      -5.427  -1.419   5.831  0.00  0.00    -0.005 C 
BRANCH  26  27
ATOM     27  C   UNL     1      -5.383  -2.233   7.125  0.00  0.00    +0.094 C 
BRANCH  27  28
ATOM     28  C   UNL     1      -6.755  -2.781   7.422  0.00  0.00    +0.213 C 
ATOM     29  O   UNL     1      -7.678  -2.543   6.672  0.00  0.00    -0.276 OA
ATOM     30  N   UNL     1      -6.957  -3.535   8.520  0.00  0.00    -0.311 N 
ATOM     31  H   UNL     1      -6.219  -3.725   9.120  0.00  0.00    +0.149 HD
BRANCH  30  32
ATOM     32  C   UNL     1      -8.291  -4.067   8.809  0.00  0.00    +0.146 C 
BRANCH  32  33
ATOM     33  C   UNL     1      -8.248  -4.869  10.084  0.00  0.00    +0.007 A 
ATOM     34  C   UNL     1      -8.454  -4.458  11.358  0.00  0.00    +0.013 A 
ATOM     35  C   UNL     1      -8.363  -5.381  12.383  0.00  0.00    +0.008 A 
ATOM     36  C   UNL     1      -8.069  -6.670  12.084  0.00  0.00    +0.045 A 
ATOM     37  S   UNL     1      -7.918  -6.610  10.306  0.00  0.00    -0.100 S 
ENDBRANCH  32  33
ENDBRANCH  30  32
ENDBRANCH  27  28
ENDBRANCH  26  27
ENDBRANCH  10  26
TORSDOF 7
