REMARK  Name = ZINC08858840
REMARK  5 active torsions:
REMARK  status: ('A' for Active; 'I' for Inactive)
REMARK    1  A    between atoms: C_1  and  C_2
REMARK    2  A    between atoms: C_5  and  N_8
REMARK    3  A    between atoms: C_9  and  C_10
REMARK    4  A    between atoms: N_20  and  N_21
REMARK    5  A    between atoms: N_21  and  C_22
REMARK                            x       y       z     vdW  Elec       q    Type
REMARK                         _______ _______ _______ _____ _____    ______ ____
ROOT
ATOM      1  N   UNL     1       0.486  -4.125  -0.431  0.00  0.00    -0.229 NA
ATOM      2  C   UNL     1       1.373  -4.835   0.221  0.00  0.00    +0.161 C 
ATOM      3  N   UNL     1       1.281  -6.210   0.232  0.00  0.00    -0.249 N 
ATOM      4  H   UNL     1       1.937  -6.736   0.715  0.00  0.00    +0.171 HD
ENDROOT
BRANCH   2   5
ATOM      5  C   UNL     1       2.472  -4.162   0.947  0.00  0.00    +0.106 A 
ATOM      6  C   UNL     1       2.904  -2.897   0.517  0.00  0.00    +0.032 A 
ATOM      7  C   UNL     1       3.917  -2.265   1.177  0.00  0.00    +0.012 A 
ATOM      8  C   UNL     1       4.500  -2.915   2.282  0.00  0.00    +0.000 A 
ATOM      9  C   UNL     1       5.546  -2.322   3.007  0.00  0.00    +0.010 A 
ATOM     10  C   UNL     1       6.086  -2.979   4.071  0.00  0.00    +0.001 A 
ATOM     11  C   UNL     1       5.615  -4.234   4.450  0.00  0.00    +0.002 A 
ATOM     12  C   UNL     1       4.603  -4.840   3.771  0.00  0.00    +0.028 A 
ATOM     13  C   UNL     1       4.019  -4.193   2.666  0.00  0.00    +0.072 A 
ATOM     14  N   UNL     1       3.022  -4.761   1.986  0.00  0.00    -0.244 NA
ENDBRANCH   2   5
BRANCH   1  19
ATOM     15  C   UNL     1       0.036   1.416   0.546  0.00  0.00    +0.044 C 
ATOM     16  C   UNL     1       0.156  -0.063   0.285  0.00  0.00    -0.050 A 
ATOM     17  C   UNL     1       0.396  -0.519  -1.000  0.00  0.00    +0.005 A 
ATOM     18  C   UNL     1       0.508  -1.871  -1.246  0.00  0.00    +0.028 A 
ATOM     19  C   UNL     1       0.377  -2.782  -0.195  0.00  0.00    +0.066 A 
ATOM     20  C   UNL     1       0.135  -2.315   1.100  0.00  0.00    +0.028 A 
ATOM     21  C   UNL     1       0.031  -0.960   1.332  0.00  0.00    +0.005 A 
ENDBRANCH   1  19
BRANCH   3  22
ATOM     22  N   UNL     1       0.239  -6.848  -0.455  0.00  0.00    -0.272 N 
ATOM     23  H   UNL     1      -0.417  -6.322  -0.938  0.00  0.00    +0.169 HD
BRANCH  22  24
ATOM     24  C   UNL     1       0.150  -8.193  -0.444  0.00  0.00    +0.100 C 
ATOM     25  C   UNL     1      -0.787  -8.831  -1.241  0.00  0.00    +0.044 C 
ATOM     26  C   UNL     1      -1.296  -8.193  -2.466  0.00  0.00    -0.006 A 
ATOM     27  C   UNL     1      -0.854  -6.931  -2.861  0.00  0.00    +0.009 A 
ATOM     28  C   UNL     1      -1.353  -6.366  -4.013  0.00  0.00    +0.001 A 
ATOM     29  C   UNL     1      -2.292  -7.042  -4.783  0.00  0.00    +0.001 A 
ATOM     30  C   UNL     1      -2.740  -8.277  -4.416  0.00  0.00    +0.008 A 
ATOM     31  C   UNL     1      -2.250  -8.879  -3.249  0.00  0.00    -0.017 A 
ATOM     32  C   UNL     1      -2.713 -10.199  -2.838  0.00  0.00    +0.012 C 
ATOM     33  C   UNL     1      -2.250 -10.789  -1.716  0.00  0.00    +0.052 C 
ATOM     34  C   UNL     1      -1.292 -10.163  -0.890  0.00  0.00    +0.188 C 
ATOM     35  O   UNL     1      -0.889 -10.726   0.116  0.00  0.00    -0.287 OA
ENDBRANCH  22  24
ENDBRANCH   3  22
TORSDOF 4
