REMARK  Name = ZINC15906006
REMARK  5 active torsions:
REMARK  status: ('A' for Active; 'I' for Inactive)
REMARK    1  A    between atoms: C_8  and  N_9
REMARK    2  A    between atoms: N_9  and  N_10
REMARK    3  A    between atoms: C_11  and  C_13
REMARK    4  A    between atoms: N_22  and  C_25
REMARK    5  A    between atoms: C_30  and  C_31
REMARK                            x       y       z     vdW  Elec       q    Type
REMARK                         _______ _______ _______ _____ _____    ______ ____
ROOT
ATOM      1  C   UNL     1      -4.988   3.631  -0.283  0.00  0.00    +0.001 A 
ATOM      2  C   UNL     1      -6.145   2.871  -0.384  0.00  0.00    +0.001 A 
ATOM      3  C   UNL     1      -6.085   1.494  -0.387  0.00  0.00    +0.014 A 
ATOM      4  C   UNL     1      -4.847   0.857  -0.289  0.00  0.00    +0.046 A 
ATOM      5  C   UNL     1      -3.674   1.633  -0.182  0.00  0.00    +0.000 A 
ATOM      6  C   UNL     1      -3.755   3.020  -0.185  0.00  0.00    +0.009 A 
ATOM      7  C   UNL     1      -2.378   0.929  -0.086  0.00  0.00    +0.060 C 
ATOM      8  C   UNL     1      -1.197   1.629   0.017  0.00  0.00    +0.101 C 
ATOM      9  C   UNL     1      -2.389  -0.538  -0.096  0.00  0.00    +0.259 C 
ATOM     10  O   UNL     1      -1.339  -1.149  -0.014  0.00  0.00    -0.269 OA
ATOM     11  N   UNL     1      -3.545  -1.214  -0.195  0.00  0.00    -0.202 N 
ATOM     12  C   UNL     1      -4.739  -0.607  -0.290  0.00  0.00    +0.258 C 
ATOM     13  O   UNL     1      -5.747  -1.282  -0.377  0.00  0.00    -0.269 OA
ENDROOT
BRANCH  11  14
ATOM     14  C   UNL     1      -3.503  -2.615  -0.201  0.00  0.00    +0.056 A 
ATOM     15  C   UNL     1      -3.581  -3.318   0.995  0.00  0.00    +0.024 A 
ATOM     16  C   UNL     1      -3.541  -4.698   0.986  0.00  0.00    +0.002 A 
ATOM     17  C   UNL     1      -3.423  -5.380  -0.211  0.00  0.00    +0.001 A 
ATOM     18  C   UNL     1      -3.345  -4.684  -1.402  0.00  0.00    +0.014 A 
ATOM     19  C   UNL     1      -3.390  -3.303  -1.401  0.00  0.00    +0.077 A 
BRANCH  19  20
ATOM     20  C   UNL     1      -3.311  -2.544  -2.701  0.00  0.00    +0.419 C 
ATOM     21  F   UNL     1      -3.202  -3.449  -3.763  0.00  0.00    -0.166 F 
ATOM     22  F   UNL     1      -4.467  -1.774  -2.861  0.00  0.00    -0.166 F 
ATOM     23  F   UNL     1      -2.191  -1.707  -2.685  0.00  0.00    -0.166 F 
ENDBRANCH  19  20
ENDBRANCH  11  14
BRANCH   8  24
ATOM     24  N   UNL     1      -0.009   0.974  -0.069  0.00  0.00    -0.271 N 
ATOM     25  H   UNL     1       0.009   0.030  -0.289  0.00  0.00    +0.169 HD
BRANCH  24  26
ATOM     26  N   UNL     1       1.189   1.665   0.154  0.00  0.00    -0.233 N 
ATOM     27  C   UNL     1       2.367   1.016   0.064  0.00  0.00    +0.260 C 
ATOM     28  O   UNL     1       2.390  -0.167  -0.212  0.00  0.00    -0.269 OA
ATOM     29  H   UNL     1       1.171   2.609   0.374  0.00  0.00    +0.173 HD
BRANCH  27  30
ATOM     30  C   UNL     1       3.631   1.744   0.300  0.00  0.00    +0.038 A 
ATOM     31  C   UNL     1       3.609   3.105   0.611  0.00  0.00    +0.014 A 
ATOM     32  C   UNL     1       4.791   3.779   0.834  0.00  0.00    +0.021 A 
ATOM     33  C   UNL     1       6.000   3.110   0.740  0.00  0.00    +0.041 A 
ATOM     34  C   UNL     1       6.029   1.760   0.427  0.00  0.00    +0.021 A 
ATOM     35  C   UNL     1       4.853   1.076   0.206  0.00  0.00    +0.014 A 
ATOM     36 CL   UNL     1       7.486   3.965   1.016  0.00  0.00    -0.084 Cl
ENDBRANCH  27  30
ENDBRANCH  24  26
ENDBRANCH   8  24
TORSDOF 5
