REMARK  Name = ZINC30343319
REMARK  7 active torsions:
REMARK  status: ('A' for Active; 'I' for Inactive)
REMARK    1  A    between atoms: C_1  and  C_2
REMARK    2  A    between atoms: C_2  and  C_4
REMARK    3  A    between atoms: C_2  and  N_12
REMARK    4  A    between atoms: C_13  and  C_15
REMARK    5  A    between atoms: C_15  and  N_16
REMARK    6  A    between atoms: C_19  and  C_23
REMARK    7  A    between atoms: C_19  and  C_24
REMARK                            x       y       z     vdW  Elec       q    Type
REMARK                         _______ _______ _______ _____ _____    ______ ____
ROOT
ATOM      1  C   UNL     1       3.136   3.025  -1.556  0.00  0.00    +0.213 C 
ENDROOT
BRANCH   1   2
ATOM      2  N   UNL     1       3.572   2.915  -2.950  0.00  0.00    -0.215 N 
ATOM      3  C   UNL     1       3.232   3.786  -3.921  0.00  0.00    +0.254 C 
ATOM      4  O   UNL     1       2.533   4.770  -3.809  0.00  0.00    -0.272 OA
ATOM      5  C   UNL     1       3.904   3.278  -5.181  0.00  0.00    +0.168 C 
ATOM      6  N   UNL     1       4.611   2.066  -4.732  0.00  0.00    -0.279 N 
ATOM      7  C   UNL     1       4.361   1.940  -3.416  0.00  0.00    +0.310 C 
ATOM      8  O   UNL     1       4.801   1.040  -2.728  0.00  0.00    -0.252 OA
ATOM      9  C   UNL     1       4.896   4.312  -5.717  0.00  0.00    +0.050 C 
ATOM     10  H   UNL     1       5.196   1.472  -5.450  0.00  0.00    +0.152 HD
BRANCH   5  11
ATOM     11  C   UNL     1       2.876   2.938  -6.230  0.00  0.00    +0.137 A 
ATOM     12  C   UNL     1       3.003   1.992  -7.178  0.00  0.00    +0.047 A 
ATOM     13  C   UNL     1       1.812   2.014  -7.940  0.00  0.00    +0.041 A 
ATOM     14  C   UNL     1       1.029   2.972  -7.412  0.00  0.00    +0.195 A 
ATOM     15  O   UNL     1       1.676   3.524  -6.373  0.00  0.00    -0.465 OA
ENDBRANCH   5  11
ENDBRANCH   1   2
BRANCH   1  17
ATOM     16  N   UNL     1       1.244   2.248  -0.165  0.00  0.00    -0.307 N 
ATOM     17  C   UNL     1       1.837   2.283  -1.375  0.00  0.00    +0.231 C 
ATOM     18  O   UNL     1       1.326   1.717  -2.318  0.00  0.00    -0.274 OA
ATOM     19  H   UNL     1       1.708   2.761   0.690  0.00  0.00    +0.149 HD
BRANCH  16  21
ATOM     20  C   UNL     1       0.273   0.058   0.328  0.00  0.00    +0.033 C 
ATOM     21  C   UNL     1      -0.019   1.526   0.010  0.00  0.00    +0.102 C 
BRANCH  21  22
ATOM     22  C   UNL     1      -0.795   2.141   1.146  0.00  0.00    -0.009 A 
ATOM     23  C   UNL     1      -0.128   2.794   2.166  0.00  0.00    +0.008 A 
ATOM     24  C   UNL     1      -0.839   3.358   3.207  0.00  0.00    +0.020 A 
ATOM     25  C   UNL     1      -2.220   3.271   3.230  0.00  0.00    +0.042 A 
ATOM     26  C   UNL     1      -2.888   2.619   2.210  0.00  0.00    +0.040 A 
ATOM     27  C   UNL     1      -2.176   2.058   1.165  0.00  0.00    +0.047 A 
ATOM     28 CL   UNL     1      -3.014   1.244  -0.119  0.00  0.00    -0.083 Cl
ATOM     29 CL   UNL     1      -3.114   3.980   4.538  0.00  0.00    -0.083 Cl
ENDBRANCH  21  22
ENDBRANCH  16  21
ENDBRANCH   1  17
TORSDOF 5
