REMARK  Name = ZINC16788988
REMARK  10 active torsions:
REMARK  status: ('A' for Active; 'I' for Inactive)
REMARK    1  A    between atoms: C_1  and  C_2
REMARK    2  A    between atoms: C_5  and  N_9
REMARK    3  A    between atoms: C_6  and  C_8
REMARK    4  A    between atoms: C_10  and  C_12
REMARK    5  A    between atoms: C_12  and  C_14
REMARK    6  A    between atoms: C_12  and  S_15
REMARK    7  A    between atoms: S_15  and  C_16
REMARK    8  A    between atoms: C_19  and  C_22
REMARK    9  A    between atoms: N_20  and  N_21
REMARK   10  A    between atoms: C_26  and  C_27
REMARK                            x       y       z     vdW  Elec       q    Type
REMARK                         _______ _______ _______ _____ _____    ______ ____
ROOT
ATOM      1  S   UNL     1      -0.833  -6.905  -2.764  0.00  0.00    -0.072 S 
ENDROOT
BRANCH   1   2
ATOM      2  C   UNL     1      -1.015  -8.645  -2.553  0.00  0.00    +0.209 A 
ATOM      3  N   UNL     1      -0.708  -9.336  -1.480  0.00  0.00    -0.121 NA
ATOM      4  N   UNL     1      -0.967 -10.580  -1.667  0.00  0.00    -0.127 NA
ATOM      5  C   UNL     1      -1.457 -10.761  -2.871  0.00  0.00    +0.185 A 
ATOM      6  N   UNL     1      -1.507  -9.526  -3.475  0.00  0.00    -0.224 N 
BRANCH   5   7
ATOM      7  C   UNL     1      -1.879 -12.048  -3.465  0.00  0.00    +0.061 A 
ATOM      8  C   UNL     1      -2.421 -12.268  -4.812  0.00  0.00    +0.053 A 
ATOM      9  C   UNL     1      -2.659 -13.586  -4.905  0.00  0.00    +0.196 A 
ATOM     10  O   UNL     1      -2.314 -14.176  -3.751  0.00  0.00    -0.467 OA
ATOM     11  C   UNL     1      -1.840 -13.275  -2.879  0.00  0.00    +0.112 A 
ATOM     12  C   UNL     1      -1.350 -13.570  -1.485  0.00  0.00    +0.087 C 
ENDBRANCH   5   7
BRANCH   6  13
ATOM     13  N   UNL     1      -1.954  -9.241  -4.734  0.00  0.00    -0.295 N 
ATOM     14  H   UNL     1      -1.204  -9.297  -5.406  0.00  0.00    +0.163 HD
ATOM     15  H   UNL     1      -2.718  -9.848  -4.993  0.00  0.00    +0.163 HD
ENDBRANCH   6  13
ENDBRANCH   1   2
BRANCH   1  16
ATOM     16  C   UNL     1      -0.134  -6.343  -1.187  0.00  0.00    +0.137 C 
ATOM     17  C   UNL     1       1.263  -6.941  -1.007  0.00  0.00    +0.029 C 
BRANCH  16  19
ATOM     18  N   UNL     1       0.059  -4.170  -0.021  0.00  0.00    -0.284 N 
ATOM     19  C   UNL     1      -0.040  -4.839  -1.187  0.00  0.00    +0.230 C 
ATOM     20  O   UNL     1      -0.054  -4.230  -2.236  0.00  0.00    -0.274 OA
ATOM     21  H   UNL     1       0.135  -4.658   0.814  0.00  0.00    +0.155 HD
BRANCH  18  26
ATOM     22  C   UNL     1       0.025   1.503   0.005  0.00  0.00    +0.044 C 
ATOM     23  C   UNL     1       0.034  -0.004  -0.002  0.00  0.00    -0.050 A 
ATOM     24  C   UNL     1       0.632  -0.685  -1.046  0.00  0.00    +0.005 A 
ATOM     25  C   UNL     1       0.642  -2.066  -1.055  0.00  0.00    +0.024 A 
ATOM     26  C   UNL     1       0.051  -2.771  -0.014  0.00  0.00    +0.036 A 
ATOM     27  C   UNL     1      -0.548  -2.083   1.033  0.00  0.00    -0.029 A 
ATOM     28  C   UNL     1      -0.550  -0.702   1.039  0.00  0.00    +0.008 A 
ATOM     29  C   UNL     1      -1.190  -2.843   2.165  0.00  0.00    +0.045 C 
ENDBRANCH  18  26
ENDBRANCH  16  19
ENDBRANCH   1  16
TORSDOF 6
