REMARK  Name = ZINC12038473
REMARK  14 active torsions:
REMARK  status: ('A' for Active; 'I' for Inactive)
REMARK    1  A    between atoms: C_1  and  C_2
REMARK    2  A    between atoms: C_2  and  C_3
REMARK    3  A    between atoms: C_2  and  C_4
REMARK    4  A    between atoms: C_4  and  C_5
REMARK    5  A    between atoms: C_5  and  N_6
REMARK    6  A    between atoms: C_8  and  C_28
REMARK    7  A    between atoms: C_11  and  C_13
REMARK    8  A    between atoms: C_18  and  C_21
REMARK    9  A    between atoms: C_21  and  C_23
REMARK   10  A    between atoms: C_21  and  N_78
REMARK   11  A    between atoms: N_30  and  C_31
REMARK   12  A    between atoms: C_31  and  C_32
REMARK   13  A    between atoms: C_31  and  C_33
REMARK   14  A    between atoms: C_31  and  C_34
REMARK                            x       y       z     vdW  Elec       q    Type
REMARK                         _______ _______ _______ _____ _____    ______ ____
ROOT
ATOM      1  N   UNL     1      -5.939  -0.317   4.141  0.00  0.00    -0.352 N 
ATOM      2  C   UNL     1      -6.560  -1.065   5.067  0.00  0.00    +0.102 A 
ATOM      3  C   UNL     1      -6.551  -2.442   5.002  0.00  0.00    +0.100 A 
ATOM      4  C   UNL     1      -5.837  -3.084   3.885  0.00  0.00    +0.206 A 
ATOM      5  O   UNL     1      -5.793  -4.297   3.773  0.00  0.00    -0.286 OA
ATOM      6  C   UNL     1      -5.180  -2.198   2.909  0.00  0.00    +0.100 A 
ATOM      7  C   UNL     1      -5.266  -0.837   3.101  0.00  0.00    +0.102 A 
ENDROOT
BRANCH   6   8
ATOM      8  C   UNL     1      -4.444  -2.754   1.761  0.00  0.00    +0.252 C 
ATOM      9  O   UNL     1      -3.796  -3.775   1.891  0.00  0.00    -0.270 OA
ATOM     10  N   UNL     1      -4.489  -2.132   0.567  0.00  0.00    -0.297 N 
ATOM     11  C   UNL     1      -5.347  -0.956   0.367  0.00  0.00    +0.108 C 
ATOM     12  C   UNL     1      -6.247  -1.203  -0.848  0.00  0.00    +0.021 C 
ATOM     13  C   UNL     1      -5.380  -1.560  -2.057  0.00  0.00    -0.022 C 
ATOM     14  C   UNL     1      -4.599  -2.844  -1.765  0.00  0.00    +0.021 C 
ATOM     15  C   UNL     1      -3.680  -2.615  -0.561  0.00  0.00    +0.108 C 
BRANCH  13  16
ATOM     16  C   UNL     1      -6.273  -1.774  -3.280  0.00  0.00    -0.068 C 
ATOM     17  C   UNL     1      -7.205  -2.961  -3.030  0.00  0.00    -0.013 C 
BRANCH  16  22
ATOM     18  C   UNL     1      -6.272  -2.283  -5.661  0.00  0.00    -0.079 C 
ATOM     19  C   UNL     1      -5.288  -2.025  -6.830  0.00  0.00    -0.020 C 
ATOM     20  C   UNL     1      -4.437  -0.843  -6.311  0.00  0.00    -0.020 C 
ATOM     21  C   UNL     1      -4.579  -0.888  -4.779  0.00  0.00    -0.079 C 
ATOM     22  N   UNL     1      -5.426  -2.043  -4.481  0.00  0.00    +0.382 N 
ATOM     23  H   UNL     1      -4.840  -2.866  -4.302  0.00  0.00    -0.081 HD
ENDBRANCH  16  22
ENDBRANCH  13  16
ENDBRANCH   6   8
BRANCH   3  24
ATOM     24  C   UNL     1      -7.236  -3.251   6.025  0.00  0.00    +0.250 C 
ATOM     25  O   UNL     1      -7.218  -4.464   5.953  0.00  0.00    -0.270 OA
ATOM     26  N   UNL     1      -7.884  -2.645   7.040  0.00  0.00    -0.306 N 
ATOM     27  H   UNL     1      -7.899  -1.677   7.097  0.00  0.00    +0.150 HD
BRANCH  26  28
ATOM     28  C   UNL     1      -8.566  -3.450   8.057  0.00  0.00    +0.026 C 
ATOM     29  C   UNL     1      -7.550  -4.356   8.755  0.00  0.00    +0.031 C 
ATOM     30  C   UNL     1      -9.216  -2.524   9.087  0.00  0.00    +0.031 C 
ATOM     31  C   UNL     1      -9.643  -4.308   7.391  0.00  0.00    +0.031 C 
ENDBRANCH  26  28
ENDBRANCH   3  24
BRANCH   1  32
ATOM     32  C   UNL     1      -5.992   1.141   4.276  0.00  0.00    +0.121 C 
BRANCH  32  33
ATOM     33  C   UNL     1      -4.802   1.619   5.110  0.00  0.00    +0.024 C 
BRANCH  33  35
ATOM     34  C   UNL     1      -6.099   3.535   6.054  0.00  0.00    +0.007 C 
ATOM     35  C   UNL     1      -4.857   3.142   5.251  0.00  0.00    -0.016 C 
ATOM     36  C   UNL     1      -3.603   3.633   5.978  0.00  0.00    +0.007 C 
ENDBRANCH  33  35
ENDBRANCH  32  33
ENDBRANCH   1  32
TORSDOF 8
