REMARK  Name = ZINC52841082
REMARK  8 active torsions:
REMARK  status: ('A' for Active; 'I' for Inactive)
REMARK    1  A    between atoms: C_1  and  C_2
REMARK    2  A    between atoms: C_2  and  C_4
REMARK    3  A    between atoms: C_2  and  N_11
REMARK    4  A    between atoms: C_4  and  C_5
REMARK    5  A    between atoms: C_5  and  C_6
REMARK    6  A    between atoms: N_11  and  C_12
REMARK    7  A    between atoms: C_15  and  N_19
REMARK    8  A    between atoms: C_17  and  N_18
REMARK                            x       y       z     vdW  Elec       q    Type
REMARK                         _______ _______ _______ _____ _____    ______ ____
ROOT
ATOM      1  C   UNL     1      -2.054  -0.661   1.226  0.00  0.00    +0.048 A 
ATOM      2  C   UNL     1      -1.433  -0.324   2.419  0.00  0.00    +0.027 A 
ATOM      3  C   UNL     1      -2.108  -0.472   3.616  0.00  0.00    +0.034 A 
ATOM      4  C   UNL     1      -3.403  -0.956   3.629  0.00  0.00    +0.128 A 
ATOM      5  C   UNL     1      -4.030  -1.295   2.444  0.00  0.00    +0.057 A 
ATOM      6  C   UNL     1      -3.363  -1.143   1.238  0.00  0.00    +0.048 A 
ENDROOT
BRANCH   6   7
ATOM      7  N   UNL     1      -3.998  -1.480   0.037  0.00  0.00    -0.356 N 
ATOM      8  H   UNL     1      -3.529  -1.377  -0.805  0.00  0.00    +0.142 HD
ATOM      9  H   UNL     1      -4.908  -1.815   0.047  0.00  0.00    +0.142 HD
ENDBRANCH   6   7
BRANCH   4  10
ATOM     10  N   UNL     1      -4.120  -1.113   4.915  0.00  0.00    +0.056 N 
ATOM     11  O   UNL     1      -3.573  -0.818   5.951  0.00  0.00    -0.126 OA
ATOM     12  O   UNL     1      -5.252  -1.536   4.928  0.00  0.00    -0.126 OA
ENDBRANCH   4  10
BRANCH   1  13
ATOM     13  N   UNL     1      -1.372  -0.511   0.012  0.00  0.00    -0.340 N 
ATOM     14  H   UNL     1      -1.810  -0.743  -0.822  0.00  0.00    +0.146 HD
BRANCH  13  16
ATOM     15  C   UNL     1      -0.019   1.526   0.010  0.00  0.00    +0.028 C 
ATOM     16  C   UNL     1       0.002  -0.004   0.002  0.00  0.00    +0.068 C 
BRANCH  16  17
ATOM     17  C   UNL     1       0.718  -0.497  -1.257  0.00  0.00    +0.029 C 
BRANCH  17  18
ATOM     18  C   UNL     1       0.849  -2.021  -1.205  0.00  0.00    +0.076 C 
BRANCH  18  19
ATOM     19  C   UNL     1       1.555  -2.507  -2.445  0.00  0.00    +0.105 A 
ATOM     20  C   UNL     1       2.883  -2.666  -2.583  0.00  0.00    +0.044 A 
ATOM     21  C   UNL     1       3.105  -3.137  -3.897  0.00  0.00    +0.041 A 
ATOM     22  C   UNL     1       1.899  -3.238  -4.484  0.00  0.00    +0.195 A 
ATOM     23  O   UNL     1       0.963  -2.861  -3.598  0.00  0.00    -0.468 OA
ENDBRANCH  18  19
ENDBRANCH  17  18
ENDBRANCH  16  17
ENDBRANCH  13  16
ENDBRANCH   1  13
TORSDOF 7
