REMARK  Name = ZINC14124661
REMARK  5 active torsions:
REMARK  status: ('A' for Active; 'I' for Inactive)
REMARK    1  A    between atoms: C_1  and  C_2
REMARK    2  A    between atoms: N_10  and  N_14
REMARK    3  A    between atoms: C_15  and  C_17
REMARK    4  A    between atoms: C_17  and  N_61
REMARK    5  A    between atoms: C_21  and  C_24
REMARK                            x       y       z     vdW  Elec       q    Type
REMARK                         _______ _______ _______ _____ _____    ______ ____
ROOT
ATOM      1  N   UNL     1      -1.404  12.174  -3.536  0.00  0.00    -0.225 N 
ATOM      2  C   UNL     1      -1.653  11.383  -2.474  0.00  0.00    +0.213 C 
ATOM      3  O   UNL     1      -2.337  11.792  -1.560  0.00  0.00    -0.276 OA
ATOM      4  H   UNL     1      -0.857  11.847  -4.267  0.00  0.00    +0.173 HD
ENDROOT
BRANCH   1  14
ATOM      5  C   UNL     1      -6.528  15.623  -6.815  0.00  0.00    +0.007 C 
ATOM      6  C   UNL     1      -5.456  15.998  -5.790  0.00  0.00    -0.014 C 
ATOM      7  C   UNL     1      -5.644  15.157  -4.525  0.00  0.00    +0.006 C 
ATOM      8  C   UNL     1      -4.578  15.541  -3.495  0.00  0.00    +0.035 C 
ATOM      9  C   UNL     1      -3.191  15.304  -4.082  0.00  0.00    +0.114 C 
ATOM     10  C   UNL     1      -2.998  16.118  -5.357  0.00  0.00    +0.035 C 
ATOM     11  C   UNL     1      -4.070  15.731  -6.380  0.00  0.00    +0.006 C 
ATOM     12  C   UNL     1      -2.975  13.835  -4.361  0.00  0.00    +0.263 C 
ATOM     13  O   UNL     1      -3.606  13.131  -5.121  0.00  0.00    -0.271 OA
ATOM     14  N   UNL     1      -1.934  13.470  -3.584  0.00  0.00    -0.137 N 
ATOM     15  C   UNL     1      -1.468  14.501  -2.869  0.00  0.00    +0.326 C 
ATOM     16  O   UNL     1      -0.531  14.420  -2.099  0.00  0.00    -0.251 OA
ATOM     17  N   UNL     1      -2.153  15.637  -3.099  0.00  0.00    -0.284 N 
ATOM     18  H   UNL     1      -1.993  16.504  -2.694  0.00  0.00    +0.151 HD
ENDBRANCH   1  14
BRANCH   2  19
ATOM     19  C   UNL     1      -1.082   9.989  -2.423  0.00  0.00    +0.020 C 
BRANCH  19  25
ATOM     20  C   UNL     1      -0.898  10.002  -0.009  0.00  0.00    -0.078 C 
ATOM     21  C   UNL     1      -1.462   9.390   1.275  0.00  0.00    -0.018 C 
ATOM     22  C   UNL     1      -1.148   7.892   1.303  0.00  0.00    +0.006 C 
ATOM     23  C   UNL     1      -1.740   7.231   0.055  0.00  0.00    +0.028 C 
ATOM     24  C   UNL     1      -1.168   7.905  -1.194  0.00  0.00    -0.068 C 
ATOM     25  N   UNL     1      -1.526   9.339  -1.172  0.00  0.00    +0.386 N 
ATOM     26  H   UNL     1      -2.546   9.426  -1.095  0.00  0.00    -0.081 HD
BRANCH  23  27
ATOM     27  C   UNL     1      -1.385   5.767   0.045  0.00  0.00    +0.081 A 
ATOM     28  N   UNL     1      -0.201   5.223   0.031  0.00  0.00    -0.244 NA
ATOM     29  C   UNL     1      -0.017   3.886   0.022  0.00  0.00    +0.078 A 
ATOM     30  C   UNL     1       1.190   3.152   0.007  0.00  0.00    +0.029 A 
ATOM     31  C   UNL     1       1.176   1.792   0.001  0.00  0.00    +0.002 A 
ATOM     32  C   UNL     1      -0.013   1.076   0.008  0.00  0.00    +0.001 A 
ATOM     33  C   UNL     1      -1.215   1.757   0.017  0.00  0.00    +0.017 A 
ATOM     34  C   UNL     1      -1.212   3.130   0.030  0.00  0.00    +0.039 A 
ATOM     35  S   UNL     1      -2.454   4.399   0.048  0.00  0.00    -0.072 S 
ENDBRANCH  23  27
ENDBRANCH  19  25
ENDBRANCH   2  19
TORSDOF 4
