REMARK  Name = ZINC59046154
REMARK  11 active torsions:
REMARK  status: ('A' for Active; 'I' for Inactive)
REMARK    1  A    between atoms: C_1  and  C_2
REMARK    2  A    between atoms: C_2  and  O_3
REMARK    3  A    between atoms: O_3  and  C_4
REMARK    4  A    between atoms: C_4  and  C_6
REMARK    5  A    between atoms: C_10  and  N_11
REMARK    6  A    between atoms: C_12  and  C_14
REMARK    7  A    between atoms: C_14  and  S_15
REMARK    8  A    between atoms: S_15  and  C_16
REMARK    9  A    between atoms: C_19  and  C_22
REMARK   10  A    between atoms: N_20  and  N_21
REMARK   11  A    between atoms: C_26  and  N_28
REMARK                            x       y       z     vdW  Elec       q    Type
REMARK                         _______ _______ _______ _____ _____    ______ ____
ROOT
ATOM      1  C   UNL     1       6.009  -2.515   0.401  0.00  0.00    +0.173 C 
ENDROOT
BRANCH   1   3
ATOM      2  N   UNL     1       3.744  -2.426   1.392  0.00  0.00    -0.279 N 
ATOM      3  C   UNL     1       5.047  -2.736   1.540  0.00  0.00    +0.228 C 
ATOM      4  O   UNL     1       5.445  -3.193   2.591  0.00  0.00    -0.275 OA
ATOM      5  H   UNL     1       3.425  -2.060   0.551  0.00  0.00    +0.155 HD
BRANCH   2  10
ATOM      6  C   UNL     1       1.496  -2.371   2.467  0.00  0.00    +0.091 A 
ATOM      7  C   UNL     1       0.787  -2.682   3.696  0.00  0.00    -0.021 A 
ATOM      8  C   UNL     1       1.570  -3.187   4.673  0.00  0.00    -0.004 A 
ATOM      9  S   UNL     1       3.191  -3.243   3.966  0.00  0.00    -0.077 S 
ATOM     10  C   UNL     1       2.859  -2.629   2.439  0.00  0.00    +0.086 A 
ATOM     11  C   UNL     1       1.140  -3.603   6.046  0.00  0.00    +0.043 C 
ATOM     12  C   UNL     1      -0.255  -3.018   6.312  0.00  0.00    +0.005 C 
ATOM     13  C   UNL     1      -1.153  -3.312   5.107  0.00  0.00    +0.005 C 
ATOM     14  C   UNL     1      -0.705  -2.473   3.907  0.00  0.00    +0.037 C 
BRANCH   6  15
ATOM     15  C   UNL     1       0.801  -1.814   1.305  0.00  0.00    +0.342 C 
ATOM     16  O   UNL     1       0.321  -2.557   0.470  0.00  0.00    -0.245 OA
BRANCH  15  17
ATOM     17  O   UNL     1       0.693  -0.477   1.160  0.00  0.00    -0.461 OA
BRANCH  17  19
ATOM     18  C   UNL     1      -0.019   1.526   0.010  0.00  0.00    +0.048 C 
ATOM     19  C   UNL     1       0.002  -0.004   0.002  0.00  0.00    +0.229 C 
ENDBRANCH  17  19
ENDBRANCH  15  17
ENDBRANCH   6  15
ENDBRANCH   2  10
ENDBRANCH   1   3
BRANCH   1  20
ATOM     20  S   UNL     1       7.674  -3.025   0.908  0.00  0.00    -0.075 S 
BRANCH  20  21
ATOM     21  C   UNL     1       8.668  -2.709  -0.512  0.00  0.00    +0.209 A 
ATOM     22  N   UNL     1       8.256  -2.209  -1.656  0.00  0.00    -0.121 NA
ATOM     23  N   UNL     1       9.242  -2.110  -2.474  0.00  0.00    -0.127 NA
ATOM     24  C   UNL     1      10.343  -2.539  -1.903  0.00  0.00    +0.182 A 
ATOM     25  N   UNL     1      10.010  -2.932  -0.627  0.00  0.00    -0.224 N 
BRANCH  24  26
ATOM     26  C   UNL     1      11.689  -2.588  -2.514  0.00  0.00    +0.023 A 
ATOM     27  C   UNL     1      12.699  -3.351  -1.925  0.00  0.00    +0.012 A 
ATOM     28  C   UNL     1      13.952  -3.392  -2.500  0.00  0.00    +0.003 A 
ATOM     29  C   UNL     1      14.209  -2.678  -3.658  0.00  0.00    +0.033 A 
ATOM     30  C   UNL     1      13.212  -1.920  -4.246  0.00  0.00    +0.127 A 
ATOM     31  C   UNL     1      11.953  -1.876  -3.685  0.00  0.00    +0.044 A 
BRANCH  30  32
ATOM     32  N   UNL     1      13.496  -1.160  -5.484  0.00  0.00    +0.056 N 
ATOM     33  O   UNL     1      14.598  -1.202  -5.980  0.00  0.00    -0.126 OA
ATOM     34  O   UNL     1      12.626  -0.497  -5.999  0.00  0.00    -0.126 OA
ENDBRANCH  30  32
ENDBRANCH  24  26
BRANCH  25  35
ATOM     35  N   UNL     1      10.847  -3.440   0.325  0.00  0.00    -0.295 N 
ATOM     36  H   UNL     1      10.897  -4.446   0.263  0.00  0.00    +0.163 HD
ATOM     37  H   UNL     1      11.765  -3.027   0.258  0.00  0.00    +0.163 HD
ENDBRANCH  25  35
ENDBRANCH  20  21
ENDBRANCH   1  20
TORSDOF 10
