REMARK  Name = ZINC46895440
REMARK  9 active torsions:
REMARK  status: ('A' for Active; 'I' for Inactive)
REMARK    1  A    between atoms: C_1  and  C_2
REMARK    2  A    between atoms: C_2  and  C_4
REMARK    3  A    between atoms: C_7  and  N_10
REMARK    4  A    between atoms: N_18  and  C_19
REMARK    5  A    between atoms: C_19  and  C_21
REMARK    6  A    between atoms: C_19  and  C_27
REMARK    7  A    between atoms: C_27  and  C_28
REMARK    8  A    between atoms: C_27  and  C_29
REMARK    9  A    between atoms: C_27  and  C_30
REMARK                            x       y       z     vdW  Elec       q    Type
REMARK                         _______ _______ _______ _____ _____    ______ ____
ROOT
ATOM      1  N   UNL     1      -4.812  -2.884   0.001  0.00  0.00    -0.327 N 
ATOM      2  C   UNL     1      -6.098  -2.184   0.132  0.00  0.00    +0.124 C 
ATOM      3  C   UNL     1      -6.997  -2.586  -1.043  0.00  0.00    +0.128 C 
ATOM      4  N   UNL     1      -6.997  -4.051  -1.155  0.00  0.00    -0.283 N 
ATOM      5  C   UNL     1      -5.711  -4.751  -1.287  0.00  0.00    +0.128 C 
ATOM      6  C   UNL     1      -4.812  -4.349  -0.117  0.00  0.00    +0.124 C 
ATOM      7  C   UNL     1      -8.155  -4.741  -1.138  0.00  0.00    +0.303 C 
ATOM      8  O   UNL     1      -9.216  -4.147  -1.124  0.00  0.00    -0.253 OA
ATOM      9  N   UNL     1      -8.136  -6.088  -1.135  0.00  0.00    -0.292 N 
ATOM     10  H   UNL     1      -7.292  -6.562  -1.065  0.00  0.00    +0.151 HD
ENDROOT
BRANCH   1  14
ATOM     11  C   UNL     1      -1.246  -0.759  -0.055  0.00  0.00    +0.017 A 
ATOM     12  C   UNL     1      -1.229  -2.160  -0.052  0.00  0.00    +0.013 A 
ATOM     13  C   UNL     1      -2.405  -2.855  -0.033  0.00  0.00    +0.024 A 
ATOM     14  C   UNL     1      -3.619  -2.173  -0.017  0.00  0.00    +0.030 A 
ATOM     15  C   UNL     1      -3.640  -0.780  -0.020  0.00  0.00    +0.024 A 
ATOM     16  C   UNL     1      -2.470  -0.077  -0.033  0.00  0.00    +0.013 A 
BRANCH  11  18
ATOM     17  C   UNL     1       1.330  -0.744  -0.097  0.00  0.00    +0.091 C 
ATOM     18  C   UNL     1       0.015  -0.008  -0.074  0.00  0.00    +0.160 C 
ATOM     19  O   UNL     1      -0.002   1.205  -0.072  0.00  0.00    -0.292 OA
ENDBRANCH  11  18
ENDBRANCH   1  14
BRANCH   9  20
ATOM     20  C   UNL     1      -9.390  -6.838  -1.237  0.00  0.00    +0.110 C 
BRANCH  20  21
ATOM     21  C   UNL     1      -9.213  -8.201  -0.619  0.00  0.00    -0.027 A 
ATOM     22  C   UNL     1      -8.035  -8.899  -0.810  0.00  0.00    +0.005 A 
ATOM     23  C   UNL     1      -7.873 -10.149  -0.243  0.00  0.00    +0.000 A 
ATOM     24  C   UNL     1      -8.888 -10.701   0.517  0.00  0.00    +0.000 A 
ATOM     25  C   UNL     1     -10.065 -10.002   0.709  0.00  0.00    +0.000 A 
ATOM     26  C   UNL     1     -10.226  -8.750   0.145  0.00  0.00    +0.005 A 
ENDBRANCH  20  21
BRANCH  20  27
ATOM     27  C   UNL     1      -9.773  -6.993  -2.711  0.00  0.00    -0.015 C 
ATOM     28  C   UNL     1      -8.666  -7.748  -3.449  0.00  0.00    +0.013 C 
ATOM     29  C   UNL     1     -11.083  -7.776  -2.818  0.00  0.00    +0.013 C 
ATOM     30  C   UNL     1      -9.953  -5.609  -3.339  0.00  0.00    +0.013 C 
ENDBRANCH  20  27
ENDBRANCH   9  20
TORSDOF 5
