REMARK  Name = ZINC32614496
REMARK  5 active torsions:
REMARK  status: ('A' for Active; 'I' for Inactive)
REMARK    1  A    between atoms: C_1  and  S_2
REMARK    2  A    between atoms: S_2  and  C_3
REMARK    3  A    between atoms: C_6  and  C_9
REMARK    4  A    between atoms: N_10  and  N_11
REMARK    5  A    between atoms: C_12  and  C_14
REMARK                            x       y       z     vdW  Elec       q    Type
REMARK                         _______ _______ _______ _____ _____    ______ ____
ROOT
ATOM      1  N   UNL     1      -3.031  -3.832  -0.869  0.00  0.00    -0.204 N 
ATOM      2  C   UNL     1      -2.746  -2.561  -0.521  0.00  0.00    +0.276 C 
ATOM      3  O   UNL     1      -3.263  -2.070   0.460  0.00  0.00    -0.270 OA
ATOM      4  H   UNL     1      -2.562  -4.277  -1.758  0.00  0.00    +0.177 HD
ENDROOT
BRANCH   2   5
ATOM      5  C   UNL     1      -1.784  -1.751  -1.351  0.00  0.00    +0.297 C 
ATOM      6  C   UNL     1      -0.383  -2.373  -1.274  0.00  0.00    +0.283 C 
ATOM      7  O   UNL     1       0.504  -1.580  -2.069  0.00  0.00    -0.484 OA
ATOM      8  C   UNL     1       0.434  -0.230  -1.902  0.00  0.00    +0.163 A 
ATOM      9  C   UNL     1       1.471   0.542  -2.346  0.00  0.00    +0.058 A 
ATOM     10  C   UNL     1       1.423   1.937  -2.190  0.00  0.00    -0.014 A 
ATOM     11  C   UNL     1       2.474   2.757  -2.635  0.00  0.00    +0.008 A 
ATOM     12  C   UNL     1       2.393   4.106  -2.468  0.00  0.00    +0.001 A 
ATOM     13  C   UNL     1       1.282   4.688  -1.861  0.00  0.00    +0.001 A 
ATOM     14  C   UNL     1       0.245   3.926  -1.419  0.00  0.00    +0.008 A 
ATOM     15  C   UNL     1       0.292   2.530  -1.573  0.00  0.00    -0.014 A 
ATOM     16  C   UNL     1      -0.758   1.711  -1.127  0.00  0.00    +0.058 A 
ATOM     17  C   UNL     1      -0.682   0.356  -1.289  0.00  0.00    +0.164 A 
ATOM     18  O   UNL     1      -1.711  -0.416  -0.840  0.00  0.00    -0.472 OA
ENDBRANCH   2   5
BRANCH   1  20
ATOM     19  C   UNL     1      -4.111  -5.843  -0.361  0.00  0.00    +0.138 C 
ATOM     20  N   UNL     1      -3.926  -4.585  -0.097  0.00  0.00    -0.188 NA
BRANCH  19  24
ATOM     21  C   UNL     1      -1.171  -8.013  -2.523  0.00  0.00    +0.008 A 
ATOM     22  C   UNL     1      -0.864  -6.762  -1.997  0.00  0.00    +0.015 A 
ATOM     23  C   UNL     1      -1.815  -6.055  -1.295  0.00  0.00    +0.010 A 
ATOM     24  C   UNL     1      -3.091  -6.596  -1.111  0.00  0.00    -0.005 A 
ATOM     25  C   UNL     1      -3.395  -7.856  -1.636  0.00  0.00    +0.010 A 
ATOM     26  C   UNL     1      -2.441  -8.554  -2.342  0.00  0.00    +0.015 A 
BRANCH  21  28
ATOM     27  C   UNL     1      -0.799 -10.445  -3.897  0.00  0.00    +0.090 C 
ATOM     28  S   UNL     1       0.048  -8.914  -3.421  0.00  0.00    -0.129 S 
ENDBRANCH  21  28
ENDBRANCH  19  24
ENDBRANCH   1  20
TORSDOF 4
