REMARK  Name = ZINC08596919
REMARK  15 active torsions:
REMARK  status: ('A' for Active; 'I' for Inactive)
REMARK    1  A    between atoms: C_1  and  C_2
REMARK    2  A    between atoms: C_3  and  C_16
REMARK    3  A    between atoms: N_9  and  C_12
REMARK    4  A    between atoms: C_12  and  C_13
REMARK    5  A    between atoms: C_13  and  C_14
REMARK    6  A    between atoms: C_13  and  C_15
REMARK    7  A    between atoms: N_18  and  C_19
REMARK    8  A    between atoms: C_19  and  C_20
REMARK    9  A    between atoms: C_20  and  C_21
REMARK   10  A    between atoms: C_21  and  N_22
REMARK   11  A    between atoms: N_22  and  C_23
REMARK   12  A    between atoms: N_22  and  C_30
REMARK   13  A    between atoms: C_23  and  C_24
REMARK   14  A    between atoms: C_30  and  C_31
REMARK   15  A    between atoms: C_30  and  C_32
REMARK                            x       y       z     vdW  Elec       q    Type
REMARK                         _______ _______ _______ _____ _____    ______ ____
ROOT
ATOM      1  C   UNL     1      -1.960  -3.279   2.633  0.00  0.00    +0.248 C 
ATOM      2  O   UNL     1      -2.071  -3.460   1.435  0.00  0.00    -0.270 OA
ATOM      3  N   UNL     1      -2.929  -2.632   3.309  0.00  0.00    -0.311 N 
ATOM      4  H   UNL     1      -2.840  -2.488   4.265  0.00  0.00    +0.149 HD
ENDROOT
BRANCH   1   7
ATOM      5  C   UNL     1       0.691  -1.692   3.081  0.00  0.00    +0.087 C 
ATOM      6  C   UNL     1       0.400  -3.094   3.551  0.00  0.00    +0.117 A 
ATOM      7  C   UNL     1      -0.765  -3.766   3.343  0.00  0.00    +0.092 A 
ATOM      8  C   UNL     1      -0.582  -5.082   3.977  0.00  0.00    +0.117 A 
ATOM      9  C   UNL     1       0.706  -5.067   4.514  0.00  0.00    +0.235 A 
ATOM     10  O   UNL     1       1.251  -3.872   4.234  0.00  0.00    -0.441 OA
ATOM     11  N   UNL     1       1.151  -6.155   5.162  0.00  0.00    -0.202 NA
ATOM     12  C   UNL     1       0.407  -7.217   5.295  0.00  0.00    +0.206 A 
ATOM     13  N   UNL     1      -0.851  -7.290   4.794  0.00  0.00    -0.298 N 
ATOM     14  C   UNL     1      -1.378  -6.237   4.128  0.00  0.00    +0.266 A 
ATOM     15  O   UNL     1      -2.507  -6.285   3.671  0.00  0.00    -0.267 OA
BRANCH  13  16
ATOM     16  C   UNL     1      -1.640  -8.511   4.975  0.00  0.00    +0.129 C 
BRANCH  16  17
ATOM     17  C   UNL     1      -2.439  -8.414   6.277  0.00  0.00    +0.003 C 
ATOM     18  C   UNL     1      -3.357  -9.631   6.404  0.00  0.00    +0.009 C 
ATOM     19  C   UNL     1      -1.476  -8.375   7.465  0.00  0.00    +0.009 C 
ENDBRANCH  16  17
ENDBRANCH  13  16
ENDBRANCH   1   7
BRANCH   3  20
ATOM     20  C   UNL     1      -4.117  -2.148   2.603  0.00  0.00    +0.102 C 
BRANCH  20  21
ATOM     21  C   UNL     1      -5.054  -1.455   3.595  0.00  0.00    +0.000 C 
BRANCH  21  22
ATOM     22  C   UNL     1      -6.295  -0.949   2.857  0.00  0.00    -0.076 C 
BRANCH  22  23
ATOM     23  N   UNL     1      -7.266  -0.431   3.830  0.00  0.00    +0.384 N 
ATOM     24  H   UNL     1      -7.501  -1.158   4.489  0.00  0.00    -0.081 HD
BRANCH  23  25
ATOM     25  C   UNL     1      -6.681   0.710   4.547  0.00  0.00    -0.074 C 
ATOM     26  C   UNL     1      -6.584   1.910   3.603  0.00  0.00    -0.014 C 
ATOM     27  C   UNL     1      -7.566   1.070   5.742  0.00  0.00    -0.014 C 
ENDBRANCH  23  25
BRANCH  23  28
ATOM     28  C   UNL     1      -8.480   0.003   3.126  0.00  0.00    -0.043 C 
BRANCH  28  29
ATOM     29  C   UNL     1      -9.515   0.437   4.132  0.00  0.00    -0.064 A 
ATOM     30  C   UNL     1      -9.927  -0.436   5.121  0.00  0.00    +0.002 A 
ATOM     31  C   UNL     1     -10.876  -0.038   6.043  0.00  0.00    +0.000 A 
ATOM     32  C   UNL     1     -11.414   1.234   5.976  0.00  0.00    +0.000 A 
ATOM     33  C   UNL     1     -11.002   2.108   4.988  0.00  0.00    +0.000 A 
ATOM     34  C   UNL     1     -10.049   1.711   4.068  0.00  0.00    +0.002 A 
ENDBRANCH  28  29
ENDBRANCH  23  28
ENDBRANCH  22  23
ENDBRANCH  21  22
ENDBRANCH  20  21
ENDBRANCH   3  20
TORSDOF 10
