REMARK  Name = ZINC21485643
REMARK  10 active torsions:
REMARK  status: ('A' for Active; 'I' for Inactive)
REMARK    1  A    between atoms: C_1  and  C_2
REMARK    2  A    between atoms: C_4  and  C_13
REMARK    3  A    between atoms: C_6  and  S_9
REMARK    4  A    between atoms: C_7  and  C_8
REMARK    5  A    between atoms: S_9  and  N_12
REMARK    6  A    between atoms: C_13  and  O_15
REMARK    7  A    between atoms: O_15  and  C_16
REMARK    8  A    between atoms: C_16  and  C_18
REMARK    9  A    between atoms: C_16  and  C_19
REMARK   10  A    between atoms: C_19  and  C_21
REMARK                            x       y       z     vdW  Elec       q    Type
REMARK                         _______ _______ _______ _____ _____    ______ ____
ROOT
ATOM      1  C   UNL     1       0.028  -2.818  -2.484  0.00  0.00    +0.340 C 
ATOM      2  O   UNL     1       0.045  -4.033  -2.486  0.00  0.00    -0.245 OA
ENDROOT
BRANCH   1   6
ATOM      3  C   UNL     1      -0.018   1.503   0.010  0.00  0.00    +0.044 C 
ATOM      4  C   UNL     1       0.002  -0.004   0.002  0.00  0.00    -0.045 A 
ATOM      5  C   UNL     1       0.006  -0.686  -1.198  0.00  0.00    +0.018 A 
ATOM      6  C   UNL     1       0.025  -2.082  -1.203  0.00  0.00    +0.061 A 
ATOM      7  C   UNL     1       0.040  -2.779   0.007  0.00  0.00    +0.043 A 
ATOM      8  C   UNL     1       0.036  -2.084   1.199  0.00  0.00    +0.109 A 
ATOM      9  C   UNL     1       0.023  -0.701   1.197  0.00  0.00    -0.021 A 
ATOM     10  C   UNL     1       0.025   0.051   2.503  0.00  0.00    +0.046 C 
BRANCH   8  11
ATOM     11  S   UNL     1       0.055  -2.962   2.727  0.00  0.00    +0.056 S 
ATOM     12  O   UNL     1      -0.974  -2.401   3.530  0.00  0.00    -0.153 OA
ATOM     13  O   UNL     1       0.099  -4.344   2.401  0.00  0.00    -0.153 OA
BRANCH  11  14
ATOM     14  N   UNL     1       1.488  -2.606   3.478  0.00  0.00    -0.204 NA
ATOM     15  H   UNL     1       1.540  -2.602   4.446  0.00  0.00    +0.144 HD
ATOM     16  H   UNL     1       2.275  -2.402   2.949  0.00  0.00    +0.144 HD
ENDBRANCH  11  14
ENDBRANCH   8  11
ENDBRANCH   1   6
BRANCH   1  17
ATOM     17  O   UNL     1       0.013  -2.143  -3.649  0.00  0.00    -0.450 OA
BRANCH  17  18
ATOM     18  C   UNL     1       0.017  -2.920  -4.849  0.00  0.00    +0.244 C 
ATOM     19  C   UNL     1      -1.423  -3.216  -5.270  0.00  0.00    +0.061 C 
BRANCH  18  20
ATOM     20  C   UNL     1       0.712  -2.150  -5.943  0.00  0.00    +0.205 C 
ATOM     21  O   UNL     1       0.916  -0.961  -5.812  0.00  0.00    -0.288 OA
BRANCH  20  22
ATOM     22  C   UNL     1       1.127  -2.815  -7.124  0.00  0.00    +0.046 A 
ATOM     23  C   UNL     1       0.963  -4.151  -7.422  0.00  0.00    +0.095 A 
ATOM     24  N   UNL     1       1.486  -4.410  -8.636  0.00  0.00    -0.360 N 
ATOM     25  H   UNL     1       1.489  -5.283  -9.060  0.00  0.00    +0.165 HD
ATOM     26  C   UNL     1       2.017  -3.265  -9.194  0.00  0.00    +0.047 A 
ATOM     27  C   UNL     1       1.815  -2.215  -8.284  0.00  0.00    +0.010 A 
ATOM     28  C   UNL     1       2.250  -0.930  -8.591  0.00  0.00    +0.011 A 
ATOM     29  C   UNL     1       2.877  -0.692  -9.795  0.00  0.00    +0.001 A 
ATOM     30  C   UNL     1       3.076  -1.726 -10.697  0.00  0.00    +0.002 A 
ATOM     31  C   UNL     1       2.656  -3.005 -10.402  0.00  0.00    +0.026 A 
ENDBRANCH  20  22
ENDBRANCH  18  20
ENDBRANCH  17  18
ENDBRANCH   1  17
TORSDOF 7
