REMARK  Name = ZINC08950338
REMARK  12 active torsions:
REMARK  status: ('A' for Active; 'I' for Inactive)
REMARK    1  A    between atoms: C_1  and  C_2
REMARK    2  A    between atoms: C_2  and  C_3
REMARK    3  A    between atoms: C_3  and  C_4
REMARK    4  A    between atoms: C_4  and  O_5
REMARK    5  A    between atoms: O_5  and  C_6
REMARK    6  A    between atoms: C_6  and  C_8
REMARK    7  A    between atoms: C_12  and  N_14
REMARK    8  A    between atoms: C_15  and  C_17
REMARK    9  A    between atoms: C_17  and  S_18
REMARK   10  A    between atoms: S_18  and  C_19
REMARK   11  A    between atoms: C_25  and  C_30
REMARK   12  A    between atoms: C_33  and  C_36
REMARK                            x       y       z     vdW  Elec       q    Type
REMARK                         _______ _______ _______ _____ _____    ______ ____
ROOT
ATOM      1  S   UNL     1      -2.909   6.521   3.702  0.00  0.00    -0.078 S 
ENDROOT
BRANCH   1   2
ATOM      2  C   UNL     1      -2.376   5.224   2.635  0.00  0.00    +0.170 A 
ATOM      3  N   UNL     1      -1.132   4.688   2.797  0.00  0.00    -0.301 N 
ATOM      4  H   UNL     1      -0.554   5.027   3.499  0.00  0.00    +0.171 HD
ATOM      5  C   UNL     1      -0.691   3.697   2.001  0.00  0.00    +0.261 A 
ATOM      6  O   UNL     1       0.423   3.227   2.158  0.00  0.00    -0.267 OA
ATOM      7  C   UNL     1      -1.545   3.200   0.969  0.00  0.00    +0.080 A 
ATOM      8  C   UNL     1      -1.294   2.144  -0.007  0.00  0.00    +0.004 A 
ATOM      9  C   UNL     1      -2.261   1.844  -0.906  0.00  0.00    +0.056 A 
ATOM     10  S   UNL     1      -3.581   2.964  -0.482  0.00  0.00    -0.076 S 
ATOM     11  C   UNL     1      -2.809   3.809   0.873  0.00  0.00    +0.117 A 
ATOM     12  N   UNL     1      -3.183   4.785   1.691  0.00  0.00    -0.216 NA
BRANCH   8  13
ATOM     13  C   UNL     1      -0.002   1.419  -0.019  0.00  0.00    -0.017 A 
ATOM     14  C   UNL     1       1.199   2.128  -0.018  0.00  0.00    +0.009 A 
ATOM     15  C   UNL     1       2.399   1.447  -0.034  0.00  0.00    +0.004 A 
ATOM     16  C   UNL     1       2.413   0.063  -0.051  0.00  0.00    -0.050 A 
ATOM     17  C   UNL     1       1.224  -0.645  -0.052  0.00  0.00    +0.004 A 
ATOM     18  C   UNL     1       0.018   0.025  -0.036  0.00  0.00    +0.009 A 
ATOM     19  C   UNL     1       3.727  -0.674  -0.069  0.00  0.00    +0.044 C 
ENDBRANCH   8  13
ENDBRANCH   1   2
BRANCH   1  20
ATOM     20  C   UNL     1      -4.567   6.814   3.037  0.00  0.00    +0.173 C 
BRANCH  20  22
ATOM     21  N   UNL     1      -6.483   8.308   3.499  0.00  0.00    -0.285 N 
ATOM     22  C   UNL     1      -5.234   7.917   3.818  0.00  0.00    +0.227 C 
ATOM     23  O   UNL     1      -4.646   8.452   4.735  0.00  0.00    -0.275 OA
ATOM     24  H   UNL     1      -6.928   7.928   2.725  0.00  0.00    +0.155 HD
BRANCH  21  29
ATOM     25  C   UNL     1      -7.079  11.247   5.644  0.00  0.00    +0.061 A 
ATOM     26  C   UNL     1      -8.459  11.149   5.837  0.00  0.00    +0.015 A 
ATOM     27  C   UNL     1      -9.165  10.117   5.256  0.00  0.00    +0.003 A 
ATOM     28  C   UNL     1      -8.513   9.179   4.477  0.00  0.00    +0.023 A 
ATOM     29  C   UNL     1      -7.140   9.263   4.283  0.00  0.00    +0.034 A 
ATOM     30  C   UNL     1      -6.420  10.297   4.863  0.00  0.00    +0.038 A 
BRANCH  25  31
ATOM     31  C   UNL     1      -6.320  12.352   6.264  0.00  0.00    +0.339 C 
ATOM     32  O   UNL     1      -5.120  12.435   6.095  0.00  0.00    -0.245 OA
BRANCH  31  33
ATOM     33  O   UNL     1      -6.958  13.268   7.018  0.00  0.00    -0.461 OA
BRANCH  33  34
ATOM     34  C   UNL     1      -6.149  14.325   7.597  0.00  0.00    +0.232 C 
BRANCH  34  35
ATOM     35  C   UNL     1      -7.042  15.262   8.413  0.00  0.00    +0.041 C 
BRANCH  35  37
ATOM     36  C   UNL     1      -7.082  17.313   9.839  0.00  0.00    +0.004 C 
ATOM     37  C   UNL     1      -6.189  16.377   9.023  0.00  0.00    -0.000 C 
ENDBRANCH  35  37
ENDBRANCH  34  35
ENDBRANCH  33  34
ENDBRANCH  31  33
ENDBRANCH  25  31
ENDBRANCH  21  29
ENDBRANCH  20  22
ENDBRANCH   1  20
TORSDOF 10
