REMARK  Name = ZINC25165870
REMARK  4 active torsions:
REMARK  status: ('A' for Active; 'I' for Inactive)
REMARK    1  A    between atoms: C_7  and  S_17
REMARK    2  A    between atoms: C_9  and  C_11
REMARK    3  A    between atoms: S_17  and  C_18
REMARK    4  A    between atoms: C_21  and  C_24
REMARK                            x       y       z     vdW  Elec       q    Type
REMARK                         _______ _______ _______ _____ _____    ______ ____
ROOT
ATOM      1  C   UNL     1      -0.013   1.076   0.008  0.00  0.00    +0.001 A 
ATOM      2  C   UNL     1      -1.233   1.746   0.017  0.00  0.00    +0.002 A 
ATOM      3  C   UNL     1      -1.286   3.108   0.031  0.00  0.00    +0.028 A 
ATOM      4  C   UNL     1      -0.095   3.847   0.024  0.00  0.00    +0.076 A 
ATOM      5  C   UNL     1       1.146   3.163   0.008  0.00  0.00    +0.033 A 
ATOM      6  C   UNL     1       1.165   1.765   0.000  0.00  0.00    +0.012 A 
ATOM      7  C   UNL     1       2.337   3.931   0.001  0.00  0.00    +0.116 A 
ATOM      8  N   UNL     1       2.232   5.252   0.010  0.00  0.00    -0.220 NA
ATOM      9  C   UNL     1       1.046   5.854   0.025  0.00  0.00    +0.162 A 
ATOM     10  N   UNL     1      -0.093   5.187   0.031  0.00  0.00    -0.227 NA
ENDROOT
BRANCH   9  11
ATOM     11  C   UNL     1       1.001   7.337   0.033  0.00  0.00    +0.022 A 
ATOM     12  C   UNL     1      -0.220   8.018   0.043  0.00  0.00    +0.031 A 
ATOM     13  C   UNL     1      -0.216   9.399   0.056  0.00  0.00    +0.111 A 
ATOM     14  N   UNL     1       0.918  10.073   0.050  0.00  0.00    -0.263 NA
ATOM     15  C   UNL     1       2.090   9.469   0.035  0.00  0.00    +0.111 A 
ATOM     16  C   UNL     1       2.177   8.091   0.027  0.00  0.00    +0.031 A 
ENDBRANCH   9  11
BRANCH   7  17
ATOM     17  S   UNL     1       3.916   3.150  -0.017  0.00  0.00    -0.030 S 
BRANCH  17  18
ATOM     18  C   UNL     1       4.960   4.569  -0.019  0.00  0.00    +0.190 A 
ATOM     19  N   UNL     1       6.325   4.573  -0.026  0.00  0.00    -0.205 NA
ATOM     20  H   UNL     1       3.559   6.252  -0.004  0.00  0.00    +0.191 HD
ATOM     21  C   UNL     1       6.692   5.889  -0.027  0.00  0.00    +0.155 A 
ATOM     22  N   UNL     1       5.598   6.597  -0.023  0.00  0.00    -0.157 NA
ATOM     23  N   UNL     1       4.572   5.823  -0.014  0.00  0.00    -0.253 N 
BRANCH  21  24
ATOM     24  C   UNL     1       8.102   6.423  -0.033  0.00  0.00    +0.059 C 
ATOM     25  C   UNL     1       9.021   5.479  -0.835  0.00  0.00    +0.011 C 
ATOM     26  C   UNL     1      10.359   5.498  -0.053  0.00  0.00    +0.001 C 
ATOM     27  C   UNL     1       9.893   5.542   1.423  0.00  0.00    +0.001 C 
ATOM     28  C   UNL     1       8.656   6.464   1.402  0.00  0.00    +0.011 C 
ENDBRANCH  21  24
ENDBRANCH  17  18
ENDBRANCH   7  17
TORSDOF 4
