REMARK  Name = ZINC62049352
REMARK  10 active torsions:
REMARK  status: ('A' for Active; 'I' for Inactive)
REMARK    1  A    between atoms: C_1  and  C_2
REMARK    2  A    between atoms: C_9  and  C_29
REMARK    3  A    between atoms: C_10  and  C_11
REMARK    4  A    between atoms: C_11  and  C_12
REMARK    5  A    between atoms: N_14  and  C_15
REMARK    6  A    between atoms: C_15  and  C_16
REMARK    7  A    between atoms: C_16  and  C_18
REMARK    8  A    between atoms: C_16  and  N_24
REMARK    9  A    between atoms: C_32  and  C_36
REMARK   10  A    between atoms: C_33  and  C_35
REMARK                            x       y       z     vdW  Elec       q    Type
REMARK                         _______ _______ _______ _____ _____    ______ ____
ROOT
ATOM      1  C   UNL     1      -0.308  -5.869  -0.031  0.00  0.00    +0.151 C 
ENDROOT
BRANCH   1  11
ATOM      2  C   UNL     1       0.877   0.767  -0.609  0.00  0.00    +0.044 C 
ATOM      3  C   UNL     1       0.607  -0.685  -0.308  0.00  0.00    -0.046 A 
ATOM      4  C   UNL     1       0.512  -1.616  -1.356  0.00  0.00    +0.021 A 
ATOM      5  C   UNL     1       0.270  -2.917  -1.091  0.00  0.00    +0.093 A 
ATOM      6  N   UNL     1       0.115  -3.347   0.196  0.00  0.00    -0.303 N 
ATOM      7  C   UNL     1       0.203  -2.462   1.240  0.00  0.00    +0.139 A 
ATOM      8  C   UNL     1       0.460  -1.100   0.978  0.00  0.00    +0.050 A 
ATOM      9  N   UNL     1       0.016  -3.130   2.368  0.00  0.00    -0.228 NA
ATOM     10  C   UNL     1      -0.190  -4.425   2.083  0.00  0.00    +0.093 A 
ATOM     11  C   UNL     1      -0.133  -4.580   0.731  0.00  0.00    +0.060 A 
BRANCH  10  12
ATOM     12  C   UNL     1      -0.439  -5.504   3.072  0.00  0.00    +0.002 A 
ATOM     13  C   UNL     1       0.160  -6.752   2.910  0.00  0.00    +0.010 A 
ATOM     14  C   UNL     1      -0.075  -7.751   3.833  0.00  0.00    +0.004 A 
ATOM     15  C   UNL     1      -0.902  -7.516   4.916  0.00  0.00    -0.047 A 
ATOM     16  C   UNL     1      -1.499  -6.279   5.081  0.00  0.00    -0.047 A 
ATOM     17  C   UNL     1      -1.267  -5.271   4.168  0.00  0.00    +0.013 A 
ATOM     18  C   UNL     1      -2.400  -6.031   6.263  0.00  0.00    +0.044 C 
ATOM     19  C   UNL     1      -1.155  -8.611   5.920  0.00  0.00    +0.044 C 
ENDBRANCH  10  12
ENDBRANCH   1  11
BRANCH   1  20
ATOM     20  C   UNL     1       1.044  -6.465  -0.328  0.00  0.00    +0.219 C 
ATOM     21  O   UNL     1       2.051  -5.899   0.043  0.00  0.00    -0.275 OA
ATOM     22  N   UNL     1       1.134  -7.626  -1.005  0.00  0.00    -0.316 N 
ATOM     23  H   UNL     1       0.329  -8.079  -1.302  0.00  0.00    +0.149 HD
BRANCH  22  24
ATOM     24  C   UNL     1       2.448  -8.206  -1.294  0.00  0.00    +0.093 C 
BRANCH  24  25
ATOM     25  C   UNL     1       2.277  -9.443  -2.178  0.00  0.00    -0.020 C 
BRANCH  25  26
ATOM     26  C   UNL     1       1.732  -9.029  -3.521  0.00  0.00    -0.059 A 
ATOM     27  C   UNL     1       2.580  -8.509  -4.481  0.00  0.00    +0.002 A 
ATOM     28  C   UNL     1       2.080  -8.130  -5.712  0.00  0.00    +0.000 A 
ATOM     29  C   UNL     1       0.732  -8.270  -5.984  0.00  0.00    +0.000 A 
ATOM     30  C   UNL     1      -0.116  -8.791  -5.024  0.00  0.00    +0.000 A 
ATOM     31  C   UNL     1       0.385  -9.175  -3.794  0.00  0.00    +0.002 A 
ENDBRANCH  25  26
BRANCH  25  32
ATOM     32  N   UNL     1       3.579 -10.099  -2.359  0.00  0.00    +0.385 N 
ATOM     33  C   UNL     1       4.060 -10.649  -1.066  0.00  0.00    -0.078 C 
ATOM     34  C   UNL     1       5.072 -11.739  -1.498  0.00  0.00    -0.020 C 
ATOM     35  C   UNL     1       4.410 -12.345  -2.757  0.00  0.00    -0.020 C 
ATOM     36  C   UNL     1       3.443 -11.260  -3.265  0.00  0.00    -0.078 C 
ATOM     37  H   UNL     1       4.250  -9.444  -2.731  0.00  0.00    -0.081 HD
ENDBRANCH  25  32
ENDBRANCH  24  25
ENDBRANCH  22  24
ENDBRANCH   1  20
TORSDOF 7
