REMARK  Name = ZINC09492306
REMARK  10 active torsions:
REMARK  status: ('A' for Active; 'I' for Inactive)
REMARK    1  A    between atoms: C_1  and  C_2
REMARK    2  A    between atoms: C_2  and  N_3
REMARK    3  A    between atoms: N_3  and  C_4
REMARK    4  A    between atoms: N_3  and  C_21
REMARK    5  A    between atoms: C_4  and  C_5
REMARK    6  A    between atoms: N_7  and  C_8
REMARK    7  A    between atoms: C_9  and  C_19
REMARK    8  A    between atoms: C_14  and  C_18
REMARK    9  A    between atoms: C_21  and  C_22
REMARK   10  A    between atoms: N_24  and  C_25
REMARK                            x       y       z     vdW  Elec       q    Type
REMARK                         _______ _______ _______ _____ _____    ______ ____
ROOT
ATOM      1  C   UNL     1       0.724  -2.195  -1.263  0.00  0.00    +0.020 C 
ENDROOT
BRANCH   1   2
ATOM      2  C   UNL     1      -0.675  -2.756  -1.281  0.00  0.00    +0.201 C 
ATOM      3  O   UNL     1      -1.629  -2.009  -1.233  0.00  0.00    -0.278 OA
ATOM      4  N   UNL     1      -0.866  -4.088  -1.352  0.00  0.00    -0.281 N 
ATOM      5  H   UNL     1      -0.103  -4.686  -1.391  0.00  0.00    +0.155 HD
BRANCH   4   6
ATOM      6  C   UNL     1      -2.154  -4.605  -1.369  0.00  0.00    +0.090 A 
ATOM      7  C   UNL     1      -2.537  -5.935  -1.433  0.00  0.00    +0.084 A 
ATOM      8  C   UNL     1      -3.961  -6.216  -1.437  0.00  0.00    -0.018 A 
ATOM      9  C   UNL     1      -4.742  -5.115  -1.377  0.00  0.00    -0.004 A 
ATOM     10  S   UNL     1      -3.605  -3.762  -1.311  0.00  0.00    -0.077 S 
ATOM     11  C   UNL     1      -6.239  -5.074  -1.363  0.00  0.00    +0.046 C 
ATOM     12  C   UNL     1      -6.757  -6.485  -1.047  0.00  0.00    -0.009 C 
ATOM     13  C   UNL     1      -6.027  -7.492  -1.940  0.00  0.00    +0.008 C 
ATOM     14  C   UNL     1      -4.565  -7.611  -1.503  0.00  0.00    +0.037 C 
ATOM     15  C   UNL     1      -8.261  -6.551  -1.319  0.00  0.00    +0.008 C 
BRANCH   7  16
ATOM     16  C   UNL     1      -1.568  -6.988  -1.492  0.00  0.00    +0.102 C 
ATOM     17  N   UNL     1      -0.800  -7.823  -1.539  0.00  0.00    -0.191 NA
ENDBRANCH   7  16
ENDBRANCH   4   6
ENDBRANCH   1   2
BRANCH   1  18
ATOM     18  N   UNL     1       0.662  -0.729  -1.183  0.00  0.00    +0.391 N 
ATOM     19  H   UNL     1       0.096  -0.374  -1.939  0.00  0.00    -0.080 HD
BRANCH  18  21
ATOM     20  C   UNL     1      -0.124   1.184   0.128  0.00  0.00    -0.017 C 
ATOM     21  C   UNL     1       0.068  -0.334   0.101  0.00  0.00    -0.081 C 
ENDBRANCH  18  21
BRANCH  18  22
ATOM     22  C   UNL     1       2.019  -0.176  -1.285  0.00  0.00    +0.019 C 
BRANCH  22  23
ATOM     23  C   UNL     1       2.565  -0.436  -2.666  0.00  0.00    +0.197 C 
ATOM     24  O   UNL     1       1.851  -0.919  -3.518  0.00  0.00    -0.278 OA
ATOM     25  N   UNL     1       3.846  -0.130  -2.952  0.00  0.00    -0.312 N 
ATOM     26  H   UNL     1       4.417   0.256  -2.270  0.00  0.00    +0.149 HD
BRANCH  25  27
ATOM     27  C   UNL     1       4.376  -0.383  -4.294  0.00  0.00    +0.095 C 
ATOM     28  C   UNL     1       4.890  -1.829  -4.386  0.00  0.00    +0.046 C 
ATOM     29  C   UNL     1       5.732  -2.010  -5.672  0.00  0.00    +0.168 C 
ATOM     30  S   UNL     1       6.399  -0.319  -5.958  0.00  0.00    -0.029 S 
ATOM     31  O   UNL     1       5.896   0.172  -7.193  0.00  0.00    -0.174 OA
ATOM     32  O   UNL     1       7.801  -0.330  -5.728  0.00  0.00    -0.174 OA
ATOM     33  C   UNL     1       5.570   0.573  -4.576  0.00  0.00    +0.188 C 
ENDBRANCH  25  27
ENDBRANCH  22  23
ENDBRANCH  18  22
ENDBRANCH   1  18
TORSDOF 8
