REMARK  Name = ZINC10751790
REMARK  10 active torsions:
REMARK  status: ('A' for Active; 'I' for Inactive)
REMARK    1  A    between atoms: C_1  and  C_2
REMARK    2  A    between atoms: C_4  and  C_33
REMARK    3  A    between atoms: N_11  and  C_12
REMARK    4  A    between atoms: C_12  and  C_13
REMARK    5  A    between atoms: C_13  and  N_63
REMARK    6  A    between atoms: C_14  and  N_63
REMARK    7  A    between atoms: C_15  and  N_63
REMARK    8  A    between atoms: C_16  and  C_18
REMARK    9  A    between atoms: N_23  and  S_25
REMARK   10  A    between atoms: S_25  and  C_28
REMARK                            x       y       z     vdW  Elec       q    Type
REMARK                         _______ _______ _______ _____ _____    ______ ____
ROOT
ATOM      1  C   UNL     1       7.701  -1.641   2.539  0.00  0.00    +0.044 C 
ATOM      2  C   UNL     1       6.295  -1.302   2.115  0.00  0.00    -0.049 A 
ATOM      3  C   UNL     1       5.355  -2.307   1.937  0.00  0.00    +0.009 A 
ATOM      4  C   UNL     1       4.071  -2.025   1.552  0.00  0.00    -0.024 A 
ATOM      5  C   UNL     1       3.661  -0.691   1.322  0.00  0.00    +0.083 A 
ATOM      6  C   UNL     1       4.645   0.305   1.513  0.00  0.00    +0.041 A 
ATOM      7  C   UNL     1       5.929   0.014   1.900  0.00  0.00    +0.020 A 
ATOM      8  S   UNL     1       3.755   1.794   1.128  0.00  0.00    -0.052 S 
ATOM      9  C   UNL     1       2.183   1.027   0.759  0.00  0.00    +0.168 A 
ATOM     10  N   UNL     1       2.444  -0.247   0.941  0.00  0.00    -0.224 NA
ATOM     11  N   UNL     1       0.994   1.624   0.373  0.00  0.00    -0.252 N 
ATOM     12  C   UNL     1      -0.099   0.867   0.153  0.00  0.00    +0.226 C 
ATOM     13  O   UNL     1      -1.160   1.395  -0.103  0.00  0.00    -0.275 OA
ATOM     14  C   UNL     1       3.084  -3.150   1.370  0.00  0.00    +0.046 C 
ENDROOT
BRANCH  12  15
ATOM     15  C   UNL     1      -0.005  -0.635   0.231  0.00  0.00    +0.091 C 
ATOM     16  C   UNL     1       0.782  -1.161  -0.972  0.00  0.00    +0.015 C 
ATOM     17  C   UNL     1       0.907  -2.683  -0.876  0.00  0.00    +0.018 C 
ATOM     18  C   UNL     1      -0.492  -3.308  -0.901  0.00  0.00    +0.109 C 
ATOM     19  N   UNL     1      -1.301  -2.701   0.164  0.00  0.00    -0.175 NA
ATOM     20  C   UNL     1      -1.413  -1.237   0.218  0.00  0.00    +0.122 C 
BRANCH  19  21
ATOM     21  S   UNL     1      -2.072  -3.649   1.282  0.00  0.00    +0.067 S 
ATOM     22  O   UNL     1      -3.159  -2.883   1.783  0.00  0.00    -0.152 OA
ATOM     23  O   UNL     1      -2.251  -4.923   0.680  0.00  0.00    -0.152 OA
BRANCH  21  24
ATOM     24  C   UNL     1      -0.957  -3.880   2.627  0.00  0.00    +0.143 A 
ATOM     25  C   UNL     1      -0.800  -3.129   3.744  0.00  0.00    +0.036 A 
ATOM     26  C   UNL     1       0.148  -3.505   4.677  0.00  0.00    +0.010 A 
ATOM     27  C   UNL     1       0.894  -4.613   4.446  0.00  0.00    +0.047 A 
ATOM     28  S   UNL     1       0.255  -5.167   2.874  0.00  0.00    -0.077 S 
ENDBRANCH  21  24
ENDBRANCH  19  21
ENDBRANCH  12  15
BRANCH  11  29
ATOM     29  C   UNL     1       0.926   3.077   0.203  0.00  0.00    +0.097 C 
BRANCH  29  30
ATOM     30  C   UNL     1       0.518   3.726   1.528  0.00  0.00    -0.060 C 
BRANCH  30  33
ATOM     31  C   UNL     1      -0.441   5.667   0.443  0.00  0.00    -0.097 C 
ATOM     32  C   UNL     1       0.419   5.842   2.700  0.00  0.00    -0.097 C 
ATOM     33  N   UNL     1       0.597   5.195   1.383  0.00  0.00    +0.377 N 
ATOM     34  H   UNL     1       1.522   5.444   1.012  0.00  0.00    -0.083 HD
ENDBRANCH  30  33
ENDBRANCH  29  30
ENDBRANCH  11  29
TORSDOF 6
