REMARK  Name = ZINC14471752
REMARK  8 active torsions:
REMARK  status: ('A' for Active; 'I' for Inactive)
REMARK    1  A    between atoms: C_1  and  C_2
REMARK    2  A    between atoms: C_2  and  N_3
REMARK    3  A    between atoms: N_3  and  C_4
REMARK    4  A    between atoms: N_3  and  S_6
REMARK    5  A    between atoms: C_4  and  C_5
REMARK    6  A    between atoms: S_6  and  C_9
REMARK    7  A    between atoms: C_22  and  C_25
REMARK    8  A    between atoms: C_29  and  N_31
REMARK                            x       y       z     vdW  Elec       q    Type
REMARK                         _______ _______ _______ _____ _____    ______ ____
ROOT
ATOM      1  C   UNL     1       0.002  -0.004   0.002  0.00  0.00    +0.106 A 
ATOM      2  C   UNL     1       1.113  -0.683   0.467  0.00  0.00    +0.030 A 
ATOM      3  C   UNL     1       1.131  -2.063   0.470  0.00  0.00    +0.025 A 
ATOM      4  C   UNL     1       0.038  -2.780   0.000  0.00  0.00    +0.031 A 
ATOM      5  C   UNL     1      -1.077  -2.086  -0.483  0.00  0.00    -0.018 A 
ATOM      6  C   UNL     1      -1.088  -0.708  -0.476  0.00  0.00    +0.034 A 
ATOM      7  C   UNL     1      -2.209  -2.886  -0.999  0.00  0.00    +0.049 C 
ATOM      8  C   UNL     1      -3.601  -2.368  -0.999  0.00  0.00    -0.023 C 
ATOM      9  C   UNL     1      -4.434  -3.391  -0.848  0.00  0.00    -0.030 C 
ATOM     10  C   UNL     1      -3.643  -4.692  -0.699  0.00  0.00    +0.033 C 
ATOM     11  C   UNL     1      -2.310  -4.181  -0.138  0.00  0.00    +0.029 C 
ATOM     12  C   UNL     1      -1.065  -4.984  -0.467  0.00  0.00    +0.105 C 
ATOM     13  N   UNL     1       0.072  -4.180   0.031  0.00  0.00    -0.336 N 
ATOM     14  H   UNL     1       0.855  -4.629   0.385  0.00  0.00    +0.147 HD
ENDROOT
BRANCH  12  15
ATOM     15  C   UNL     1      -1.106  -6.318   0.234  0.00  0.00    -0.025 A 
ATOM     16  C   UNL     1      -0.752  -6.409   1.568  0.00  0.00    +0.005 A 
ATOM     17  C   UNL     1      -0.793  -7.631   2.212  0.00  0.00    +0.003 A 
ATOM     18  C   UNL     1      -1.179  -8.764   1.520  0.00  0.00    +0.033 A 
ATOM     19  C   UNL     1      -1.528  -8.674   0.186  0.00  0.00    +0.127 A 
ATOM     20  C   UNL     1      -1.491  -7.451  -0.457  0.00  0.00    +0.038 A 
BRANCH  19  21
ATOM     21  N   UNL     1      -1.942  -9.887  -0.554  0.00  0.00    +0.056 N 
ATOM     22  O   UNL     1      -2.249  -9.808  -1.730  0.00  0.00    -0.126 OA
ATOM     23  O   UNL     1      -1.974 -10.965   0.012  0.00  0.00    -0.126 OA
ENDBRANCH  19  21
ENDBRANCH  12  15
BRANCH   1  24
ATOM     24  S   UNL     1      -0.022   1.758   0.012  0.00  0.00    +0.061 S 
ATOM     25  O   UNL     1       1.334   2.182   0.001  0.00  0.00    -0.153 OA
ATOM     26  O   UNL     1      -0.953   2.157  -0.985  0.00  0.00    -0.153 OA
BRANCH  24  27
ATOM     27  N   UNL     1      -0.654   2.231   1.467  0.00  0.00    -0.177 NA
BRANCH  27  29
ATOM     28  C   UNL     1       0.589   3.938   2.700  0.00  0.00    +0.022 C 
ATOM     29  C   UNL     1       0.231   2.453   2.613  0.00  0.00    +0.106 C 
ENDBRANCH  27  29
BRANCH  27  30
ATOM     30  C   UNL     1      -2.099   2.427   1.609  0.00  0.00    +0.106 C 
ATOM     31  C   UNL     1      -2.736   1.150   2.161  0.00  0.00    +0.022 C 
ENDBRANCH  27  30
ENDBRANCH  24  27
ENDBRANCH   1  24
TORSDOF 6
