REMARK  Name = ZINC64538573
REMARK  8 active torsions:
REMARK  status: ('A' for Active; 'I' for Inactive)
REMARK    1  A    between atoms: C_1  and  C_2
REMARK    2  A    between atoms: C_3  and  C_31
REMARK    3  A    between atoms: N_11  and  C_14
REMARK    4  A    between atoms: C_14  and  C_15
REMARK    5  A    between atoms: C_15  and  C_16
REMARK    6  A    between atoms: N_18  and  C_19
REMARK    7  A    between atoms: C_19  and  C_20
REMARK    8  A    between atoms: C_20  and  C_21
REMARK                            x       y       z     vdW  Elec       q    Type
REMARK                         _______ _______ _______ _____ _____    ______ ____
ROOT
ATOM      1  C   UNL     1      -4.856  -1.730   4.329  0.00  0.00    +0.215 C 
ATOM      2  O   UNL     1      -4.597  -1.444   5.479  0.00  0.00    -0.276 OA
ATOM      3  N   UNL     1      -6.135  -1.935   3.957  0.00  0.00    -0.315 N 
ATOM      4  H   UNL     1      -6.342  -2.165   3.038  0.00  0.00    +0.149 HD
ENDROOT
BRANCH   1   5
ATOM      5  C   UNL     1      -3.747  -1.858   3.316  0.00  0.00    +0.115 C 
BRANCH   5   6
ATOM      6  C   UNL     1      -2.404  -1.577   3.993  0.00  0.00    +0.118 C 
BRANCH   6  15
ATOM      7  C   UNL     1      -0.018   1.503   0.010  0.00  0.00    +0.043 C 
ATOM      8  C   UNL     1       0.002  -0.004   0.002  0.00  0.00    -0.019 C 
ATOM      9  C   UNL     1       0.009  -0.799  -1.065  0.00  0.00    +0.097 C 
ATOM     10  O   UNL     1       0.003  -2.128  -0.734  0.00  0.00    -0.477 OA
ATOM     11  C   UNL     1      -0.599  -2.200   0.549  0.00  0.00    +0.259 C 
ATOM     12  C   UNL     1       0.026  -0.915   1.197  0.00  0.00    +0.160 C 
ATOM     13  C   UNL     1      -0.950  -0.595   2.300  0.00  0.00    +0.229 C 
ATOM     14  O   UNL     1      -1.357   0.523   2.532  0.00  0.00    -0.275 OA
ATOM     15  N   UNL     1      -1.326  -1.701   3.008  0.00  0.00    -0.287 N 
ATOM     16  C   UNL     1      -0.693  -2.997   2.819  0.00  0.00    +0.195 C 
ATOM     17  N   UNL     1      -0.297  -3.299   1.436  0.00  0.00    -0.265 NA
ATOM     18  C   UNL     1       0.021  -0.292  -2.484  0.00  0.00    +0.085 C 
ATOM     19  H   UNL     1      -0.721  -4.154   1.109  0.00  0.00    +0.127 HD
ENDBRANCH   6  15
ENDBRANCH   5   6
ENDBRANCH   1   5
BRANCH   3  20
ATOM     20  C   UNL     1      -7.213  -1.812   4.942  0.00  0.00    +0.108 C 
BRANCH  20  21
ATOM     21  C   UNL     1      -8.556  -2.092   4.265  0.00  0.00    +0.052 C 
BRANCH  21  22
ATOM     22  C   UNL     1      -9.665  -1.965   5.278  0.00  0.00    -0.040 C 
ATOM     23  C   UNL     1     -10.428  -0.874   5.516  0.00  0.00    +0.000 A 
ATOM     24  C   UNL     1     -10.453   0.470   4.925  0.00  0.00    +0.030 A 
ATOM     25  C   UNL     1     -11.352   1.372   5.382  0.00  0.00    +0.042 A 
ATOM     26  C   UNL     1     -12.259   1.054   6.404  0.00  0.00    +0.022 A 
ATOM     27  C   UNL     1     -12.297  -0.159   6.995  0.00  0.00    +0.027 A 
ATOM     28  C   UNL     1     -11.396  -1.183   6.592  0.00  0.00    +0.043 A 
ATOM     29  N   UNL     1     -11.238  -2.417   7.004  0.00  0.00    -0.380 N 
ATOM     30  C   UNL     1     -10.154  -3.033   6.230  0.00  0.00    +0.144 C 
ATOM     31 CL   UNL     1     -11.385   2.962   4.686  0.00  0.00    -0.084 Cl
ATOM     32  H   UNL     1     -11.753  -2.852   7.702  0.00  0.00    +0.160 HD
ENDBRANCH  21  22
ENDBRANCH  20  21
ENDBRANCH   3  20
TORSDOF 6
