REMARK  Name = ZINC48916984
REMARK  5 active torsions:
REMARK  status: ('A' for Active; 'I' for Inactive)
REMARK    1  A    between atoms: C_1  and  C_2
REMARK    2  A    between atoms: C_2  and  C_3
REMARK    3  A    between atoms: C_7  and  C_23
REMARK    4  A    between atoms: N_13  and  C_14
REMARK    5  A    between atoms: C_17  and  C_20
REMARK                            x       y       z     vdW  Elec       q    Type
REMARK                         _______ _______ _______ _____ _____    ______ ____
ROOT
ATOM      1  C   UNL     1      -1.396  -0.632  -0.026  0.00  0.00    +0.103 C 
ATOM      2  C   UNL     1      -1.261  -2.148   0.155  0.00  0.00    +0.182 C 
ATOM      3  O   UNL     1      -2.531  -2.764  -0.069  0.00  0.00    -0.373 OA
ATOM      4  C   UNL     1      -3.040  -2.589  -1.394  0.00  0.00    +0.133 C 
ATOM      5  C   UNL     1      -3.266  -1.095  -1.655  0.00  0.00    +0.141 C 
ATOM      6  N   UNL     1      -2.025  -0.374  -1.331  0.00  0.00    -0.278 N 
ATOM      7  C   UNL     1      -1.480   0.496  -2.204  0.00  0.00    +0.303 C 
ATOM      8  O   UNL     1      -0.402   1.004  -1.964  0.00  0.00    -0.253 OA
ATOM      9  N   UNL     1      -2.131   0.804  -3.344  0.00  0.00    -0.296 N 
ATOM     10  C   UNL     1      -4.366  -3.340  -1.535  0.00  0.00    +0.039 C 
ATOM     11  H   UNL     1      -2.955   0.346  -3.570  0.00  0.00    +0.151 HD
ENDROOT
BRANCH   9  12
ATOM     12  C   UNL     1      -1.593   1.830  -4.240  0.00  0.00    +0.074 C 
ATOM     13  C   UNL     1      -2.060   3.210  -3.774  0.00  0.00    +0.023 C 
ATOM     14  C   UNL     1      -3.589   3.265  -3.795  0.00  0.00    +0.016 C 
ATOM     15  C   UNL     1      -4.089   3.012  -5.218  0.00  0.00    +0.102 C 
ATOM     16  C   UNL     1      -3.622   1.632  -5.685  0.00  0.00    +0.016 C 
ATOM     17  C   UNL     1      -2.093   1.577  -5.664  0.00  0.00    +0.023 C 
BRANCH  15  18
ATOM     18  C   UNL     1      -5.595   3.066  -5.239  0.00  0.00    +0.359 C 
ATOM     19  O   UNL     1      -6.173   3.602  -6.169  0.00  0.00    -0.246 OA
ATOM     20  O   UNL     1      -6.235   2.574  -4.325  0.00  0.00    -0.246 OA
ENDBRANCH  15  18
ENDBRANCH   9  12
BRANCH   1  22
ATOM     21  C   UNL     1       0.643  -0.263   1.370  0.00  0.00    +0.006 C 
ATOM     22  C   UNL     1      -0.011   0.017   0.015  0.00  0.00    +0.021 C 
ENDBRANCH   1  22
TORSDOF 3
