REMARK  Name = ZINC27017117
REMARK  7 active torsions:
REMARK  status: ('A' for Active; 'I' for Inactive)
REMARK    1  A    between atoms: C_1  and  C_2
REMARK    2  A    between atoms: C_2  and  O_3
REMARK    3  A    between atoms: O_3  and  C_4
REMARK    4  A    between atoms: C_9  and  N_10
REMARK    5  A    between atoms: C_11  and  C_13
REMARK    6  A    between atoms: C_13  and  C_14
REMARK    7  A    between atoms: C_26  and  C_28
REMARK                            x       y       z     vdW  Elec       q    Type
REMARK                         _______ _______ _______ _____ _____    ______ ____
ROOT
ATOM      1  C   UNL     1      -0.492  -0.197  -2.066  0.00  0.00    +0.176 C 
ATOM      2  C   UNL     1      -0.670  -1.683  -2.243  0.00  0.00    +0.239 C 
ATOM      3  O   UNL     1      -1.768  -2.127  -2.505  0.00  0.00    -0.273 OA
ATOM      4  N   UNL     1       0.374  -2.522  -2.114  0.00  0.00    -0.282 N 
ATOM      5  C   UNL     1       1.659  -2.031  -1.860  0.00  0.00    +0.055 A 
ATOM      6  C   UNL     1       2.674  -2.879  -1.445  0.00  0.00    +0.025 A 
ATOM      7  C   UNL     1       3.939  -2.375  -1.210  0.00  0.00    +0.002 A 
ATOM      8  C   UNL     1       4.199  -1.028  -1.385  0.00  0.00    +0.002 A 
ATOM      9  C   UNL     1       3.192  -0.173  -1.798  0.00  0.00    +0.025 A 
ATOM     10  C   UNL     1       1.923  -0.671  -2.033  0.00  0.00    +0.059 A 
ATOM     11  N   UNL     1       0.880   0.170  -2.447  0.00  0.00    -0.253 N 
ATOM     12  C   UNL     1       1.127   1.280  -3.172  0.00  0.00    +0.252 C 
ATOM     13  O   UNL     1       2.273   1.640  -3.360  0.00  0.00    -0.270 OA
ATOM     14  H   UNL     1       0.222  -3.608  -2.207  0.00  0.00    +0.155 HD
ENDROOT
BRANCH  12  15
ATOM     15  C   UNL     1       0.006   2.057  -3.739  0.00  0.00    +0.037 A 
ATOM     16  C   UNL     1      -1.236   2.063  -3.101  0.00  0.00    +0.014 A 
ATOM     17  C   UNL     1      -2.277   2.795  -3.632  0.00  0.00    +0.016 A 
ATOM     18  C   UNL     1      -2.096   3.513  -4.802  0.00  0.00    +0.018 A 
ATOM     19  C   UNL     1      -0.869   3.507  -5.442  0.00  0.00    +0.016 A 
ATOM     20  C   UNL     1       0.182   2.783  -4.918  0.00  0.00    +0.014 A 
ATOM     21 BR   UNL     1      -3.532   4.508  -5.528  0.00  0.00    -0.050 Br
ENDBRANCH  12  15
BRANCH   1  22
ATOM     22  C   UNL     1      -0.733   0.177  -0.602  0.00  0.00    +0.128 C 
BRANCH  22  24
ATOM     23  N   UNL     1      -0.736   2.548   0.104  0.00  0.00    -0.283 N 
ATOM     24  C   UNL     1      -0.027   1.472  -0.291  0.00  0.00    +0.220 C 
ATOM     25  O   UNL     1       1.179   1.545  -0.395  0.00  0.00    -0.275 OA
ATOM     26  H   UNL     1      -1.835   2.506   0.122  0.00  0.00    +0.155 HD
BRANCH  23  32
ATOM     27  C   UNL     1      -0.478   4.952  -0.016  0.00  0.00    +0.142 A 
ATOM     28  C   UNL     1       0.178   6.108   0.373  0.00  0.00    +0.047 A 
ATOM     29  C   UNL     1       1.240   6.036   1.256  0.00  0.00    +0.004 A 
ATOM     30  C   UNL     1       1.647   4.813   1.755  0.00  0.00    +0.002 A 
ATOM     31  C   UNL     1       0.994   3.656   1.376  0.00  0.00    +0.027 A 
ATOM     32  C   UNL     1      -0.072   3.720   0.491  0.00  0.00    +0.076 A 
BRANCH  27  33
ATOM     33  O   UNL     1      -1.520   5.021  -0.888  0.00  0.00    -0.490 OA
BRANCH  33  35
ATOM     34  C   UNL     1      -3.064   6.195  -2.329  0.00  0.00    +0.048 C 
ATOM     35  C   UNL     1      -1.881   6.318  -1.367  0.00  0.00    +0.226 C 
ENDBRANCH  33  35
ENDBRANCH  27  33
ENDBRANCH  23  32
ENDBRANCH  22  24
ENDBRANCH   1  22
TORSDOF 6
