REMARK  Name = ZINC13501232
REMARK  11 active torsions:
REMARK  status: ('A' for Active; 'I' for Inactive)
REMARK    1  A    between atoms: C_1  and  C_2
REMARK    2  A    between atoms: C_4  and  C_34
REMARK    3  A    between atoms: C_9  and  C_14
REMARK    4  A    between atoms: C_14  and  N_70
REMARK    5  A    between atoms: C_15  and  C_16
REMARK    6  A    between atoms: C_15  and  N_70
REMARK    7  A    between atoms: C_16  and  C_17
REMARK    8  A    between atoms: C_17  and  O_18
REMARK    9  A    between atoms: C_19  and  C_24
REMARK   10  A    between atoms: C_19  and  N_70
REMARK   11  A    between atoms: N_28  and  C_29
REMARK                            x       y       z     vdW  Elec       q    Type
REMARK                         _______ _______ _______ _____ _____    ______ ____
ROOT
ATOM      1  N   UNL     1      -1.427   7.914  -1.395  0.00  0.00    +0.391 N 
ATOM      2  H   UNL     1      -2.184   7.252  -1.599  0.00  0.00    -0.080 HD
ENDROOT
BRANCH   1   3
ATOM      3  C   UNL     1      -1.798   9.244  -1.924  0.00  0.00    -0.002 C 
ATOM      4  C   UNL     1      -0.670  10.265  -1.694  0.00  0.00    -0.004 C 
ATOM      5  C   UNL     1      -1.260  11.381  -0.808  0.00  0.00    -0.001 C 
ATOM      6  C   UNL     1      -2.443  10.699  -0.076  0.00  0.00    -0.001 C 
ATOM      7  C   UNL     1      -3.034   9.775  -1.169  0.00  0.00    -0.004 C 
BRANCH   3   8
ATOM      8  C   UNL     1      -2.101   9.131  -3.396  0.00  0.00    +0.141 A 
ATOM      9  N   UNL     1      -2.038   8.044  -4.127  0.00  0.00    -0.115 NA
ATOM     10  N   UNL     1      -2.370   8.356  -5.332  0.00  0.00    -0.023 NA
ATOM     11  N   UNL     1      -2.644   9.612  -5.389  0.00  0.00    -0.044 NA
ATOM     12  N   UNL     1      -2.495  10.124  -4.214  0.00  0.00    -0.228 N 
BRANCH  12  13
ATOM     13  C   UNL     1      -2.711  11.524  -3.841  0.00  0.00    +0.111 C 
ATOM     14  C   UNL     1      -4.159  11.942  -4.172  0.00  0.00    +0.027 C 
ATOM     15  C   UNL     1      -4.028  13.406  -4.662  0.00  0.00    +0.002 C 
ATOM     16  C   UNL     1      -2.708  13.380  -5.473  0.00  0.00    +0.002 C 
ATOM     17  C   UNL     1      -1.789  12.438  -4.668  0.00  0.00    +0.027 C 
ENDBRANCH  12  13
ENDBRANCH   3   8
ENDBRANCH   1   3
BRANCH   1  18
ATOM     18  C   UNL     1      -1.235   7.989   0.069  0.00  0.00    -0.036 C 
BRANCH  18  27
ATOM     19  C   UNL     1       3.197   2.568   2.635  0.00  0.00    +0.044 C 
ATOM     20  C   UNL     1       1.830   3.082   2.262  0.00  0.00    -0.050 A 
ATOM     21  C   UNL     1       0.722   2.258   2.407  0.00  0.00    +0.008 A 
ATOM     22  C   UNL     1      -0.536   2.706   2.067  0.00  0.00    -0.026 A 
ATOM     23  C   UNL     1      -0.702   4.000   1.584  0.00  0.00    +0.052 A 
ATOM     24  C   UNL     1       0.424   4.832   1.438  0.00  0.00    -0.001 A 
ATOM     25  C   UNL     1       1.693   4.354   1.784  0.00  0.00    +0.013 A 
ATOM     26  C   UNL     1       0.241   6.189   0.922  0.00  0.00    +0.017 A 
ATOM     27  C   UNL     1      -1.012   6.597   0.602  0.00  0.00    +0.001 A 
ATOM     28  C   UNL     1      -2.108   5.723   0.767  0.00  0.00    +0.251 A 
ATOM     29  O   UNL     1      -3.226   6.111   0.475  0.00  0.00    -0.268 OA
ATOM     30  N   UNL     1      -1.949   4.475   1.240  0.00  0.00    -0.322 N 
ATOM     31  H   UNL     1      -2.724   3.900   1.342  0.00  0.00    +0.169 HD
ATOM     32  C   UNL     1      -1.730   1.799   2.224  0.00  0.00    +0.046 C 
ENDBRANCH  18  27
ENDBRANCH   1  18
BRANCH   1  33
ATOM     33  C   UNL     1      -0.186   7.440  -2.044  0.00  0.00    -0.075 C 
BRANCH  33  34
ATOM     34  C   UNL     1      -0.215   5.911  -2.091  0.00  0.00    +0.009 C 
BRANCH  34  35
ATOM     35  C   UNL     1       1.081   5.396  -2.720  0.00  0.00    +0.154 C 
BRANCH  35  36
ATOM     36  O   UNL     1       1.054   3.968  -2.764  0.00  0.00    -0.395 OA
ATOM     37  H   UNL     1       1.846   3.572  -3.152  0.00  0.00    +0.209 HD
ENDBRANCH  35  36
ENDBRANCH  34  35
ENDBRANCH  33  34
ENDBRANCH   1  33
TORSDOF 9
