REMARK  Name = ZINC14545080
REMARK  5 active torsions:
REMARK  status: ('A' for Active; 'I' for Inactive)
REMARK    1  A    between atoms: C_1  and  C_2
REMARK    2  A    between atoms: C_2  and  C_3
REMARK    3  A    between atoms: C_2  and  O_4
REMARK    4  A    between atoms: O_4  and  C_5
REMARK    5  A    between atoms: C_12  and  C_21
REMARK                            x       y       z     vdW  Elec       q    Type
REMARK                         _______ _______ _______ _____ _____    ______ ____
ROOT
ATOM      1  C   UNL     1       2.297  -2.296  -0.341  0.00  0.00    +0.142 A 
ATOM      2  C   UNL     1       2.232  -3.410   0.473  0.00  0.00    +0.047 A 
ATOM      3  C   UNL     1       1.950  -3.271   1.820  0.00  0.00    +0.004 A 
ATOM      4  C   UNL     1       1.727  -2.012   2.345  0.00  0.00    +0.006 A 
ATOM      5  C   UNL     1       1.782  -0.894   1.538  0.00  0.00    -0.016 A 
ATOM      6  C   UNL     1       2.078  -1.015   0.180  0.00  0.00    +0.074 A 
ATOM      7  N   UNL     1       2.175   0.064  -0.700  0.00  0.00    -0.334 N 
ATOM      8  C   UNL     1       1.856   1.393  -0.153  0.00  0.00    +0.107 C 
ATOM      9  C   UNL     1       2.420   1.443   1.252  0.00  0.00    +0.029 C 
ATOM     10  C   UNL     1       1.524   0.462   2.070  0.00  0.00    +0.049 C 
ATOM     11  C   UNL     1       1.830   0.844   3.470  0.00  0.00    -0.023 C 
ATOM     12  C   UNL     1       2.163   2.130   3.494  0.00  0.00    -0.030 C 
ATOM     13  C   UNL     1       2.138   2.701   2.074  0.00  0.00    +0.033 C 
ATOM     14  H   UNL     1       3.068   0.071  -1.168  0.00  0.00    +0.147 HD
ENDROOT
BRANCH   8  15
ATOM     15  C   UNL     1       0.362   1.588  -0.114  0.00  0.00    -0.002 A 
ATOM     16  C   UNL     1      -0.568   0.623  -0.051  0.00  0.00    +0.089 A 
ATOM     17  N   UNL     1      -1.818   1.179  -0.040  0.00  0.00    -0.360 N 
ATOM     18  H   UNL     1      -2.649   0.680  -0.001  0.00  0.00    +0.165 HD
ATOM     19  C   UNL     1      -1.720   2.551  -0.087  0.00  0.00    +0.047 A 
ATOM     20  C   UNL     1      -0.350   2.868  -0.139  0.00  0.00    +0.005 A 
ATOM     21  C   UNL     1       0.054   4.203  -0.201  0.00  0.00    +0.010 A 
ATOM     22  C   UNL     1      -0.884   5.196  -0.209  0.00  0.00    +0.001 A 
ATOM     23  C   UNL     1      -2.236   4.889  -0.157  0.00  0.00    +0.002 A 
ATOM     24  C   UNL     1      -2.658   3.579  -0.096  0.00  0.00    +0.026 A 
ENDBRANCH   8  15
BRANCH   1  25
ATOM     25  O   UNL     1       2.576  -2.446  -1.664  0.00  0.00    -0.488 OA
BRANCH  25  27
ATOM     26  C   UNL     1       2.368  -3.792  -3.660  0.00  0.00    +0.051 C 
ATOM     27  C   UNL     1       2.668  -3.783  -2.160  0.00  0.00    +0.167 C 
ATOM     28  C   UNL     1       4.081  -4.319  -1.920  0.00  0.00    +0.051 C 
ENDBRANCH  25  27
ENDBRANCH   1  25
TORSDOF 3
