REMARK  Name = ZINC09498767
REMARK  5 active torsions:
REMARK  status: ('A' for Active; 'I' for Inactive)
REMARK    1  A    between atoms: C_5  and  C_7
REMARK    2  A    between atoms: C_10  and  S_13
REMARK    3  A    between atoms: N_11  and  N_12
REMARK    4  A    between atoms: S_13  and  C_14
REMARK    5  A    between atoms: C_14  and  C_15
REMARK                            x       y       z     vdW  Elec       q    Type
REMARK                         _______ _______ _______ _____ _____    ______ ____
ROOT
ATOM      1  C   UNL     1       1.317  -0.343  -0.206  0.00  0.00    +0.184 A 
ATOM      2  N   UNL     1       2.025   0.753  -0.064  0.00  0.00    -0.127 NA
ATOM      3  N   UNL     1       1.247   1.752   0.154  0.00  0.00    -0.121 NA
ATOM      4  C   UNL     1      -0.006   1.355   0.165  0.00  0.00    +0.209 A 
ATOM      5  N   UNL     1      -0.006   0.009  -0.064  0.00  0.00    -0.224 N 
ENDROOT
BRANCH   1  10
ATOM      6  C   UNL     1       1.757  -3.761  -1.700  0.00  0.00    +0.001 A 
ATOM      7  C   UNL     1       2.825  -4.243  -0.963  0.00  0.00    +0.003 A 
ATOM      8  C   UNL     1       3.405  -3.461   0.019  0.00  0.00    +0.039 A 
ATOM      9  C   UNL     1       2.924  -2.189   0.267  0.00  0.00    +0.134 A 
ATOM     10  C   UNL     1       1.841  -1.700  -0.469  0.00  0.00    +0.056 A 
ATOM     11  C   UNL     1       1.262  -2.496  -1.459  0.00  0.00    +0.014 A 
ATOM     12  F   UNL     1       3.494  -1.424   1.223  0.00  0.00    -0.205 F 
ENDBRANCH   1  10
BRANCH   5  13
ATOM     13  N   UNL     1      -1.092  -0.817  -0.137  0.00  0.00    -0.295 N 
ATOM     14  H   UNL     1      -1.385  -0.945  -1.093  0.00  0.00    +0.163 HD
ATOM     15  H   UNL     1      -0.902  -1.704   0.305  0.00  0.00    +0.163 HD
ENDBRANCH   5  13
BRANCH   4  16
ATOM     16  S   UNL     1      -1.423   2.372   0.420  0.00  0.00    -0.078 S 
BRANCH  16  17
ATOM     17  C   UNL     1      -0.620   3.978   0.647  0.00  0.00    +0.133 C 
BRANCH  17  18
ATOM     18  C   UNL     1      -1.668   5.034   0.887  0.00  0.00    +0.059 A 
ATOM     19  C   UNL     1      -1.864   5.535   2.159  0.00  0.00    +0.094 A 
ATOM     20  C   UNL     1      -2.841   6.518   2.357  0.00  0.00    +0.259 A 
ATOM     21  O   UNL     1      -3.036   6.983   3.468  0.00  0.00    -0.267 OA
ATOM     22  N   UNL     1      -3.567   6.939   1.300  0.00  0.00    -0.267 N 
ATOM     23  C   UNL     1      -4.525   7.891   1.477  0.00  0.00    +0.111 A 
ATOM     24  C   UNL     1      -5.266   8.329   0.433  0.00  0.00    +0.035 A 
ATOM     25  C   UNL     1      -5.054   7.804  -0.851  0.00  0.00    +0.020 A 
ATOM     26  C   UNL     1      -4.098   6.851  -1.037  0.00  0.00    +0.048 A 
ATOM     27  C   UNL     1      -3.338   6.409   0.061  0.00  0.00    +0.141 A 
ATOM     28  N   UNL     1      -2.404   5.477  -0.120  0.00  0.00    -0.233 NA
ATOM     29 BR   UNL     1      -6.590   9.652   0.704  0.00  0.00    -0.049 Br
ENDBRANCH  17  18
ENDBRANCH  16  17
ENDBRANCH   4  16
TORSDOF 5
