REMARK  Name = ZINC08582955
REMARK  9 active torsions:
REMARK  status: ('A' for Active; 'I' for Inactive)
REMARK    1  A    between atoms: C_1  and  C_2
REMARK    2  A    between atoms: C_7  and  C_13
REMARK    3  A    between atoms: C_8  and  O_12
REMARK    4  A    between atoms: C_13  and  C_15
REMARK    5  A    between atoms: C_13  and  N_70
REMARK    6  A    between atoms: N_19  and  C_20
REMARK    7  A    between atoms: N_27  and  C_30
REMARK    8  A    between atoms: C_33  and  O_36
REMARK    9  A    between atoms: O_36  and  C_37
REMARK                            x       y       z     vdW  Elec       q    Type
REMARK                         _______ _______ _______ _____ _____    ______ ____
ROOT
ATOM      1  C   UNL     1       3.651  -0.815  -0.036  0.00  0.00    +0.039 C 
ENDROOT
BRANCH   1   8
ATOM      2  C   UNL     1      -2.967   3.453  -0.944  0.00  0.00    +0.044 C 
ATOM      3  C   UNL     1      -1.691   2.655  -1.004  0.00  0.00    -0.048 A 
ATOM      4  C   UNL     1      -1.092   2.410  -2.238  0.00  0.00    +0.004 A 
ATOM      5  C   UNL     1       0.062   1.692  -2.324  0.00  0.00    +0.010 A 
ATOM      6  C   UNL     1       0.657   1.192  -1.155  0.00  0.00    +0.001 A 
ATOM      7  C   UNL     1       1.851   0.445  -1.204  0.00  0.00    +0.017 A 
ATOM      8  C   UNL     1       2.375  -0.012  -0.031  0.00  0.00    +0.008 A 
ATOM      9  C   UNL     1       1.726   0.266   1.178  0.00  0.00    +0.215 A 
ATOM     10  N   UNL     1       0.612   0.964   1.218  0.00  0.00    -0.213 NA
ATOM     11  C   UNL     1       0.050   1.438   0.100  0.00  0.00    +0.075 A 
ATOM     12  C   UNL     1      -1.138   2.188   0.149  0.00  0.00    +0.031 A 
BRANCH   9  13
ATOM     13  O   UNL     1       2.259  -0.196   2.336  0.00  0.00    -0.492 OA
ATOM     14  H   UNL     1       1.945  -1.074   2.591  0.00  0.00    +0.294 HD
ENDBRANCH   9  13
ENDBRANCH   1   8
BRANCH   1  20
ATOM     15  C   UNL     1       4.872   1.248  -0.378  0.00  0.00    -0.058 C 
ATOM     16  C   UNL     1       5.985   2.132   0.189  0.00  0.00    +0.086 C 
ATOM     17  N   UNL     1       7.250   1.385   0.187  0.00  0.00    -0.333 N 
ATOM     18  C   UNL     1       7.138   0.163   0.996  0.00  0.00    +0.086 C 
ATOM     19  C   UNL     1       6.025  -0.721   0.429  0.00  0.00    -0.058 C 
ATOM     20  N   UNL     1       4.755   0.035   0.457  0.00  0.00    +0.391 N 
ATOM     21  H   UNL     1       4.554   0.314   1.425  0.00  0.00    -0.080 HD
BRANCH  17  22
ATOM     22  C   UNL     1       8.307   2.186   0.632  0.00  0.00    +0.030 A 
ATOM     23  C   UNL     1       9.079   1.781   1.713  0.00  0.00    +0.027 A 
ATOM     24  C   UNL     1      10.126   2.570   2.148  0.00  0.00    +0.047 A 
ATOM     25  C   UNL     1      10.399   3.773   1.514  0.00  0.00    +0.120 A 
ATOM     26  C   UNL     1       9.625   4.181   0.437  0.00  0.00    +0.047 A 
ATOM     27  C   UNL     1       8.582   3.390  -0.003  0.00  0.00    +0.027 A 
BRANCH  25  28
ATOM     28  O   UNL     1      11.426   4.552   1.947  0.00  0.00    -0.495 OA
ATOM     29  C   UNL     1      12.181   4.070   3.060  0.00  0.00    +0.277 C 
ENDBRANCH  25  28
ENDBRANCH  17  22
ENDBRANCH   1  20
BRANCH   1  30
ATOM     30  C   UNL     1       3.938  -1.292  -1.437  0.00  0.00    +0.143 A 
ATOM     31  N   UNL     1       4.387  -0.570  -2.433  0.00  0.00    -0.115 NA
ATOM     32  N   UNL     1       4.504  -1.338  -3.461  0.00  0.00    -0.023 NA
ATOM     33  N   UNL     1       4.134  -2.530  -3.148  0.00  0.00    -0.044 NA
ATOM     34  N   UNL     1       3.777  -2.543  -1.908  0.00  0.00    -0.227 N 
BRANCH  34  35
ATOM     35  C   UNL     1       3.289  -3.700  -1.155  0.00  0.00    +0.111 C 
ATOM     36  C   UNL     1       4.339  -4.830  -1.181  0.00  0.00    +0.027 C 
ATOM     37  C   UNL     1       3.498  -6.128  -1.280  0.00  0.00    +0.002 C 
ATOM     38  C   UNL     1       2.342  -5.716  -2.225  0.00  0.00    +0.002 C 
ATOM     39  C   UNL     1       2.019  -4.263  -1.817  0.00  0.00    +0.027 C 
ENDBRANCH  34  35
ENDBRANCH   1  30
TORSDOF 7
