REMARK  Name = ZINC47740403
REMARK  6 active torsions:
REMARK  status: ('A' for Active; 'I' for Inactive)
REMARK    1  A    between atoms: C_1  and  C_2
REMARK    2  A    between atoms: C_2  and  C_22
REMARK    3  A    between atoms: C_3  and  C_4
REMARK    4  A    between atoms: N_6  and  N_7
REMARK    5  A    between atoms: C_8  and  C_10
REMARK    6  A    between atoms: C_13  and  C_15
REMARK                            x       y       z     vdW  Elec       q    Type
REMARK                         _______ _______ _______ _____ _____    ______ ____
ROOT
ATOM      1  N   UNL     1       0.350   0.075   4.795  0.00  0.00    -0.230 N 
ATOM      2  C   UNL     1       0.573  -0.591   5.945  0.00  0.00    +0.267 C 
ATOM      3  O   UNL     1       0.772  -1.792   5.925  0.00  0.00    -0.268 OA
ATOM      4  H   UNL     1       0.191   1.032   4.811  0.00  0.00    +0.173 HD
ENDROOT
BRANCH   2   5
ATOM      5  C   UNL     1       0.575   0.130   7.220  0.00  0.00    +0.076 A 
ATOM      6  C   UNL     1       0.787  -0.362   8.500  0.00  0.00    +0.021 A 
ATOM      7  C   UNL     1       0.743   0.508   9.553  0.00  0.00    +0.017 A 
ATOM      8  C   UNL     1       0.488   1.846   9.302  0.00  0.00    +0.020 A 
ATOM      9  S   UNL     1       0.314   1.870   7.525  0.00  0.00    -0.084 S 
BRANCH   8  10
ATOM     10  C   UNL     1       0.391   2.968  10.259  0.00  0.00    -0.011 A 
ATOM     11  C   UNL     1       0.572   2.741  11.625  0.00  0.00    +0.012 A 
ATOM     12  C   UNL     1       0.480   3.792  12.513  0.00  0.00    +0.039 A 
ATOM     13  C   UNL     1       0.208   5.071  12.053  0.00  0.00    +0.123 A 
ATOM     14  C   UNL     1       0.028   5.301  10.698  0.00  0.00    +0.039 A 
ATOM     15  C   UNL     1       0.123   4.259   9.800  0.00  0.00    +0.012 A 
ATOM     16  F   UNL     1       0.119   6.096  12.928  0.00  0.00    -0.205 F 
ENDBRANCH   8  10
ENDBRANCH   2   5
BRANCH   1  19
ATOM     17  C   UNL     1       0.125   0.051   2.425  0.00  0.00    +0.253 C 
ATOM     18  O   UNL     1      -0.074   1.250   2.445  0.00  0.00    -0.269 OA
ATOM     19  N   UNL     1       0.348  -0.615   3.575  0.00  0.00    -0.231 N 
ATOM     20  H   UNL     1       0.506  -1.572   3.559  0.00  0.00    +0.173 HD
BRANCH  17  23
ATOM     21  C   UNL     1      -0.770   1.358   0.087  0.00  0.00    +0.039 C 
ATOM     22  C   UNL     1      -0.222  -0.044   0.025  0.00  0.00    -0.071 C 
ATOM     23  C   UNL     1       0.122  -0.674   1.145  0.00  0.00    +0.067 C 
ATOM     24  C   UNL     1      -0.064  -0.733  -1.306  0.00  0.00    +0.039 C 
ENDBRANCH  17  23
ENDBRANCH   1  19
TORSDOF 4
