REMARK  Name = ZINC39653411
REMARK  13 active torsions:
REMARK  status: ('A' for Active; 'I' for Inactive)
REMARK    1  A    between atoms: C_1  and  C_2
REMARK    2  A    between atoms: C_2  and  O_3
REMARK    3  A    between atoms: O_3  and  C_4
REMARK    4  A    between atoms: C_6  and  C_12
REMARK    5  A    between atoms: C_9  and  O_10
REMARK    6  A    between atoms: O_10  and  C_11
REMARK    7  A    between atoms: C_12  and  C_13
REMARK    8  A    between atoms: C_13  and  N_14
REMARK    9  A    between atoms: C_15  and  C_17
REMARK   10  A    between atoms: C_28  and  C_30
REMARK   11  A    between atoms: C_34  and  N_36
REMARK   12  A    between atoms: N_36  and  C_37
REMARK   13  A    between atoms: N_36  and  C_38
REMARK                            x       y       z     vdW  Elec       q    Type
REMARK                         _______ _______ _______ _____ _____    ______ ____
ROOT
ATOM      1  C   UNL     1      -3.958  -7.789   1.383  0.00  0.00    +0.100 C 
ATOM      2  C   UNL     1      -3.285  -9.144   1.699  0.00  0.00    +0.121 C 
ATOM      3  N   UNL     1      -4.411 -10.059   2.000  0.00  0.00    -0.296 N 
ATOM      4  C   UNL     1      -5.460  -9.688   1.020  0.00  0.00    +0.115 C 
ATOM      5  C   UNL     1      -5.385  -8.150   0.938  0.00  0.00    -0.004 C 
ATOM      6  C   UNL     1      -6.407  -7.521   1.879  0.00  0.00    -0.010 C 
ATOM      7  C   UNL     1      -7.819  -7.847   1.383  0.00  0.00    -0.082 C 
ATOM      8  N   UNL     1      -7.993  -7.329   0.020  0.00  0.00    +0.379 N 
ATOM      9  C   UNL     1      -7.067  -8.007  -0.896  0.00  0.00    -0.082 C 
ATOM     10  C   UNL     1      -5.624  -7.687  -0.496  0.00  0.00    -0.010 C 
ATOM     11  C   UNL     1      -4.468 -11.014   2.950  0.00  0.00    +0.247 C 
ATOM     12  O   UNL     1      -3.572 -11.114   3.765  0.00  0.00    -0.270 OA
ATOM     13  H   UNL     1      -8.942  -7.491  -0.281  0.00  0.00    -0.086 HD
ATOM     14  H   UNL     1      -7.805  -6.337   0.013  0.00  0.00    -0.086 HD
ENDROOT
BRANCH  11  15
ATOM     15  C   UNL     1      -5.620 -11.940   2.999  0.00  0.00    +0.039 A 
ATOM     16  C   UNL     1      -6.419 -12.124   1.869  0.00  0.00    +0.013 A 
ATOM     17  C   UNL     1      -7.494 -12.989   1.918  0.00  0.00    +0.003 A 
ATOM     18  C   UNL     1      -7.784 -13.673   3.083  0.00  0.00    +0.023 A 
ATOM     19  C   UNL     1      -6.995 -13.496   4.213  0.00  0.00    +0.030 A 
ATOM     20  C   UNL     1      -5.909 -12.635   4.173  0.00  0.00    +0.036 A 
BRANCH  19  21
ATOM     21  N   UNL     1      -7.293 -14.190   5.389  0.00  0.00    -0.336 N 
ATOM     22  C   UNL     1      -8.515 -14.994   5.476  0.00  0.00    +0.129 C 
ATOM     23  C   UNL     1      -6.383 -14.115   6.535  0.00  0.00    +0.129 C 
ENDBRANCH  19  21
ENDBRANCH  11  15
BRANCH   1  25
ATOM     24  N   UNL     1      -3.329  -5.748   0.135  0.00  0.00    -0.315 N 
ATOM     25  C   UNL     1      -3.223  -7.085   0.272  0.00  0.00    +0.218 C 
ATOM     26  O   UNL     1      -2.537  -7.721  -0.500  0.00  0.00    -0.275 OA
ATOM     27  H   UNL     1      -3.877  -5.239   0.752  0.00  0.00    +0.149 HD
BRANCH  24  28
ATOM     28  C   UNL     1      -2.615  -5.064  -0.946  0.00  0.00    +0.109 C 
BRANCH  28  29
ATOM     29  C   UNL     1      -2.903  -3.563  -0.877  0.00  0.00    +0.054 C 
BRANCH  29  32
ATOM     30  C   UNL     1      -2.105  -2.039  -4.241  0.00  0.00    +0.162 A 
ATOM     31  C   UNL     1      -2.779  -2.686  -3.217  0.00  0.00    +0.053 A 
ATOM     32  C   UNL     1      -2.168  -2.859  -1.989  0.00  0.00    -0.042 A 
ATOM     33  C   UNL     1      -0.886  -2.388  -1.779  0.00  0.00    +0.007 A 
ATOM     34  C   UNL     1      -0.208  -1.742  -2.795  0.00  0.00    +0.049 A 
ATOM     35  C   UNL     1      -0.812  -1.570  -4.031  0.00  0.00    +0.162 A 
BRANCH  35  36
ATOM     36  O   UNL     1      -0.144  -0.939  -5.034  0.00  0.00    -0.491 OA
ATOM     37  C   UNL     1       1.180  -0.484  -4.746  0.00  0.00    +0.277 C 
ENDBRANCH  35  36
BRANCH  30  38
ATOM     38  O   UNL     1      -2.704  -1.867  -5.449  0.00  0.00    -0.489 OA
BRANCH  38  40
ATOM     39  C   UNL     1      -4.536  -2.091  -7.009  0.00  0.00    +0.048 C 
ATOM     40  C   UNL     1      -4.032  -2.374  -5.593  0.00  0.00    +0.226 C 
ENDBRANCH  38  40
ENDBRANCH  30  38
ENDBRANCH  29  32
ENDBRANCH  28  29
ENDBRANCH  24  28
ENDBRANCH   1  25
TORSDOF 9
