REMARK  Name = ZINC23528006
REMARK  9 active torsions:
REMARK  status: ('A' for Active; 'I' for Inactive)
REMARK    1  A    between atoms: C_1  and  C_2
REMARK    2  A    between atoms: C_2  and  C_3
REMARK    3  A    between atoms: C_2  and  C_4
REMARK    4  A    between atoms: C_4  and  C_5
REMARK    5  A    between atoms: C_5  and  N_6
REMARK    6  A    between atoms: C_19  and  S_20
REMARK    7  A    between atoms: S_20  and  C_21
REMARK    8  A    between atoms: C_21  and  C_22
REMARK    9  A    between atoms: N_24  and  C_25
REMARK                            x       y       z     vdW  Elec       q    Type
REMARK                         _______ _______ _______ _____ _____    ______ ____
ROOT
ATOM      1  N   UNL     1       0.875   0.567   6.244  0.00  0.00    -0.277 N 
ATOM      2  C   UNL     1      -0.059   1.232   6.954  0.00  0.00    +0.263 A 
ATOM      3  O   UNL     1      -0.029   1.229   8.170  0.00  0.00    -0.267 OA
ATOM      4  C   UNL     1      -1.123   1.952   6.231  0.00  0.00    +0.064 A 
ATOM      5  C   UNL     1      -2.119   2.648   6.915  0.00  0.00    +0.015 A 
ATOM      6  C   UNL     1      -3.097   3.311   6.204  0.00  0.00    +0.001 A 
ATOM      7  C   UNL     1      -3.093   3.287   4.818  0.00  0.00    +0.002 A 
ATOM      8  C   UNL     1      -2.112   2.602   4.130  0.00  0.00    +0.027 A 
ATOM      9  C   UNL     1      -1.120   1.930   4.828  0.00  0.00    +0.064 A 
ATOM     10  N   UNL     1      -0.118   1.231   4.159  0.00  0.00    -0.256 N 
ATOM     11  C   UNL     1       0.854   0.569   4.857  0.00  0.00    +0.240 A 
ATOM     12  N   UNL     1       1.663   0.009   3.986  0.00  0.00    -0.109 NA
ATOM     13  N   UNL     1       1.198   0.313   2.701  0.00  0.00    -0.120 NA
ATOM     14  C   UNL     1       0.120   1.048   2.823  0.00  0.00    +0.198 A 
ENDROOT
BRANCH   1  15
ATOM     15  C   UNL     1       1.940  -0.152   6.947  0.00  0.00    +0.128 C 
BRANCH  15  16
ATOM     16  C   UNL     1       3.123   0.790   7.181  0.00  0.00    +0.025 C 
BRANCH  16  18
ATOM     17  C   UNL     1       4.777  -1.076   7.020  0.00  0.00    +0.007 C 
ATOM     18  C   UNL     1       4.235   0.039   7.917  0.00  0.00    -0.016 C 
ATOM     19  C   UNL     1       5.365   1.011   8.261  0.00  0.00    +0.007 C 
ENDBRANCH  16  18
ENDBRANCH  15  16
ENDBRANCH   1  15
BRANCH  14  20
ATOM     20  S   UNL     1      -0.848   1.694   1.500  0.00  0.00    -0.076 S 
BRANCH  20  21
ATOM     21  C   UNL     1      -0.002   1.103   0.008  0.00  0.00    +0.173 C 
BRANCH  21  22
ATOM     22  C   UNL     1      -0.738   1.591  -1.213  0.00  0.00    +0.228 C 
ATOM     23  O   UNL     1      -1.734   2.272  -1.089  0.00  0.00    -0.275 OA
ATOM     24  N   UNL     1      -0.288   1.272  -2.443  0.00  0.00    -0.282 N 
ATOM     25  H   UNL     1       0.655   0.718  -2.557  0.00  0.00    +0.155 HD
BRANCH  24  26
ATOM     26  C   UNL     1      -1.022   1.647  -3.576  0.00  0.00    +0.072 A 
ATOM     27  C   UNL     1      -1.723   2.845  -3.586  0.00  0.00    +0.064 A 
ATOM     28  C   UNL     1      -2.443   3.214  -4.708  0.00  0.00    +0.125 A 
ATOM     29  C   UNL     1      -2.473   2.385  -5.816  0.00  0.00    +0.041 A 
ATOM     30  C   UNL     1      -1.781   1.188  -5.807  0.00  0.00    +0.043 A 
ATOM     31  C   UNL     1      -1.055   0.816  -4.690  0.00  0.00    +0.145 A 
ATOM     32  F   UNL     1      -0.378  -0.353  -4.682  0.00  0.00    -0.204 F 
ATOM     33  F   UNL     1      -3.120   4.383  -4.720  0.00  0.00    -0.205 F 
ENDBRANCH  24  26
ENDBRANCH  21  22
ENDBRANCH  20  21
ENDBRANCH  14  20
TORSDOF 7
