REMARK  Name = ZINC39139550
REMARK  5 active torsions:
REMARK  status: ('A' for Active; 'I' for Inactive)
REMARK    1  A    between atoms: C_4  and  C_7
REMARK    2  A    between atoms: C_9  and  C_23
REMARK    3  A    between atoms: C_11  and  C_21
REMARK    4  A    between atoms: N_14  and  C_15
REMARK    5  A    between atoms: C_21  and  O_22
REMARK                            x       y       z     vdW  Elec       q    Type
REMARK                         _______ _______ _______ _____ _____    ______ ____
ROOT
ATOM      1  C   UNL     1       3.928  -0.072  -0.523  0.00  0.00    +0.159 C 
ATOM      2  C   UNL     1       3.965  -1.321  -1.435  0.00  0.00    +0.165 C 
ATOM      3  C   UNL     1       4.128  -2.463  -0.398  0.00  0.00    +0.190 C 
ATOM      4  O   UNL     1       3.342  -1.985   0.717  0.00  0.00    -0.264 OA
ATOM      5  N   UNL     1       3.567  -0.581   0.811  0.00  0.00    -0.244 N 
ENDROOT
BRANCH   1   9
ATOM      6  C   UNL     1       0.978   2.691  -1.906  0.00  0.00    +0.000 A 
ATOM      7  C   UNL     1       0.613   1.647  -1.076  0.00  0.00    +0.000 A 
ATOM      8  C   UNL     1       1.567   0.753  -0.629  0.00  0.00    +0.006 A 
ATOM      9  C   UNL     1       2.887   0.902  -1.012  0.00  0.00    -0.022 A 
ATOM     10  C   UNL     1       3.253   1.946  -1.842  0.00  0.00    +0.006 A 
ATOM     11  C   UNL     1       2.298   2.840  -2.288  0.00  0.00    +0.000 A 
ENDBRANCH   1   9
BRANCH   5  12
ATOM     12  C   UNL     1       3.462   0.185   1.974  0.00  0.00    +0.065 A 
ATOM     13  C   UNL     1       3.703   1.553   1.931  0.00  0.00    +0.028 A 
ATOM     14  C   UNL     1       3.599   2.308   3.082  0.00  0.00    +0.002 A 
ATOM     15  C   UNL     1       3.255   1.704   4.278  0.00  0.00    +0.000 A 
ATOM     16  C   UNL     1       3.014   0.343   4.325  0.00  0.00    +0.002 A 
ATOM     17  C   UNL     1       3.111  -0.417   3.176  0.00  0.00    +0.028 A 
ENDBRANCH   5  12
BRANCH   2  18
ATOM     18  C   UNL     1       2.676  -1.467  -2.202  0.00  0.00    +0.364 C 
ATOM     19  O   UNL     1       2.665  -1.307  -3.411  0.00  0.00    -0.246 OA
ATOM     20  O   UNL     1       1.645  -1.746  -1.615  0.00  0.00    -0.246 OA
ENDBRANCH   2  18
BRANCH   3  21
ATOM     21  C   UNL     1       3.563  -3.777  -0.942  0.00  0.00    +0.191 C 
BRANCH  21  22
ATOM     22  O   UNL     1       3.830  -4.831  -0.016  0.00  0.00    -0.392 OA
ATOM     23  H   UNL     1       3.500  -5.695  -0.297  0.00  0.00    +0.210 HD
ENDBRANCH  21  22
ENDBRANCH   3  21
TORSDOF 5
