REMARK  Name = ZINC29981977
REMARK  7 active torsions:
REMARK  status: ('A' for Active; 'I' for Inactive)
REMARK    1  A    between atoms: C_1  and  N_2
REMARK    2  A    between atoms: N_2  and  C_3
REMARK    3  A    between atoms: C_4  and  C_6
REMARK    4  A    between atoms: C_10  and  N_12
REMARK    5  A    between atoms: N_12  and  C_13
REMARK    6  A    between atoms: C_13  and  C_14
REMARK    7  A    between atoms: N_19  and  C_20
REMARK                            x       y       z     vdW  Elec       q    Type
REMARK                         _______ _______ _______ _____ _____    ______ ____
ROOT
ATOM      1  C   UNL     1      -8.024   2.309   1.150  0.00  0.00    +0.237 C 
ATOM      2  O   UNL     1      -7.841   3.310   1.809  0.00  0.00    -0.274 OA
ATOM      3  N   UNL     1      -7.248   2.057   0.077  0.00  0.00    -0.239 N 
ATOM      4  C   UNL     1      -6.268   2.917  -0.263  0.00  0.00    +0.306 C 
ATOM      5  O   UNL     1      -6.084   3.921   0.398  0.00  0.00    -0.252 OA
ATOM      6  N   UNL     1      -5.492   2.665  -1.335  0.00  0.00    -0.294 N 
ATOM      7  H   UNL     1      -7.414   1.149  -0.521  0.00  0.00    +0.159 HD
ATOM      8  H   UNL     1      -5.658   1.756  -1.933  0.00  0.00    +0.151 HD
ENDROOT
BRANCH   6   9
ATOM      9  C   UNL     1      -4.426   3.600  -1.704  0.00  0.00    +0.037 C 
ATOM     10  C   UNL     1      -3.702   3.082  -2.949  0.00  0.00    +0.029 C 
ATOM     11  C   UNL     1      -2.589   4.059  -3.334  0.00  0.00    -0.008 C 
ATOM     12  C   UNL     1      -1.594   4.181  -2.179  0.00  0.00    +0.007 C 
ATOM     13  C   UNL     1      -2.319   4.699  -0.934  0.00  0.00    -0.008 C 
ATOM     14  C   UNL     1      -3.431   3.722  -0.549  0.00  0.00    +0.029 C 
ATOM     15  C   UNL     1      -2.925   6.071  -1.232  0.00  0.00    +0.007 C 
ATOM     16  C   UNL     1      -3.920   5.949  -2.388  0.00  0.00    -0.008 C 
ATOM     17  C   UNL     1      -3.196   5.431  -3.632  0.00  0.00    +0.007 C 
ATOM     18  C   UNL     1      -5.033   4.973  -2.002  0.00  0.00    +0.029 C 
ENDBRANCH   6   9
BRANCH   1  19
ATOM     19  C   UNL     1      -9.120   1.347   1.530  0.00  0.00    +0.198 C 
BRANCH  19  20
ATOM     20  N   UNL     1      -9.814   1.843   2.721  0.00  0.00    -0.335 N 
ATOM     21  H   UNL     1      -9.499   2.788   3.187  0.00  0.00    +0.147 HD
BRANCH  20  26
ATOM     22  C   UNL     1     -12.592   0.855   4.931  0.00  0.00    +0.039 A 
ATOM     23  C   UNL     1     -12.984  -0.343   4.332  0.00  0.00    +0.013 A 
ATOM     24  C   UNL     1     -12.324  -0.802   3.209  0.00  0.00    +0.003 A 
ATOM     25  C   UNL     1     -11.277  -0.076   2.673  0.00  0.00    +0.023 A 
ATOM     26  C   UNL     1     -10.876   1.115   3.265  0.00  0.00    +0.028 A 
ATOM     27  C   UNL     1     -11.532   1.585   4.393  0.00  0.00    +0.036 A 
BRANCH  22  31
ATOM     28  C   UNL     1     -15.332   1.662   7.438  0.00  0.00    +0.132 C 
ATOM     29  N   UNL     1     -14.611   1.093   6.296  0.00  0.00    -0.304 N 
ATOM     30  C   UNL     1     -15.317   0.246   5.331  0.00  0.00    +0.132 C 
ATOM     31  C   UNL     1     -13.297   1.349   6.133  0.00  0.00    +0.246 C 
ATOM     32  O   UNL     1     -12.693   1.986   6.974  0.00  0.00    -0.270 OA
ENDBRANCH  22  31
ENDBRANCH  20  26
ENDBRANCH  19  20
ENDBRANCH   1  19
TORSDOF 5
