REMARK  Name = ZINC12632813
REMARK  12 active torsions:
REMARK  status: ('A' for Active; 'I' for Inactive)
REMARK    1  A    between atoms: C_1  and  C_2
REMARK    2  A    between atoms: C_2  and  C_3
REMARK    3  A    between atoms: C_3  and  C_35
REMARK    4  A    between atoms: N_6  and  N_10
REMARK    5  A    between atoms: C_11  and  C_13
REMARK    6  A    between atoms: C_13  and  S_14
REMARK    7  A    between atoms: S_14  and  C_15
REMARK    8  A    between atoms: C_18  and  C_29
REMARK    9  A    between atoms: N_19  and  C_20
REMARK   10  A    between atoms: C_23  and  O_26
REMARK   11  A    between atoms: O_26  and  C_27
REMARK   12  A    between atoms: C_27  and  C_28
REMARK                            x       y       z     vdW  Elec       q    Type
REMARK                         _______ _______ _______ _____ _____    ______ ____
ROOT
ATOM      1  C   UNL     1       1.708   2.135  -0.003  0.00  0.00    +0.197 A 
ATOM      2  N   UNL     1       2.672   1.242  -0.017  0.00  0.00    -0.122 NA
ATOM      3  N   UNL     1       3.817   1.826  -0.025  0.00  0.00    -0.128 NA
ATOM      4  C   UNL     1       3.656   3.129  -0.016  0.00  0.00    +0.169 A 
ATOM      5  N   UNL     1       2.300   3.369  -0.007  0.00  0.00    -0.270 N 
ENDROOT
BRANCH   5   6
ATOM      6  C   UNL     1       1.659   4.617  -0.001  0.00  0.00    +0.051 A 
ATOM      7  C   UNL     1       1.788   5.469  -1.089  0.00  0.00    +0.030 A 
ATOM      8  C   UNL     1       1.152   6.695  -1.085  0.00  0.00    +0.047 A 
ATOM      9  C   UNL     1       0.393   7.079   0.011  0.00  0.00    +0.121 A 
ATOM     10  C   UNL     1       0.269   6.230   1.101  0.00  0.00    +0.047 A 
ATOM     11  C   UNL     1       0.899   5.002   1.095  0.00  0.00    +0.030 A 
BRANCH   9  12
ATOM     12  O   UNL     1      -0.228   8.288   0.016  0.00  0.00    -0.492 OA
BRANCH  12  13
ATOM     13  C   UNL     1      -0.057   9.111  -1.139  0.00  0.00    +0.225 C 
ATOM     14  C   UNL     1      -0.824  10.422  -0.951  0.00  0.00    +0.048 C 
ENDBRANCH  12  13
ENDBRANCH   9  12
ENDBRANCH   5   6
BRANCH   4  15
ATOM     15  C   UNL     1       4.728   4.147  -0.021  0.00  0.00    +0.020 A 
ATOM     16  C   UNL     1       4.436   5.474   0.296  0.00  0.00    +0.011 A 
ATOM     17  C   UNL     1       5.442   6.418   0.294  0.00  0.00    +0.001 A 
ATOM     18  C   UNL     1       6.736   6.053  -0.032  0.00  0.00    +0.000 A 
ATOM     19  C   UNL     1       7.032   4.740  -0.352  0.00  0.00    +0.001 A 
ATOM     20  C   UNL     1       6.036   3.785  -0.348  0.00  0.00    +0.011 A 
ENDBRANCH   4  15
BRANCH   1  21
ATOM     21  S   UNL     1      -0.022   1.806   0.012  0.00  0.00    -0.076 S 
BRANCH  21  22
ATOM     22  C   UNL     1       0.002  -0.004   0.002  0.00  0.00    +0.174 C 
BRANCH  22  24
ATOM     23  N   UNL     1      -1.640  -1.854   0.008  0.00  0.00    -0.223 N 
ATOM     24  C   UNL     1      -1.412  -0.526   0.013  0.00  0.00    +0.240 C 
ATOM     25  O   UNL     1      -2.344   0.250   0.026  0.00  0.00    -0.273 OA
ATOM     26  H   UNL     1      -0.894  -2.474  -0.003  0.00  0.00    +0.174 HD
BRANCH  23  30
ATOM     27  C   UNL     1      -4.950  -3.257   0.644  0.00  0.00    +0.111 C 
ATOM     28  C   UNL     1      -3.553  -2.882   1.096  0.00  0.00    +0.263 C 
ATOM     29  O   UNL     1      -3.073  -3.038   2.199  0.00  0.00    -0.271 OA
ATOM     30  N   UNL     1      -2.954  -2.339   0.018  0.00  0.00    -0.137 N 
ATOM     31  C   UNL     1      -3.769  -2.325  -1.044  0.00  0.00    +0.326 C 
ATOM     32  O   UNL     1      -3.452  -1.887  -2.133  0.00  0.00    -0.251 OA
ATOM     33  N   UNL     1      -4.977  -2.849  -0.771  0.00  0.00    -0.284 N 
ATOM     34  C   UNL     1      -6.003  -2.489   1.446  0.00  0.00    +0.041 C 
ATOM     35  H   UNL     1      -5.721  -2.942  -1.387  0.00  0.00    +0.151 HD
BRANCH  27  37
ATOM     36  C   UNL     1      -6.490  -5.148   0.099  0.00  0.00    +0.006 C 
ATOM     37  C   UNL     1      -5.171  -4.765   0.774  0.00  0.00    +0.032 C 
ENDBRANCH  27  37
ENDBRANCH  23  30
ENDBRANCH  22  24
ENDBRANCH  21  22
ENDBRANCH   1  21
TORSDOF 9
