REMARK  Name = ZINC43466356
REMARK  5 active torsions:
REMARK  status: ('A' for Active; 'I' for Inactive)
REMARK    1  A    between atoms: C_1  and  C_2
REMARK    2  A    between atoms: C_3  and  C_13
REMARK    3  A    between atoms: C_5  and  C_7
REMARK    4  A    between atoms: N_15  and  N_16
REMARK    5  A    between atoms: N_19  and  C_20
REMARK                            x       y       z     vdW  Elec       q    Type
REMARK                         _______ _______ _______ _____ _____    ______ ____
ROOT
ATOM      1  C   UNL     1       0.014  -0.258  -2.570  0.00  0.00    +0.269 C 
ATOM      2  O   UNL     1      -0.006   0.936  -2.806  0.00  0.00    -0.268 OA
ATOM      3  N   UNL     1       0.014  -1.145  -3.584  0.00  0.00    -0.229 N 
ATOM      4  H   UNL     1       0.030  -2.097  -3.396  0.00  0.00    +0.173 HD
ENDROOT
BRANCH   1   7
ATOM      5  C   UNL     1       0.022   1.503   0.010  0.00  0.00    +0.067 C 
ATOM      6  C   UNL     1       0.042  -0.004   0.002  0.00  0.00    +0.058 A 
ATOM      7  C   UNL     1       0.038  -0.730  -1.183  0.00  0.00    +0.098 A 
ATOM      8  S   UNL     1       0.069  -2.398  -0.546  0.00  0.00    -0.062 S 
ATOM      9  C   UNL     1       0.084  -2.021   1.094  0.00  0.00    +0.109 A 
ATOM     10  N   UNL     1       0.070  -0.699   1.109  0.00  0.00    -0.243 NA
BRANCH   9  11
ATOM     11  C   UNL     1       0.110  -2.948   2.245  0.00  0.00    +0.007 A 
ATOM     12  C   UNL     1       0.113  -2.448   3.548  0.00  0.00    +0.010 A 
ATOM     13  C   UNL     1       0.138  -3.318   4.618  0.00  0.00    +0.001 A 
ATOM     14  C   UNL     1       0.161  -4.685   4.402  0.00  0.00    +0.000 A 
ATOM     15  C   UNL     1       0.158  -5.187   3.113  0.00  0.00    +0.001 A 
ATOM     16  C   UNL     1       0.128  -4.328   2.034  0.00  0.00    +0.010 A 
ENDBRANCH   9  11
ENDBRANCH   1   7
BRANCH   3  17
ATOM     17  N   UNL     1      -0.009  -0.694  -4.910  0.00  0.00    -0.218 N 
ATOM     18  C   UNL     1      -0.009  -1.581  -5.925  0.00  0.00    +0.320 C 
ATOM     19  O   UNL     1      -0.029  -1.190  -7.075  0.00  0.00    -0.251 OA
ATOM     20  N   UNL     1       0.013  -2.903  -5.663  0.00  0.00    -0.268 N 
ATOM     21  H   UNL     1      -0.025   0.258  -5.099  0.00  0.00    +0.174 HD
ATOM     22  H   UNL     1       0.097  -3.216  -4.749  0.00  0.00    +0.156 HD
BRANCH  20  23
ATOM     23  C   UNL     1      -0.085  -3.826  -6.712  0.00  0.00    +0.035 A 
ATOM     24  C   UNL     1      -0.768  -5.021  -6.525  0.00  0.00    +0.026 A 
ATOM     25  C   UNL     1      -0.864  -5.929  -7.561  0.00  0.00    +0.040 A 
ATOM     26  C   UNL     1      -0.279  -5.650  -8.785  0.00  0.00    +0.124 A 
ATOM     27  C   UNL     1       0.403  -4.460  -8.973  0.00  0.00    +0.040 A 
ATOM     28  C   UNL     1       0.496  -3.546  -7.941  0.00  0.00    +0.026 A 
ATOM     29  F   UNL     1      -0.374  -6.541  -9.796  0.00  0.00    -0.205 F 
ENDBRANCH  20  23
ENDBRANCH   3  17
TORSDOF 4
