REMARK  Name = ZINC40813684
REMARK  7 active torsions:
REMARK  status: ('A' for Active; 'I' for Inactive)
REMARK    1  A    between atoms: C_1  and  C_2
REMARK    2  A    between atoms: C_2  and  C_3
REMARK    3  A    between atoms: C_8  and  N_9
REMARK    4  A    between atoms: C_10  and  C_12
REMARK    5  A    between atoms: C_13  and  C_33
REMARK    6  A    between atoms: N_21  and  N_22
REMARK    7  A    between atoms: C_23  and  C_25
REMARK                            x       y       z     vdW  Elec       q    Type
REMARK                         _______ _______ _______ _____ _____    ______ ____
ROOT
ATOM      1  C   UNL     1       4.926  -0.226   1.137  0.00  0.00    +0.193 A 
ATOM      2  C   UNL     1       6.274  -0.390   1.288  0.00  0.00    +0.009 A 
ATOM      3  C   UNL     1       6.566  -0.040   2.612  0.00  0.00    +0.042 A 
ATOM      4  C   UNL     1       5.383   0.320   3.213  0.00  0.00    +0.115 A 
ATOM      5  O   UNL     1       4.412   0.210   2.310  0.00  0.00    -0.454 OA
ATOM      6  C   UNL     1       5.294   0.757   4.654  0.00  0.00    +0.075 C 
ATOM      7  C   UNL     1       6.524   0.253   5.414  0.00  0.00    +0.014 C 
ATOM      8  C   UNL     1       7.812   0.674   4.699  0.00  0.00    +0.058 C 
ATOM      9  C   UNL     1       7.852  -0.018   3.344  0.00  0.00    +0.070 C 
ATOM     10  N   UNL     1       8.934  -0.550   2.865  0.00  0.00    -0.184 NA
ATOM     11  C   UNL     1       7.252  -0.855   0.239  0.00  0.00    +0.048 C 
ENDROOT
BRANCH   1  13
ATOM     12  N   UNL     1       2.833  -0.269  -0.114  0.00  0.00    -0.279 N 
ATOM     13  C   UNL     1       4.165  -0.474  -0.092  0.00  0.00    +0.284 C 
ATOM     14  O   UNL     1       4.736  -0.867  -1.093  0.00  0.00    -0.266 OA
ATOM     15  H   UNL     1       2.387   0.106   0.662  0.00  0.00    +0.155 HD
BRANCH  12  21
ATOM     16  C   UNL     1       0.800  -1.085  -1.129  0.00  0.00    -0.026 A 
ATOM     17  C   UNL     1       0.070  -1.401  -2.258  0.00  0.00    +0.005 A 
ATOM     18  C   UNL     1       0.627  -1.234  -3.512  0.00  0.00    +0.000 A 
ATOM     19  C   UNL     1       1.917  -0.750  -3.641  0.00  0.00    +0.002 A 
ATOM     20  C   UNL     1       2.652  -0.433  -2.516  0.00  0.00    +0.023 A 
ATOM     21  C   UNL     1       2.093  -0.595  -1.254  0.00  0.00    +0.037 A 
BRANCH  16  23
ATOM     22  C   UNL     1      -0.422   0.056   0.703  0.00  0.00    +0.009 C 
ATOM     23  C   UNL     1       0.192  -1.267   0.238  0.00  0.00    +0.033 C 
ENDBRANCH  16  23
ENDBRANCH  12  21
ENDBRANCH   1  13
BRANCH  10  24
ATOM     24  N   UNL     1      10.125  -0.499   3.602  0.00  0.00    -0.203 N 
ATOM     25  C   UNL     1      11.249  -1.051   3.105  0.00  0.00    +0.265 C 
ATOM     26  O   UNL     1      11.230  -1.594   2.016  0.00  0.00    -0.268 OA
ATOM     27  H   UNL     1      10.140  -0.066   4.470  0.00  0.00    +0.178 HD
BRANCH  25  28
ATOM     28  C   UNL     1      12.504  -0.998   3.882  0.00  0.00    +0.057 A 
ATOM     29  C   UNL     1      12.527  -0.381   5.135  0.00  0.00    +0.016 A 
ATOM     30  C   UNL     1      13.701  -0.334   5.855  0.00  0.00    +0.021 A 
ATOM     31  C   UNL     1      14.858  -0.897   5.339  0.00  0.00    +0.042 A 
ATOM     32  C   UNL     1      14.842  -1.511   4.098  0.00  0.00    +0.040 A 
ATOM     33  C   UNL     1      13.671  -1.569   3.369  0.00  0.00    +0.054 A 
ATOM     34 CL   UNL     1      13.651  -2.346   1.816  0.00  0.00    -0.083 Cl
ATOM     35 CL   UNL     1      16.332  -0.833   6.253  0.00  0.00    -0.083 Cl
ENDBRANCH  25  28
ENDBRANCH  10  24
TORSDOF 5
