REMARK  Name = ZINC09489972
REMARK  8 active torsions:
REMARK  status: ('A' for Active; 'I' for Inactive)
REMARK    1  A    between atoms: C_1  and  C_2
REMARK    2  A    between atoms: C_5  and  C_8
REMARK    3  A    between atoms: C_11  and  C_35
REMARK    4  A    between atoms: C_15  and  C_18
REMARK    5  A    between atoms: N_20  and  C_21
REMARK    6  A    between atoms: C_26  and  C_27
REMARK    7  A    between atoms: C_27  and  C_29
REMARK    8  A    between atoms: C_27  and  O_30
REMARK                            x       y       z     vdW  Elec       q    Type
REMARK                         _______ _______ _______ _____ _____    ______ ____
ROOT
ATOM      1  C   UNL     1       0.052  -4.295  -0.021  0.00  0.00    +0.104 C 
ATOM      2  C   UNL     1      -1.355  -4.842   0.244  0.00  0.00    +0.063 C 
ATOM      3  C   UNL     1      -1.880  -4.300   1.579  0.00  0.00    +0.215 C 
ATOM      4  N   UNL     1      -0.857  -4.508   2.609  0.00  0.00    -0.238 N 
ATOM      5  C   UNL     1       0.450  -4.730   2.335  0.00  0.00    +0.130 A 
ATOM      6  C   UNL     1       1.110  -4.882   3.540  0.00  0.00    +0.096 A 
ATOM      7  C   UNL     1       0.136  -4.738   4.560  0.00  0.00    +0.149 A 
ATOM      8  N   UNL     1      -1.020  -4.518   3.993  0.00  0.00    -0.177 NA
ATOM      9  N   UNL     1       0.955  -4.779   1.042  0.00  0.00    -0.322 N 
ATOM     10  H   UNL     1       1.844  -5.113   0.847  0.00  0.00    +0.148 HD
ENDROOT
BRANCH   1  15
ATOM     11  C   UNL     1      -0.072   1.482   0.016  0.00  0.00    +0.044 C 
ATOM     12  C   UNL     1      -0.040  -0.024   0.006  0.00  0.00    -0.050 A 
ATOM     13  C   UNL     1      -0.030  -0.708  -1.195  0.00  0.00    +0.004 A 
ATOM     14  C   UNL     1      -0.000  -2.090  -1.204  0.00  0.00    +0.006 A 
ATOM     15  C   UNL     1       0.021  -2.788  -0.011  0.00  0.00    -0.027 A 
ATOM     16  C   UNL     1       0.012  -2.105   1.190  0.00  0.00    +0.006 A 
ATOM     17  C   UNL     1      -0.013  -0.723   1.199  0.00  0.00    +0.004 A 
ENDBRANCH   1  15
BRANCH   6  18
ATOM     18  C   UNL     1       2.542  -5.141   3.728  0.00  0.00    +0.253 C 
ATOM     19  O   UNL     1       3.274  -5.243   2.761  0.00  0.00    -0.270 OA
ATOM     20  N   UNL     1       3.047  -5.266   4.971  0.00  0.00    -0.281 N 
ATOM     21  H   UNL     1       2.482  -5.106   5.742  0.00  0.00    +0.155 HD
BRANCH  20  22
ATOM     22  C   UNL     1       4.389  -5.628   5.149  0.00  0.00    +0.043 A 
ATOM     23  C   UNL     1       5.053  -6.340   4.159  0.00  0.00    +0.073 A 
ATOM     24  C   UNL     1       6.379  -6.696   4.336  0.00  0.00    +0.168 A 
ATOM     25  C   UNL     1       7.045  -6.339   5.506  0.00  0.00    +0.167 A 
ATOM     26  C   UNL     1       6.378  -5.629   6.491  0.00  0.00    +0.057 A 
ATOM     27  C   UNL     1       5.056  -5.269   6.312  0.00  0.00    +0.005 A 
ATOM     28  O   UNL     1       8.328  -6.803   5.437  0.00  0.00    -0.453 OA
ATOM     29  C   UNL     1       8.321  -7.797   4.396  0.00  0.00    +0.466 C 
ATOM     30  O   UNL     1       7.245  -7.383   3.534  0.00  0.00    -0.453 OA
BRANCH  27  31
ATOM     31  C   UNL     1       4.336  -4.490   7.383  0.00  0.00    +0.143 C 
ATOM     32  C   UNL     1       3.575  -5.457   8.292  0.00  0.00    +0.043 C 
BRANCH  31  33
ATOM     33  O   UNL     1       5.286  -3.756   8.158  0.00  0.00    -0.387 OA
ATOM     34  H   UNL     1       4.892  -3.230   8.868  0.00  0.00    +0.210 HD
ENDBRANCH  31  33
ENDBRANCH  27  31
ENDBRANCH  20  22
ENDBRANCH   6  18
BRANCH   3  35
ATOM     35  C   UNL     1      -3.160  -5.043   1.966  0.00  0.00    +0.412 C 
ATOM     36  F   UNL     1      -2.885  -6.409   2.094  0.00  0.00    -0.168 F 
ATOM     37  F   UNL     1      -3.637  -4.548   3.184  0.00  0.00    -0.168 F 
ATOM     38  F   UNL     1      -4.128  -4.853   0.974  0.00  0.00    -0.168 F 
ENDBRANCH   3  35
TORSDOF 6
