REMARK  Name = ZINC34892080
REMARK  6 active torsions:
REMARK  status: ('A' for Active; 'I' for Inactive)
REMARK    1  A    between atoms: C_1  and  C_2
REMARK    2  A    between atoms: C_5  and  C_32
REMARK    3  A    between atoms: N_8  and  C_10
REMARK    4  A    between atoms: C_10  and  C_11
REMARK    5  A    between atoms: C_17  and  C_19
REMARK    6  A    between atoms: C_19  and  C_20
REMARK                            x       y       z     vdW  Elec       q    Type
REMARK                         _______ _______ _______ _____ _____    ______ ____
ROOT
ATOM      1  C   UNL     1       2.146   0.211   3.650  0.00  0.00    +0.034 A 
ATOM      2  C   UNL     1       1.190  -0.435   4.362  0.00  0.00    +0.070 A 
ATOM      3  S   UNL     1       0.811   0.794   5.601  0.00  0.00    -0.060 S 
ATOM      4  C   UNL     1       1.891   1.980   5.091  0.00  0.00    +0.164 A 
ATOM      5  N   UNL     1       2.476   1.425   4.051  0.00  0.00    -0.231 NA
ATOM      6  N   UNL     1       2.114   3.238   5.638  0.00  0.00    -0.265 N 
ATOM      7  C   UNL     1       1.415   3.636   6.719  0.00  0.00    +0.220 C 
ATOM      8  O   UNL     1       0.591   2.897   7.214  0.00  0.00    -0.275 OA
ATOM      9  H   UNL     1       2.772   3.829   5.241  0.00  0.00    +0.157 HD
ENDROOT
BRANCH   1  10
ATOM     10  C   UNL     1       2.808  -0.431   2.458  0.00  0.00    -0.022 C 
BRANCH  10  16
ATOM     11  C   UNL     1      -0.019   1.526   0.010  0.00  0.00    +0.005 C 
ATOM     12  C   UNL     1       0.002  -0.004   0.002  0.00  0.00    -0.031 C 
ATOM     13  C   UNL     1       0.721  -0.499  -1.257  0.00  0.00    +0.003 C 
ATOM     14  C   UNL     1       2.177  -0.027  -1.220  0.00  0.00    -0.031 C 
ATOM     15  C   UNL     1       2.839  -0.534   0.063  0.00  0.00    -0.075 C 
ATOM     16  N   UNL     1       2.123  -0.005   1.230  0.00  0.00    +0.384 N 
ATOM     17  C   UNL     1       0.744  -0.512   1.240  0.00  0.00    -0.075 C 
ATOM     18  C   UNL     1       2.924  -0.581  -2.434  0.00  0.00    +0.005 C 
ATOM     19  H   UNL     1       2.109   1.003   1.187  0.00  0.00    -0.081 HD
ENDBRANCH  10  16
ENDBRANCH   1  10
BRANCH   7  20
ATOM     20  C   UNL     1       1.656   5.001   7.311  0.00  0.00    +0.120 C 
BRANCH  20  21
ATOM     21  C   UNL     1       0.740   5.201   8.521  0.00  0.00    +0.146 C 
ATOM     22  C   UNL     1       0.897   6.603   9.048  0.00  0.00    +0.231 C 
ATOM     23  O   UNL     1       0.079   7.437   8.722  0.00  0.00    -0.274 OA
ATOM     24  N   UNL     1       1.888   6.971   9.854  0.00  0.00    -0.284 N 
ATOM     25  C   UNL     1       2.846   6.139  10.426  0.00  0.00    +0.047 A 
ATOM     26  C   UNL     1       4.004   6.701  10.954  0.00  0.00    +0.024 A 
ATOM     27  C   UNL     1       4.973   5.896  11.519  0.00  0.00    +0.002 A 
ATOM     28  C   UNL     1       4.806   4.524  11.565  0.00  0.00    +0.001 A 
ATOM     29  C   UNL     1       3.659   3.952  11.046  0.00  0.00    +0.016 A 
ATOM     30  C   UNL     1       2.681   4.756  10.483  0.00  0.00    +0.030 A 
ATOM     31  S   UNL     1       1.199   4.031   9.836  0.00  0.00    -0.110 S 
ATOM     32  H   UNL     1       1.950   7.916  10.065  0.00  0.00    +0.155 HD
ENDBRANCH  20  21
ENDBRANCH   7  20
TORSDOF 4
