REMARK  Name = ZINC39480960
REMARK  7 active torsions:
REMARK  status: ('A' for Active; 'I' for Inactive)
REMARK    1  A    between atoms: C_1  and  C_2
REMARK    2  A    between atoms: C_5  and  N_16
REMARK    3  A    between atoms: C_6  and  N_8
REMARK    4  A    between atoms: N_16  and  S_17
REMARK    5  A    between atoms: S_17  and  S_20
REMARK    6  A    between atoms: S_20  and  O_23
REMARK    7  A    between atoms: O_23  and  C_24
REMARK                            x       y       z     vdW  Elec       q    Type
REMARK                         _______ _______ _______ _____ _____    ______ ____
ROOT
ATOM      1  C   UNL     1       0.709   1.444   0.468  0.00  0.00    +0.044 C 
ATOM      2  C   UNL     1       0.537  -0.048   0.338  0.00  0.00    -0.049 A 
ATOM      3  C   UNL     1       0.446  -0.625  -0.915  0.00  0.00    +0.005 A 
ATOM      4  C   UNL     1       0.288  -1.992  -1.041  0.00  0.00    +0.026 A 
ATOM      5  C   UNL     1       0.220  -2.790   0.091  0.00  0.00    +0.070 A 
ATOM      6  C   UNL     1       0.311  -2.208   1.356  0.00  0.00    +0.053 A 
ATOM      7  C   UNL     1       0.475  -0.836   1.473  0.00  0.00    +0.028 A 
ENDROOT
BRANCH   6   8
ATOM      8  N   UNL     1       0.243  -3.007   2.503  0.00  0.00    -0.325 N 
ATOM      9  C   UNL     1       1.460  -3.576   3.100  0.00  0.00    +0.120 C 
ATOM     10  C   UNL     1       1.473  -3.239   4.595  0.00  0.00    +0.101 C 
ATOM     11  N   UNL     1       0.214  -3.686   5.206  0.00  0.00    -0.298 NA
ATOM     12  C   UNL     1      -0.937  -2.973   4.636  0.00  0.00    +0.164 C 
ATOM     13  C   UNL     1      -1.048  -3.295   3.147  0.00  0.00    +0.140 C 
ATOM     14 CL   UNL     1      -2.443  -3.491   5.481  0.00  0.00    -0.103 Cl
ATOM     15  H   UNL     1       0.102  -4.684   5.114  0.00  0.00    +0.123 HD
ENDBRANCH   6   8
BRANCH   5  16
ATOM     16  N   UNL     1       0.059  -4.175  -0.034  0.00  0.00    -0.197 N 
ATOM     17  H   UNL     1      -0.475  -4.662   0.613  0.00  0.00    +0.175 HD
BRANCH  16  18
ATOM     18  S   UNL     1       0.780  -4.982  -1.287  0.00  0.00    +0.200 S 
ATOM     19  O   UNL     1       0.556  -6.367  -1.060  0.00  0.00    -0.129 OA
ATOM     20  O   UNL     1       0.369  -4.330  -2.481  0.00  0.00    -0.129 OA
BRANCH  18  21
ATOM     21  S   UNL     1       2.800  -4.680  -1.119  0.00  0.00    +0.268 S 
ATOM     22  O   UNL     1       3.024  -3.295  -1.346  0.00  0.00    -0.111 OA
ATOM     23  O   UNL     1       3.211  -5.333   0.074  0.00  0.00    -0.111 OA
BRANCH  21  24
ATOM     24  O   UNL     1       3.463  -5.422  -2.271  0.00  0.00    -0.328 OA
BRANCH  24  25
ATOM     25  C   UNL     1       3.326  -4.809  -3.476  0.00  0.00    +0.158 A 
ATOM     26  C   UNL     1       2.236  -5.099  -4.283  0.00  0.00    +0.048 A 
ATOM     27  C   UNL     1       2.098  -4.474  -5.507  0.00  0.00    +0.004 A 
ATOM     28  C   UNL     1       3.046  -3.560  -5.929  0.00  0.00    +0.000 A 
ATOM     29  C   UNL     1       4.133  -3.269  -5.126  0.00  0.00    +0.004 A 
ATOM     30  C   UNL     1       4.273  -3.887  -3.899  0.00  0.00    +0.048 A 
ENDBRANCH  24  25
ENDBRANCH  21  24
ENDBRANCH  18  21
ENDBRANCH  16  18
ENDBRANCH   5  16
TORSDOF 6
