REMARK  Name = ZINC03521790
REMARK  10 active torsions:
REMARK  status: ('A' for Active; 'I' for Inactive)
REMARK    1  A    between atoms: C_1  and  C_2
REMARK    2  A    between atoms: C_2  and  C_3
REMARK    3  A    between atoms: C_7  and  C_30
REMARK    4  A    between atoms: C_8  and  N_9
REMARK    5  A    between atoms: C_10  and  C_24
REMARK    6  A    between atoms: C_13  and  S_14
REMARK    7  A    between atoms: S_14  and  C_15
REMARK    8  A    between atoms: C_15  and  C_17
REMARK    9  A    between atoms: C_15  and  C_18
REMARK   10  A    between atoms: C_30  and  C_31
REMARK                            x       y       z     vdW  Elec       q    Type
REMARK                         _______ _______ _______ _____ _____    ______ ____
ROOT
ATOM      1  N   UNL     1       3.318  -5.462   1.129  0.00  0.00    -0.270 N 
ATOM      2  C   UNL     1       2.655  -6.655   0.943  0.00  0.00    +0.171 A 
ATOM      3  N   UNL     1       1.482  -6.367   0.427  0.00  0.00    -0.128 NA
ATOM      4  N   UNL     1       1.365  -5.095   0.284  0.00  0.00    -0.122 NA
ATOM      5  C   UNL     1       2.459  -4.491   0.691  0.00  0.00    +0.197 A 
ENDROOT
BRANCH   1  11
ATOM      6  C   UNL     1       5.708  -5.282   0.813  0.00  0.00    -0.023 A 
ATOM      7  C   UNL     1       6.974  -5.098   1.335  0.00  0.00    +0.005 A 
ATOM      8  C   UNL     1       7.143  -4.922   2.696  0.00  0.00    +0.001 A 
ATOM      9  C   UNL     1       6.047  -4.926   3.538  0.00  0.00    +0.005 A 
ATOM     10  C   UNL     1       4.778  -5.104   3.022  0.00  0.00    -0.023 A 
ATOM     11  C   UNL     1       4.604  -5.280   1.656  0.00  0.00    +0.057 A 
BRANCH   6  13
ATOM     12  C   UNL     1       5.208  -4.135  -1.328  0.00  0.00    +0.009 C 
ATOM     13  C   UNL     1       5.524  -5.479  -0.670  0.00  0.00    +0.034 C 
ENDBRANCH   6  13
BRANCH  10  14
ATOM     14  C   UNL     1       3.584  -5.108   3.941  0.00  0.00    +0.034 C 
ATOM     15  C   UNL     1       3.236  -6.549   4.319  0.00  0.00    +0.009 C 
ENDBRANCH  10  14
ENDBRANCH   1  11
BRANCH   2  16
ATOM     16  C   UNL     1       3.166  -8.004   1.263  0.00  0.00    +0.038 A 
ATOM     17  C   UNL     1       2.296  -9.100   1.322  0.00  0.00    +0.014 A 
ATOM     18  C   UNL     1       2.826 -10.341   1.625  0.00  0.00    +0.020 A 
ATOM     19  C   UNL     1       4.184 -10.460   1.859  0.00  0.00    +0.111 A 
ATOM     20  N   UNL     1       4.980  -9.410   1.796  0.00  0.00    -0.263 NA
ATOM     21  C   UNL     1       4.525  -8.208   1.506  0.00  0.00    +0.122 A 
ENDBRANCH   2  16
BRANCH   5  22
ATOM     22  S   UNL     1       2.760  -2.755   0.682  0.00  0.00    -0.073 S 
BRANCH  22  23
ATOM     23  C   UNL     1       1.199  -2.169  -0.021  0.00  0.00    +0.137 C 
ATOM     24  C   UNL     1       1.066  -2.673  -1.460  0.00  0.00    +0.029 C 
BRANCH  23  25
ATOM     25  C   UNL     1       1.178  -0.662  -0.013  0.00  0.00    +0.233 C 
ATOM     26  O   UNL     1       2.220  -0.042  -0.019  0.00  0.00    -0.274 OA
ATOM     27  N   UNL     1       0.002  -0.004   0.002  0.00  0.00    -0.239 N 
ATOM     28  C   UNL     1      -0.016   1.344   0.009  0.00  0.00    +0.303 C 
ATOM     29  O   UNL     1       1.028   1.966   0.003  0.00  0.00    -0.253 OA
ATOM     30  N   UNL     1      -1.192   2.002   0.019  0.00  0.00    -0.313 N 
ATOM     31  H   UNL     1      -0.831  -0.500   0.007  0.00  0.00    +0.159 HD
ATOM     32  H   UNL     1      -2.026   1.505   0.020  0.00  0.00    +0.146 HD
ATOM     33  H   UNL     1      -1.206   2.971   0.024  0.00  0.00    +0.146 HD
ENDBRANCH  23  25
ENDBRANCH  22  23
ENDBRANCH   5  22
TORSDOF 7
