REMARK  Name = ZINC19095881
REMARK  7 active torsions:
REMARK  status: ('A' for Active; 'I' for Inactive)
REMARK    1  A    between atoms: C_5  and  S_7
REMARK    2  A    between atoms: S_7  and  N_10
REMARK    3  A    between atoms: N_10  and  C_11
REMARK    4  A    between atoms: C_14  and  S_17
REMARK    5  A    between atoms: S_17  and  N_20
REMARK    6  A    between atoms: N_20  and  C_21
REMARK    7  A    between atoms: C_21  and  C_22
REMARK                            x       y       z     vdW  Elec       q    Type
REMARK                         _______ _______ _______ _____ _____    ______ ____
ROOT
ATOM      1  C   UNL     1      -2.205   2.811   3.628  0.00  0.00    +0.048 A 
ATOM      2  C   UNL     1      -2.381   1.621   2.933  0.00  0.00    +0.026 A 
ATOM      3  C   UNL     1      -1.604   1.348   1.825  0.00  0.00    +0.030 A 
ATOM      4  C   UNL     1      -0.650   2.257   1.407  0.00  0.00    +0.105 A 
ATOM      5  C   UNL     1      -0.468   3.441   2.099  0.00  0.00    +0.030 A 
ATOM      6  C   UNL     1      -1.246   3.723   3.204  0.00  0.00    +0.026 A 
ENDROOT
BRANCH   4   7
ATOM      7  S   UNL     1       0.340   1.905  -0.007  0.00  0.00    +0.059 S 
ATOM      8  O   UNL     1       0.354   0.491  -0.151  0.00  0.00    -0.153 OA
ATOM      9  O   UNL     1       1.530   2.669   0.130  0.00  0.00    -0.153 OA
BRANCH   7  10
ATOM     10  N   UNL     1      -0.459   2.507  -1.327  0.00  0.00    -0.181 NA
ATOM     11  H   UNL     1      -0.791   1.903  -2.010  0.00  0.00    +0.148 HD
BRANCH  10  12
ATOM     12  C   UNL     1      -0.666   3.951  -1.463  0.00  0.00    +0.219 C 
BRANCH  12  13
ATOM     13  C   UNL     1      -1.077   4.274  -2.901  0.00  0.00    +0.404 C 
ATOM     14  F   UNL     1      -2.265   3.603  -3.208  0.00  0.00    -0.169 F 
ATOM     15  F   UNL     1      -1.274   5.653  -3.030  0.00  0.00    -0.169 F 
ATOM     16  F   UNL     1      -0.068   3.863  -3.778  0.00  0.00    -0.169 F 
ENDBRANCH  12  13
ENDBRANCH  10  12
ENDBRANCH   7  10
ENDBRANCH   4   7
BRANCH   1  17
ATOM     17  N   UNL     1      -2.990   3.090   4.748  0.00  0.00    -0.216 N 
ATOM     18  H   UNL     1      -3.949   2.948   4.717  0.00  0.00    +0.174 HD
BRANCH  17  19
ATOM     19  S   UNL     1      -2.284   3.665   6.132  0.00  0.00    +0.074 S 
ATOM     20  O   UNL     1      -1.504   4.790   5.752  0.00  0.00    -0.150 OA
ATOM     21  O   UNL     1      -3.313   3.746   7.109  0.00  0.00    -0.150 OA
BRANCH  19  26
ATOM     22  C   UNL     1       1.096   1.747   7.159  0.00  0.00    +0.004 A 
ATOM     23  C   UNL     1       0.705   0.517   7.570  0.00  0.00    +0.031 A 
ATOM     24  C   UNL     1      -0.671   0.170   7.563  0.00  0.00    +0.102 A 
ATOM     25  C   UNL     1      -1.637   1.167   7.111  0.00  0.00    +0.126 A 
ATOM     26  C   UNL     1      -1.155   2.434   6.690  0.00  0.00    +0.137 A 
ATOM     27  C   UNL     1       0.173   2.698   6.723  0.00  0.00    +0.031 A 
ATOM     28  N   UNL     1      -2.886   0.707   7.153  0.00  0.00    -0.189 NA
ATOM     29  S   UNL     1      -2.795  -0.760   7.696  0.00  0.00    +0.117 S 
ATOM     30  N   UNL     1      -1.259  -0.970   7.922  0.00  0.00    -0.191 NA
ENDBRANCH  19  26
ENDBRANCH  17  19
ENDBRANCH   1  17
TORSDOF 7
