REMARK  Name = ZINC42958246
REMARK  6 active torsions:
REMARK  status: ('A' for Active; 'I' for Inactive)
REMARK    1  A    between atoms: C_1  and  C_2
REMARK    2  A    between atoms: C_2  and  C_4
REMARK    3  A    between atoms: C_2  and  N_21
REMARK    4  A    between atoms: C_4  and  C_6
REMARK    5  A    between atoms: C_4  and  O_13
REMARK    6  A    between atoms: O_13  and  C_14
REMARK                            x       y       z     vdW  Elec       q    Type
REMARK                         _______ _______ _______ _____ _____    ______ ____
ROOT
ATOM      1  C   UNL     1       0.751  -0.519   1.250  0.00  0.00    +0.189 C 
ENDROOT
BRANCH   1   2
ATOM      2  C   UNL     1       0.861  -2.021   1.302  0.00  0.00    -0.009 A 
ATOM      3  C   UNL     1      -0.203  -2.776   1.760  0.00  0.00    +0.008 A 
ATOM      4  C   UNL     1      -0.104  -4.154   1.807  0.00  0.00    +0.015 A 
ATOM      5  C   UNL     1       1.060  -4.777   1.397  0.00  0.00    +0.018 A 
ATOM      6  C   UNL     1       2.125  -4.022   0.939  0.00  0.00    +0.015 A 
ATOM      7  C   UNL     1       2.023  -2.644   0.887  0.00  0.00    +0.008 A 
ATOM      8 BR   UNL     1       1.197  -6.662   1.462  0.00  0.00    -0.050 Br
ENDBRANCH   1   2
BRANCH   1  10
ATOM      9  C   UNL     1      -0.145   1.417  -0.049  0.00  0.00    -0.010 C 
ATOM     10  C   UNL     1      -0.034  -0.108   0.004  0.00  0.00    -0.032 C 
BRANCH  10  11
ATOM     11  N   UNL     1      -1.380  -0.695   0.057  0.00  0.00    +0.382 N 
ATOM     12  H   UNL     1      -1.898  -0.423  -0.765  0.00  0.00    -0.089 HD
ATOM     13  H   UNL     1      -1.307  -1.700   0.092  0.00  0.00    -0.089 HD
ATOM     14  H   UNL     1      -1.859  -0.364   0.881  0.00  0.00    -0.089 HD
ENDBRANCH  10  11
ENDBRANCH   1  10
BRANCH   1  15
ATOM     15  O   UNL     1       0.073  -0.050   2.417  0.00  0.00    -0.485 OA
BRANCH  15  16
ATOM     16  C   UNL     1       0.539   1.094   2.984  0.00  0.00    +0.134 A 
ATOM     17  C   UNL     1       1.549   1.815   2.364  0.00  0.00    +0.047 A 
ATOM     18  C   UNL     1       2.021   2.978   2.941  0.00  0.00    +0.004 A 
ATOM     19  C   UNL     1       1.488   3.423   4.137  0.00  0.00    +0.001 A 
ATOM     20  C   UNL     1       0.482   2.707   4.758  0.00  0.00    +0.018 A 
ATOM     21  C   UNL     1       0.002   1.546   4.181  0.00  0.00    +0.055 A 
ATOM     22  I   UNL     1      -1.530   0.465   5.117  0.00  0.00    -0.040 I 
ENDBRANCH  15  16
ENDBRANCH   1  15
TORSDOF 5
