REMARK  Name = ZINC07204029
REMARK  7 active torsions:
REMARK  status: ('A' for Active; 'I' for Inactive)
REMARK    1  A    between atoms: C_1  and  C_2
REMARK    2  A    between atoms: C_2  and  C_4
REMARK    3  A    between atoms: C_2  and  S_15
REMARK    4  A    between atoms: N_6  and  C_7
REMARK    5  A    between atoms: C_7  and  C_8
REMARK    6  A    between atoms: C_8  and  C_9
REMARK    7  A    between atoms: S_15  and  C_16
REMARK                            x       y       z     vdW  Elec       q    Type
REMARK                         _______ _______ _______ _____ _____    ______ ____
ROOT
ATOM      1  C   UNL     1       2.752   5.767  -1.207  0.00  0.00    +0.192 A 
ATOM      2  N   UNL     1       1.449   5.535  -1.264  0.00  0.00    -0.207 NA
ATOM      3  C   UNL     1       0.873   4.426  -0.806  0.00  0.00    +0.129 A 
ATOM      4  C   UNL     1       1.748   3.459  -0.230  0.00  0.00    +0.051 A 
ATOM      5  C   UNL     1       1.379   2.173   0.339  0.00  0.00    -0.025 A 
ATOM      6  C   UNL     1       2.386   1.416   0.831  0.00  0.00    -0.004 A 
ATOM      7  S   UNL     1       3.860   2.369   0.565  0.00  0.00    -0.073 S 
ATOM      8  C   UNL     1       3.129   3.778  -0.204  0.00  0.00    +0.115 A 
ATOM      9  N   UNL     1       3.623   4.903  -0.680  0.00  0.00    -0.214 NA
ATOM     10  C   UNL     1       2.277   0.064   1.465  0.00  0.00    +0.043 C 
ATOM     11  C   UNL     1       0.805  -0.194   1.815  0.00  0.00    +0.005 C 
ATOM     12  C   UNL     1      -0.056   0.160   0.599  0.00  0.00    +0.005 C 
ATOM     13  C   UNL     1      -0.063   1.675   0.392  0.00  0.00    +0.037 C 
ATOM     14  N   UNL     1      -0.493   4.224  -0.884  0.00  0.00    -0.343 N 
ATOM     15  H   UNL     1      -0.914   3.541  -0.339  0.00  0.00    +0.144 HD
ATOM     16  H   UNL     1      -1.030   4.765  -1.484  0.00  0.00    +0.144 HD
ENDROOT
BRANCH   1  17
ATOM     17  S   UNL     1       3.364   7.286  -1.857  0.00  0.00    -0.073 S 
BRANCH  17  19
ATOM     18  C   UNL     1       0.919   8.319  -1.207  0.00  0.00    +0.029 C 
ATOM     19  C   UNL     1       1.814   8.036  -2.415  0.00  0.00    +0.137 C 
BRANCH  19  20
ATOM     20  C   UNL     1       2.110   9.327  -3.134  0.00  0.00    +0.226 C 
ATOM     21  O   UNL     1       3.169   9.890  -2.956  0.00  0.00    -0.275 OA
ATOM     22  N   UNL     1       1.199   9.855  -3.975  0.00  0.00    -0.314 N 
ATOM     23  H   UNL     1       0.352   9.404  -4.117  0.00  0.00    +0.149 HD
BRANCH  22  24
ATOM     24  C   UNL     1       1.487  11.110  -4.674  0.00  0.00    +0.109 C 
BRANCH  24  25
ATOM     25  C   UNL     1       0.297  11.486  -5.559  0.00  0.00    +0.054 C 
BRANCH  25  26
ATOM     26  C   UNL     1       0.593  12.777  -6.277  0.00  0.00    -0.046 A 
ATOM     27  C   UNL     1       0.244  13.984  -5.702  0.00  0.00    +0.004 A 
ATOM     28  C   UNL     1       0.520  15.168  -6.359  0.00  0.00    +0.000 A 
ATOM     29  C   UNL     1       1.137  15.145  -7.596  0.00  0.00    +0.000 A 
ATOM     30  C   UNL     1       1.481  13.937  -8.174  0.00  0.00    +0.000 A 
ATOM     31  C   UNL     1       1.210  12.753  -7.514  0.00  0.00    +0.004 A 
ENDBRANCH  25  26
ENDBRANCH  24  25
ENDBRANCH  22  24
ENDBRANCH  19  20
ENDBRANCH  17  19
ENDBRANCH   1  17
TORSDOF 6
