REMARK  Name = ZINC20082452
REMARK  10 active torsions:
REMARK  status: ('A' for Active; 'I' for Inactive)
REMARK    1  A    between atoms: C_1  and  C_2
REMARK    2  A    between atoms: C_2  and  C_3
REMARK    3  A    between atoms: C_10  and  C_15
REMARK    4  A    between atoms: C_15  and  C_17
REMARK    5  A    between atoms: C_15  and  N_28
REMARK    6  A    between atoms: N_21  and  C_22
REMARK    7  A    between atoms: N_28  and  C_29
REMARK    8  A    between atoms: N_28  and  C_35
REMARK    9  A    between atoms: C_29  and  C_30
REMARK   10  A    between atoms: C_35  and  C_36
REMARK                            x       y       z     vdW  Elec       q    Type
REMARK                         _______ _______ _______ _____ _____    ______ ____
ROOT
ATOM      1  C   UNL     1      -1.702   3.843   0.760  0.00  0.00    +0.163 C 
ENDROOT
BRANCH   1   9
ATOM      2  C   UNL     1      -7.501   4.446   2.831  0.00  0.00    -0.047 A 
ATOM      3  C   UNL     1      -7.651   3.134   3.258  0.00  0.00    +0.005 A 
ATOM      4  C   UNL     1      -6.624   2.226   3.117  0.00  0.00    +0.026 A 
ATOM      5  C   UNL     1      -5.423   2.627   2.540  0.00  0.00    +0.049 A 
ATOM      6  C   UNL     1      -5.275   3.959   2.108  0.00  0.00    -0.001 A 
ATOM      7  C   UNL     1      -6.331   4.862   2.262  0.00  0.00    +0.013 A 
ATOM      8  C   UNL     1      -4.008   4.371   1.503  0.00  0.00    +0.021 A 
ATOM      9  C   UNL     1      -3.019   3.451   1.379  0.00  0.00    +0.042 A 
ATOM     10  C   UNL     1      -3.221   2.127   1.823  0.00  0.00    +0.254 A 
ATOM     11  O   UNL     1      -2.321   1.315   1.698  0.00  0.00    -0.268 OA
ATOM     12  N   UNL     1      -4.379   1.740   2.386  0.00  0.00    -0.322 N 
ATOM     13  H   UNL     1      -4.487   0.699   2.725  0.00  0.00    +0.169 HD
BRANCH   2  15
ATOM     14  C   UNL     1      -9.527   5.384   1.751  0.00  0.00    +0.009 C 
ATOM     15  C   UNL     1      -8.639   5.420   2.997  0.00  0.00    +0.032 C 
ENDBRANCH   2  15
ENDBRANCH   1   9
BRANCH   1  16
ATOM     16  C   UNL     1      -1.455   3.005  -0.468  0.00  0.00    +0.173 A 
ATOM     17  N   UNL     1      -1.183   1.723  -0.499  0.00  0.00    -0.111 NA
ATOM     18  N   UNL     1      -1.040   1.377  -1.732  0.00  0.00    -0.023 NA
ATOM     19  N   UNL     1      -1.214   2.404  -2.488  0.00  0.00    -0.044 NA
ATOM     20  N   UNL     1      -1.477   3.427  -1.746  0.00  0.00    -0.224 N 
BRANCH  20  21
ATOM     21  C   UNL     1      -1.745   4.791  -2.208  0.00  0.00    +0.111 C 
ATOM     22  C   UNL     1      -2.975   4.788  -3.118  0.00  0.00    +0.027 C 
ATOM     23  C   UNL     1      -3.256   6.213  -3.600  0.00  0.00    +0.002 C 
ATOM     24  C   UNL     1      -2.046   6.735  -4.379  0.00  0.00    +0.000 C 
ATOM     25  C   UNL     1      -0.816   6.737  -3.469  0.00  0.00    +0.002 C 
ATOM     26  C   UNL     1      -0.536   5.313  -2.987  0.00  0.00    +0.027 C 
ENDBRANCH  20  21
ENDBRANCH   1  16
BRANCH   1  27
ATOM     27  N   UNL     1      -0.620   3.622   1.729  0.00  0.00    -0.282 NA
BRANCH  27  28
ATOM     28  C   UNL     1       0.684   3.968   1.150  0.00  0.00    +0.128 C 
BRANCH  28  29
ATOM     29  C   UNL     1       1.175   2.826   0.297  0.00  0.00    +0.004 A 
ATOM     30  C   UNL     1       1.243   2.738  -1.054  0.00  0.00    +0.012 A 
ATOM     31  C   UNL     1       1.738   1.580  -1.625  0.00  0.00    +0.008 A 
ATOM     32  C   UNL     1       2.129   0.564  -0.818  0.00  0.00    +0.045 A 
ATOM     33  S   UNL     1       1.809   1.236   0.804  0.00  0.00    -0.100 S 
ENDBRANCH  28  29
ENDBRANCH  27  28
BRANCH  27  34
ATOM     34  C   UNL     1      -0.862   4.373   2.968  0.00  0.00    +0.117 C 
BRANCH  34  35
ATOM     35  C   UNL     1      -1.806   3.576   3.871  0.00  0.00    +0.132 C 
ATOM     36  C   UNL     1      -2.002   4.304   5.220  0.00  0.00    +0.035 C 
ATOM     37  C   UNL     1      -2.072   3.160   6.256  0.00  0.00    +0.031 C 
ATOM     38  C   UNL     1      -1.910   1.877   5.411  0.00  0.00    +0.160 C 
ATOM     39  O   UNL     1      -1.216   2.305   4.219  0.00  0.00    -0.375 OA
ENDBRANCH  34  35
ENDBRANCH  27  34
ENDBRANCH   1  27
TORSDOF 9
