REMARK  Name = ZINC12486991
REMARK  10 active torsions:
REMARK  status: ('A' for Active; 'I' for Inactive)
REMARK    1  A    between atoms: C_4  and  C_7
REMARK    2  A    between atoms: C_7  and  C_9
REMARK    3  A    between atoms: C_7  and  N_18
REMARK    4  A    between atoms: N_11  and  C_12
REMARK    5  A    between atoms: C_12  and  C_13
REMARK    6  A    between atoms: N_18  and  C_19
REMARK    7  A    between atoms: C_19  and  C_20
REMARK    8  A    between atoms: C_29  and  C_31
REMARK    9  A    between atoms: C_31  and  N_32
REMARK   10  A    between atoms: C_33  and  C_35
REMARK                            x       y       z     vdW  Elec       q    Type
REMARK                         _______ _______ _______ _____ _____    ______ ____
ROOT
ATOM      1  N   UNL     1      -4.337   1.388   0.436  0.00  0.00    -0.280 N 
ATOM      2  C   UNL     1      -3.904   0.718  -0.650  0.00  0.00    +0.234 C 
ATOM      3  O   UNL     1      -4.572  -0.182  -1.113  0.00  0.00    -0.274 OA
ENDROOT
BRANCH   1   4
ATOM      4  C   UNL     1      -5.623   1.041   1.047  0.00  0.00    +0.193 C 
BRANCH   4   8
ATOM      5  C   UNL     1      -5.266  -2.694   3.089  0.00  0.00    +0.000 A 
ATOM      6  C   UNL     1      -6.345  -2.462   2.255  0.00  0.00    +0.000 A 
ATOM      7  C   UNL     1      -6.460  -1.254   1.594  0.00  0.00    +0.006 A 
ATOM      8  C   UNL     1      -5.497  -0.277   1.767  0.00  0.00    -0.018 A 
ATOM      9  C   UNL     1      -4.416  -0.510   2.597  0.00  0.00    +0.006 A 
ATOM     10  C   UNL     1      -4.303  -1.717   3.261  0.00  0.00    +0.000 A 
ENDBRANCH   4   8
BRANCH   4  11
ATOM     11  C   UNL     1      -6.019   2.114   2.028  0.00  0.00    +0.238 C 
ATOM     12  O   UNL     1      -5.614   3.248   1.883  0.00  0.00    -0.273 OA
ATOM     13  N   UNL     1      -6.825   1.814   3.066  0.00  0.00    -0.306 N 
ATOM     14  H   UNL     1      -7.149   0.907   3.181  0.00  0.00    +0.149 HD
BRANCH  13  15
ATOM     15  C   UNL     1      -7.210   2.857   4.019  0.00  0.00    +0.178 C 
BRANCH  15  16
ATOM     16  C   UNL     1      -8.107   2.265   5.076  0.00  0.00    +0.122 A 
ATOM     17  C   UNL     1      -7.702   1.722   6.238  0.00  0.00    +0.046 A 
ATOM     18  C   UNL     1      -8.865   1.295   6.918  0.00  0.00    +0.041 A 
ATOM     19  C   UNL     1      -9.912   1.604   6.132  0.00  0.00    +0.195 A 
ATOM     20  O   UNL     1      -9.447   2.197   5.020  0.00  0.00    -0.466 OA
ENDBRANCH  15  16
ENDBRANCH  13  15
ENDBRANCH   4  11
ENDBRANCH   1   4
BRANCH   1  21
ATOM     21  C   UNL     1      -3.523   2.465   1.006  0.00  0.00    +0.144 C 
BRANCH  21  22
ATOM     22  C   UNL     1      -3.277   3.518  -0.043  0.00  0.00    -0.026 A 
ATOM     23  C   UNL     1      -1.982   3.862  -0.385  0.00  0.00    +0.009 A 
ATOM     24  C   UNL     1      -1.751   4.824  -1.351  0.00  0.00    +0.050 A 
ATOM     25  C   UNL     1      -2.818   5.454  -1.971  0.00  0.00    +0.166 A 
ATOM     26  C   UNL     1      -4.122   5.111  -1.623  0.00  0.00    +0.167 A 
ATOM     27  C   UNL     1      -4.346   4.142  -0.658  0.00  0.00    +0.054 A 
ATOM     28  O   UNL     1      -4.984   5.864  -2.366  0.00  0.00    -0.453 OA
ATOM     29  C   UNL     1      -4.198   6.957  -2.876  0.00  0.00    +0.466 C 
ATOM     30  O   UNL     1      -2.863   6.421  -2.932  0.00  0.00    -0.453 OA
ENDBRANCH  21  22
ENDBRANCH   1  21
BRANCH   2  31
ATOM     31  C   UNL     1      -2.590   1.087  -1.288  0.00  0.00    +0.200 C 
BRANCH  31  32
ATOM     32  N   UNL     1      -2.247   0.094  -2.309  0.00  0.00    -0.300 N 
ATOM     33  C   UNL     1      -1.109   0.223  -3.020  0.00  0.00    +0.280 C 
ATOM     34  O   UNL     1      -0.364   1.162  -2.810  0.00  0.00    -0.267 OA
ATOM     35  H   UNL     1      -2.841  -0.655  -2.477  0.00  0.00    +0.150 HD
BRANCH  33  36
ATOM     36  C   UNL     1      -0.769  -0.768  -4.046  0.00  0.00    +0.189 A 
ATOM     37  C   UNL     1       0.346  -0.757  -4.834  0.00  0.00    +0.054 A 
ATOM     38  C   UNL     1       0.264  -1.885  -5.665  0.00  0.00    +0.042 A 
ATOM     39  C   UNL     1      -0.883  -2.527  -5.353  0.00  0.00    +0.196 A 
ATOM     40  O   UNL     1      -1.500  -1.854  -4.373  0.00  0.00    -0.458 OA
ENDBRANCH  33  36
ENDBRANCH  31  32
ENDBRANCH   2  31
TORSDOF 10
