REMARK  Name = ZINC06422137
REMARK  8 active torsions:
REMARK  status: ('A' for Active; 'I' for Inactive)
REMARK    1  A    between atoms: C_1  and  C_2
REMARK    2  A    between atoms: C_2  and  C_4
REMARK    3  A    between atoms: C_2  and  O_15
REMARK    4  A    between atoms: N_6  and  C_7
REMARK    5  A    between atoms: C_7  and  C_13
REMARK    6  A    between atoms: O_15  and  C_16
REMARK    7  A    between atoms: C_16  and  C_18
REMARK    8  A    between atoms: C_22  and  N_24
REMARK                            x       y       z     vdW  Elec       q    Type
REMARK                         _______ _______ _______ _____ _____    ______ ____
ROOT
ATOM      1  C   UNL     1      -0.729   1.579   1.267  0.00  0.00    +0.062 C 
ATOM      2  C   UNL     1      -0.013   1.086   0.008  0.00  0.00    +0.259 C 
ENDROOT
BRANCH   2   3
ATOM      3  C   UNL     1      -0.742   1.585  -1.213  0.00  0.00    +0.255 C 
ATOM      4  O   UNL     1      -0.169   2.295  -2.013  0.00  0.00    -0.272 OA
ATOM      5  N   UNL     1      -2.029   1.243  -1.416  0.00  0.00    -0.294 N 
ATOM      6  H   UNL     1      -2.487   0.676  -0.776  0.00  0.00    +0.150 HD
BRANCH   5   7
ATOM      7  C   UNL     1      -2.738   1.728  -2.603  0.00  0.00    +0.121 C 
ATOM      8  C   UNL     1      -2.759   3.258  -2.594  0.00  0.00    +0.041 C 
ATOM      9  C   UNL     1      -3.499   3.765  -3.834  0.00  0.00    +0.003 C 
ATOM     10  C   UNL     1      -4.934   3.235  -3.823  0.00  0.00    +0.000 C 
ATOM     11  C   UNL     1      -4.913   1.706  -3.831  0.00  0.00    +0.003 C 
ATOM     12  C   UNL     1      -4.173   1.199  -2.592  0.00  0.00    +0.041 C 
BRANCH   7  13
ATOM     13  C   UNL     1      -2.049   1.254  -3.814  0.00  0.00    +0.088 C 
ATOM     14  N   UNL     1      -1.517   0.887  -4.748  0.00  0.00    -0.194 NA
ENDBRANCH   7  13
ENDBRANCH   5   7
ENDBRANCH   2   3
BRANCH   2  15
ATOM     15  O   UNL     1       1.349   1.588  -0.002  0.00  0.00    -0.449 OA
BRANCH  15  16
ATOM     16  C   UNL     1       2.289   0.822   0.585  0.00  0.00    +0.340 C 
ATOM     17  O   UNL     1       1.978  -0.238   1.091  0.00  0.00    -0.245 OA
BRANCH  16  18
ATOM     18  C   UNL     1       3.696   1.269   0.612  0.00  0.00    +0.061 A 
ATOM     19  C   UNL     1       4.056   2.484   0.025  0.00  0.00    +0.016 A 
ATOM     20  C   UNL     1       5.370   2.902   0.057  0.00  0.00    +0.022 A 
ATOM     21  C   UNL     1       6.337   2.117   0.659  0.00  0.00    +0.062 A 
ATOM     22  C   UNL     1       5.989   0.902   1.242  0.00  0.00    +0.044 A 
ATOM     23  C   UNL     1       4.671   0.476   1.220  0.00  0.00    +0.039 A 
ATOM     24 CL   UNL     1       7.989   2.649   0.688  0.00  0.00    -0.082 Cl
BRANCH  22  25
ATOM     25  N   UNL     1       6.969   0.113   1.850  0.00  0.00    -0.357 N 
ATOM     26  H   UNL     1       6.726  -0.734   2.256  0.00  0.00    +0.142 HD
ATOM     27  H   UNL     1       7.892   0.411   1.865  0.00  0.00    +0.142 HD
ENDBRANCH  22  25
ENDBRANCH  16  18
ENDBRANCH  15  16
ENDBRANCH   2  15
TORSDOF 7
