REMARK  Name = ZINC38672905
REMARK  8 active torsions:
REMARK  status: ('A' for Active; 'I' for Inactive)
REMARK    1  A    between atoms: C_1  and  N_2
REMARK    2  A    between atoms: N_5  and  C_8
REMARK    3  A    between atoms: C_8  and  C_10
REMARK    4  A    between atoms: C_8  and  C_26
REMARK    5  A    between atoms: C_10  and  N_11
REMARK    6  A    between atoms: C_12  and  C_14
REMARK    7  A    between atoms: C_14  and  C_20
REMARK    8  A    between atoms: N_35  and  C_36
REMARK                            x       y       z     vdW  Elec       q    Type
REMARK                         _______ _______ _______ _____ _____    ______ ____
ROOT
ATOM      1  C   UNL     1       1.631  -3.843  -0.189  0.00  0.00    +0.104 C 
ENDROOT
BRANCH   1   2
ATOM      2  C   UNL     1       2.448  -4.358   0.968  0.00  0.00    -0.028 A 
ATOM      3  C   UNL     1       3.652  -3.756   1.285  0.00  0.00    +0.007 A 
ATOM      4  C   UNL     1       4.400  -4.229   2.343  0.00  0.00    +0.024 A 
ATOM      5  C   UNL     1       3.944  -5.310   3.090  0.00  0.00    +0.033 A 
ATOM      6  C   UNL     1       2.736  -5.911   2.774  0.00  0.00    -0.026 A 
ATOM      7  C   UNL     1       1.990  -5.428   1.712  0.00  0.00    +0.010 A 
ATOM      8  C   UNL     1       2.205  -7.077   3.566  0.00  0.00    +0.038 C 
ATOM      9  C   UNL     1       3.337  -7.764   4.330  0.00  0.00    +0.024 C 
ATOM     10  C   UNL     1       4.116  -6.706   5.121  0.00  0.00    +0.105 C 
ATOM     11  N   UNL     1       4.720  -5.778   4.156  0.00  0.00    -0.333 N 
ATOM     12  C   UNL     1       6.113  -5.349   4.307  0.00  0.00    +0.129 C 
ENDBRANCH   1   2
BRANCH   1  17
ATOM     13  C   UNL     1       0.632   1.703  -0.190  0.00  0.00    -0.096 C 
ATOM     14  N   UNL     1       0.526   0.238  -0.168  0.00  0.00    +0.379 N 
ATOM     15  C   UNL     1       1.108  -0.314  -1.398  0.00  0.00    -0.064 C 
ATOM     16  C   UNL     1       0.982  -1.839  -1.384  0.00  0.00    +0.066 C 
ATOM     17  N   UNL     1       1.681  -2.375  -0.208  0.00  0.00    -0.297 NA
ATOM     18  C   UNL     1       1.126  -1.812   1.031  0.00  0.00    +0.066 C 
ATOM     19  C   UNL     1       1.252  -0.288   0.997  0.00  0.00    -0.064 C 
ATOM     20  H   UNL     1      -0.445  -0.029  -0.106  0.00  0.00    -0.082 HD
ENDBRANCH   1  17
BRANCH   1  21
ATOM     21  C   UNL     1       2.200  -4.390  -1.500  0.00  0.00    +0.127 C 
BRANCH  21  22
ATOM     22  N   UNL     1       2.044  -5.846  -1.530  0.00  0.00    -0.313 N 
ATOM     23  C   UNL     1       2.567  -6.559  -2.547  0.00  0.00    +0.224 C 
ATOM     24  O   UNL     1       3.085  -5.989  -3.484  0.00  0.00    -0.275 OA
ATOM     25  H   UNL     1       1.564  -6.297  -0.818  0.00  0.00    +0.149 HD
BRANCH  23  26
ATOM     26  C   UNL     1       2.507  -8.064  -2.521  0.00  0.00    +0.076 C 
ATOM     27  C   UNL     1       3.039  -8.575  -1.179  0.00  0.00    +0.049 C 
ATOM     28  C   UNL     1       4.511  -8.178  -1.038  0.00  0.00    +0.161 C 
ATOM     29  O   UNL     1       5.255  -8.711  -2.135  0.00  0.00    -0.380 OA
ATOM     30  C   UNL     1       4.832  -8.232  -3.414  0.00  0.00    +0.161 C 
ATOM     31  C   UNL     1       3.373  -8.631  -3.650  0.00  0.00    +0.049 C 
BRANCH  26  32
ATOM     32  C   UNL     1       1.081  -8.516  -2.704  0.00  0.00    -0.032 A 
ATOM     33  C   UNL     1       0.749  -9.348  -3.757  0.00  0.00    +0.004 A 
ATOM     34  C   UNL     1      -0.559  -9.761  -3.926  0.00  0.00    +0.000 A 
ATOM     35  C   UNL     1      -1.535  -9.344  -3.041  0.00  0.00    +0.000 A 
ATOM     36  C   UNL     1      -1.203  -8.513  -1.987  0.00  0.00    +0.000 A 
ATOM     37  C   UNL     1       0.106  -8.102  -1.816  0.00  0.00    +0.004 A 
ENDBRANCH  26  32
ENDBRANCH  23  26
ENDBRANCH  21  22
ENDBRANCH   1  21
TORSDOF 6
