REMARK  Name = ZINC66201673
REMARK  19 active torsions:
REMARK  status: ('A' for Active; 'I' for Inactive)
REMARK    1  A    between atoms: C_1  and  C_2
REMARK    2  A    between atoms: C_2  and  C_3
REMARK    3  A    between atoms: C_3  and  C_5
REMARK    4  A    between atoms: C_3  and  O_6
REMARK    5  A    between atoms: O_6  and  C_7
REMARK    6  A    between atoms: C_7  and  C_9
REMARK    7  A    between atoms: C_9  and  C_10
REMARK    8  A    between atoms: N_17  and  C_18
REMARK    9  A    between atoms: C_18  and  N_20
REMARK   10  A    between atoms: C_21  and  C_23
REMARK   11  A    between atoms: C_23  and  C_24
REMARK   12  A    between atoms: C_23  and  C_25
REMARK   13  A    between atoms: C_23  and  C_26
REMARK   14  A    between atoms: C_26  and  C_27
REMARK   15  A    between atoms: C_27  and  C_28
REMARK   16  A    between atoms: C_28  and  O_29
REMARK   17  A    between atoms: O_29  and  C_30
REMARK   18  A    between atoms: C_32  and  C_37
REMARK   19  A    between atoms: C_35  and  C_36
REMARK                            x       y       z     vdW  Elec       q    Type
REMARK                         _______ _______ _______ _____ _____    ______ ____
ROOT
ATOM      1  N   UNL     1       3.387  -2.075  -6.210  0.00  0.00    -0.267 N 
ATOM      2  C   UNL     1       4.670  -2.277  -5.851  0.00  0.00    +0.224 C 
ATOM      3  O   UNL     1       5.224  -1.489  -5.115  0.00  0.00    -0.275 OA
ATOM      4  H   UNL     1       2.943  -2.705  -6.799  0.00  0.00    +0.157 HD
ENDROOT
BRANCH   2   5
ATOM      5  C   UNL     1       5.415  -3.482  -6.363  0.00  0.00    +0.042 C 
ATOM      6  C   UNL     1       4.699  -4.756  -5.909  0.00  0.00    +0.020 C 
ATOM      7  C   UNL     1       5.462  -3.441  -7.892  0.00  0.00    +0.020 C 
BRANCH   5   8
ATOM      8  C   UNL     1       6.841  -3.473  -5.809  0.00  0.00    +0.019 C 
BRANCH   8   9
ATOM      9  C   UNL     1       7.598  -4.697  -6.330  0.00  0.00    +0.042 C 
BRANCH   9  10
ATOM     10  C   UNL     1       9.024  -4.688  -5.775  0.00  0.00    +0.229 C 
BRANCH  10  11
ATOM     11  O   UNL     1       9.731  -5.831  -6.261  0.00  0.00    -0.492 OA
BRANCH  11  12
ATOM     12  C   UNL     1      11.022  -5.975  -5.861  0.00  0.00    +0.124 A 
ATOM     13  C   UNL     1      11.594  -5.038  -5.012  0.00  0.00    +0.049 A 
ATOM     14  C   UNL     1      12.906  -5.187  -4.605  0.00  0.00    -0.047 A 
ATOM     15  C   UNL     1      13.649  -6.268  -5.044  0.00  0.00    +0.004 A 
ATOM     16  C   UNL     1      13.081  -7.202  -5.890  0.00  0.00    +0.007 A 
ATOM     17  C   UNL     1      11.767  -7.061  -6.295  0.00  0.00    -0.009 A 
ATOM     18  C   UNL     1      11.147  -8.083  -7.212  0.00  0.00    +0.047 C 
ATOM     19  C   UNL     1      13.528  -4.170  -3.684  0.00  0.00    +0.044 C 
ENDBRANCH  11  12
ENDBRANCH  10  11
ENDBRANCH   9  10
ENDBRANCH   8   9
ENDBRANCH   5   8
ENDBRANCH   2   5
BRANCH   1  20
ATOM     20  C   UNL     1       2.720  -0.997  -5.752  0.00  0.00    +0.140 C 
ATOM     21  S   UNL     1       3.457   0.043  -4.609  0.00  0.00    -0.018 S 
BRANCH  20  28
ATOM     22  C   UNL     1       0.794  -1.637  -7.138  0.00  0.00    +0.171 C 
ATOM     23  C   UNL     1      -0.635  -1.816  -6.704  0.00  0.00    +0.234 C 
ATOM     24  O   UNL     1      -1.289  -2.699  -7.216  0.00  0.00    -0.274 OA
ATOM     25  N   UNL     1      -1.216  -1.048  -5.780  0.00  0.00    -0.312 N 
ATOM     26  C   UNL     1      -0.532  -0.012  -5.017  0.00  0.00    +0.123 C 
ATOM     27  C   UNL     1       0.729   0.455  -5.745  0.00  0.00    +0.126 C 
ATOM     28  N   UNL     1       1.473  -0.739  -6.192  0.00  0.00    -0.299 N 
ATOM     29  H   UNL     1      -2.159  -1.189  -5.604  0.00  0.00    +0.149 HD
BRANCH  22  30
ATOM     30  C   UNL     1       0.831  -1.026  -8.541  0.00  0.00    +0.152 C 
BRANCH  30  31
ATOM     31  C   UNL     1       2.254  -0.983  -9.033  0.00  0.00    +0.310 C 
ATOM     32  O   UNL     1       3.157  -1.311  -8.300  0.00  0.00    -0.251 OA
BRANCH  31  33
ATOM     33  O   UNL     1       2.520  -0.580 -10.285  0.00  0.00    -0.462 OA
BRANCH  33  34
ATOM     34  C   UNL     1       3.892  -0.564 -10.684  0.00  0.00    +0.173 C 
ATOM     35  C   UNL     1       4.500   0.803 -10.364  0.00  0.00    +0.052 C 
BRANCH  34  37
ATOM     36  C   UNL     1       3.495  -2.240 -12.493  0.00  0.00    +0.007 C 
ATOM     37  C   UNL     1       3.988  -0.825 -12.189  0.00  0.00    +0.041 C 
ENDBRANCH  34  37
ENDBRANCH  33  34
ENDBRANCH  31  33
ENDBRANCH  30  31
ENDBRANCH  22  30
ENDBRANCH  20  28
ENDBRANCH   1  20
TORSDOF 13
