REMARK  Name = ZINC42607000
REMARK  7 active torsions:
REMARK  status: ('A' for Active; 'I' for Inactive)
REMARK    1  A    between atoms: C_1  and  C_2
REMARK    2  A    between atoms: C_8  and  N_10
REMARK    3  A    between atoms: N_10  and  C_11
REMARK    4  A    between atoms: N_10  and  C_12
REMARK    5  A    between atoms: C_12  and  C_14
REMARK    6  A    between atoms: C_12  and  C_16
REMARK    7  A    between atoms: C_14  and  N_15
REMARK                            x       y       z     vdW  Elec       q    Type
REMARK                         _______ _______ _______ _____ _____    ______ ____
ROOT
ATOM      1  C   UNL     1       1.006  -0.379   3.811  0.00  0.00    +0.105 C 
ENDROOT
BRANCH   1   2
ATOM      2  C   UNL     1       0.038  -0.672   4.928  0.00  0.00    +0.122 A 
ATOM      3  C   UNL     1       0.253  -1.516   5.953  0.00  0.00    +0.047 A 
ATOM      4  C   UNL     1      -0.909  -1.486   6.759  0.00  0.00    +0.057 A 
ATOM      5  C   UNL     1      -1.764  -0.624   6.177  0.00  0.00    +0.170 A 
ATOM      6  O   UNL     1      -1.183  -0.130   5.072  0.00  0.00    -0.452 OA
ATOM      7 BR   UNL     1      -3.489  -0.179   6.813  0.00  0.00    -0.008 Br
ENDBRANCH   1   2
BRANCH   1   8
ATOM      8  N   UNL     1       0.305  -0.459   2.522  0.00  0.00    -0.294 NA
ATOM      9  C   UNL     1      -0.766  -1.462   2.567  0.00  0.00    +0.105 C 
BRANCH   8  16
ATOM     10  C   UNL     1       0.136   1.006   0.027  0.00  0.00    +0.009 C 
ATOM     11  C   UNL     1       0.564  -0.461   0.087  0.00  0.00    +0.003 C 
ATOM     12  C   UNL     1       1.542  -0.754  -1.052  0.00  0.00    +0.005 C 
ATOM     13  C   UNL     1       1.970  -2.222  -0.992  0.00  0.00    +0.000 C 
ATOM     14  C   UNL     1       2.651  -2.501   0.349  0.00  0.00    +0.002 C 
ATOM     15  C   UNL     1       1.672  -2.208   1.488  0.00  0.00    +0.019 C 
ATOM     16  C   UNL     1       1.245  -0.740   1.429  0.00  0.00    +0.060 C 
ENDBRANCH   8  16
ENDBRANCH   1   8
BRANCH   1  17
ATOM     17  C   UNL     1       1.583   1.027   3.991  0.00  0.00    -0.059 C 
BRANCH  17  18
ATOM     18  N   UNL     1       2.462   1.345   2.858  0.00  0.00    +0.379 N 
ATOM     19  H   UNL     1       3.120   0.593   2.722  0.00  0.00    -0.090 HD
ATOM     20  H   UNL     1       1.906   1.460   2.024  0.00  0.00    -0.090 HD
ATOM     21  H   UNL     1       2.962   2.200   3.050  0.00  0.00    -0.090 HD
ENDBRANCH  17  18
ENDBRANCH   1  17
TORSDOF 5
