REMARK  Name = ZINC63847751
REMARK  6 active torsions:
REMARK  status: ('A' for Active; 'I' for Inactive)
REMARK    1  A    between atoms: C_1  and  C_2
REMARK    2  A    between atoms: C_2  and  C_28
REMARK    3  A    between atoms: C_4  and  N_9
REMARK    4  A    between atoms: N_9  and  C_10
REMARK    5  A    between atoms: N_13  and  C_16
REMARK    6  A    between atoms: C_20  and  N_22
REMARK                            x       y       z     vdW  Elec       q    Type
REMARK                         _______ _______ _______ _____ _____    ______ ____
ROOT
ATOM      1  C   UNL     1       1.485  -3.923  -2.360  0.00  0.00    -0.069 C 
ATOM      2  C   UNL     1       2.123  -4.464  -1.078  0.00  0.00    +0.003 C 
ATOM      3  C   UNL     1       1.928  -5.982  -1.016  0.00  0.00    +0.103 C 
ATOM      4  N   UNL     1       2.458  -6.577  -2.251  0.00  0.00    -0.330 N 
ATOM      5  C   UNL     1       1.979  -6.067  -3.543  0.00  0.00    +0.103 C 
ATOM      6  C   UNL     1       2.173  -4.548  -3.576  0.00  0.00    +0.003 C 
ENDROOT
BRANCH   4   7
ATOM      7  C   UNL     1       3.400  -7.607  -2.197  0.00  0.00    +0.031 A 
ATOM      8  C   UNL     1       3.745  -8.171  -0.974  0.00  0.00    +0.023 A 
ATOM      9  C   UNL     1       4.676  -9.190  -0.920  0.00  0.00    +0.004 A 
ATOM     10  C   UNL     1       5.267  -9.652  -2.080  0.00  0.00    +0.023 A 
ATOM     11  C   UNL     1       4.926  -9.093  -3.305  0.00  0.00    +0.038 A 
ATOM     12  C   UNL     1       3.986  -8.074  -3.364  0.00  0.00    +0.046 A 
BRANCH  11  13
ATOM     13  N   UNL     1       5.525  -9.562  -4.480  0.00  0.00    -0.271 N 
ATOM     14  C   UNL     1       5.149  -9.129  -5.831  0.00  0.00    +0.114 C 
ATOM     15  C   UNL     1       6.324  -9.551  -6.741  0.00  0.00    +0.029 C 
ATOM     16  C   UNL     1       6.928 -10.734  -5.947  0.00  0.00    +0.098 C 
ATOM     17  C   UNL     1       6.521 -10.464  -4.516  0.00  0.00    +0.220 C 
ATOM     18  O   UNL     1       7.020 -10.986  -3.542  0.00  0.00    -0.275 OA
ENDBRANCH  11  13
ENDBRANCH   4   7
BRANCH   1  19
ATOM     19  N   UNL     1       1.641  -2.463  -2.406  0.00  0.00    +0.383 N 
ATOM     20  H   UNL     1       2.620  -2.232  -2.486  0.00  0.00    -0.085 HD
ATOM     21  H   UNL     1       1.268  -2.058  -1.561  0.00  0.00    -0.085 HD
BRANCH  19  25
ATOM     22  C   UNL     1       0.595   1.643  -4.963  0.00  0.00    +0.041 C 
ATOM     23  C   UNL     1       0.371   0.133  -4.863  0.00  0.00    +0.063 C 
ATOM     24  C   UNL     1       1.191  -0.429  -3.698  0.00  0.00    +0.019 C 
ATOM     25  C   UNL     1       0.915  -1.930  -3.567  0.00  0.00    -0.067 C 
ATOM     26  C   UNL     1      -0.589  -2.147  -3.377  0.00  0.00    +0.012 C 
ATOM     27  C   UNL     1      -1.340  -1.519  -4.554  0.00  0.00    +0.159 C 
ATOM     28  O   UNL     1      -1.015  -0.130  -4.638  0.00  0.00    -0.374 OA
ATOM     29  C   UNL     1       0.812  -0.536  -6.167  0.00  0.00    +0.041 C 
ENDBRANCH  19  25
ENDBRANCH   1  19
TORSDOF 4
