REMARK  Name = ZINC35747458
REMARK  16 active torsions:
REMARK  status: ('A' for Active; 'I' for Inactive)
REMARK    1  A    between atoms: C_1  and  O_2
REMARK    2  A    between atoms: O_2  and  C_3
REMARK    3  A    between atoms: C_3  and  C_4
REMARK    4  A    between atoms: C_4  and  C_5
REMARK    5  A    between atoms: C_5  and  N_6
REMARK    6  A    between atoms: N_6  and  C_7
REMARK    7  A    between atoms: N_6  and  C_27
REMARK    8  A    between atoms: C_7  and  C_8
REMARK    9  A    between atoms: C_14  and  C_19
REMARK   10  A    between atoms: C_22  and  O_25
REMARK   11  A    between atoms: O_25  and  C_26
REMARK   12  A    between atoms: C_27  and  C_28
REMARK   13  A    between atoms: C_28  and  C_30
REMARK   14  A    between atoms: C_28  and  O_38
REMARK   15  A    between atoms: C_30  and  O_31
REMARK   16  A    between atoms: O_31  and  C_32
REMARK                            x       y       z     vdW  Elec       q    Type
REMARK                         _______ _______ _______ _____ _____    ______ ____
ROOT
ATOM      1  C   UNL     1       2.269  -4.794  -3.098  0.00  0.00    -0.003 C 
ENDROOT
BRANCH   1   2
ATOM      2  C   UNL     1       3.678  -4.301  -2.888  0.00  0.00    +0.094 A 
ATOM      3  N   UNL     1       4.670  -4.753  -3.696  0.00  0.00    -0.312 N 
ATOM      4  H   UNL     1       4.460  -5.389  -4.398  0.00  0.00    +0.170 HD
ATOM      5  C   UNL     1       5.941  -4.337  -3.543  0.00  0.00    +0.260 A 
ATOM      6  O   UNL     1       6.821  -4.753  -4.277  0.00  0.00    -0.267 OA
ATOM      7  C   UNL     1       6.244  -3.399  -2.505  0.00  0.00    +0.080 A 
ATOM      8  C   UNL     1       7.525  -2.805  -2.143  0.00  0.00    +0.004 A 
ATOM      9  C   UNL     1       7.568  -1.930  -1.110  0.00  0.00    +0.056 A 
ATOM     10  S   UNL     1       5.874  -1.854  -0.561  0.00  0.00    -0.076 S 
ATOM     11  C   UNL     1       5.154  -2.988  -1.720  0.00  0.00    +0.116 A 
ATOM     12  N   UNL     1       3.921  -3.441  -1.936  0.00  0.00    -0.229 NA
BRANCH   8  13
ATOM     13  C   UNL     1       8.757  -3.153  -2.890  0.00  0.00    -0.016 A 
ATOM     14  C   UNL     1       9.082  -4.490  -3.118  0.00  0.00    +0.012 A 
ATOM     15  C   UNL     1      10.229  -4.810  -3.814  0.00  0.00    +0.046 A 
ATOM     16  C   UNL     1      11.059  -3.803  -4.288  0.00  0.00    +0.120 A 
ATOM     17  C   UNL     1      10.738  -2.471  -4.063  0.00  0.00    +0.046 A 
ATOM     18  C   UNL     1       9.590  -2.144  -3.372  0.00  0.00    +0.012 A 
BRANCH  16  19
ATOM     19  O   UNL     1      12.188  -4.122  -4.974  0.00  0.00    -0.495 OA
ATOM     20  C   UNL     1      12.996  -3.037  -5.433  0.00  0.00    +0.277 C 
ENDBRANCH  16  19
ENDBRANCH   8  13
ENDBRANCH   1   2
BRANCH   1  21
ATOM     21  N   UNL     1       1.378  -4.163  -2.115  0.00  0.00    +0.386 N 
ATOM     22  H   UNL     1       1.729  -4.333  -1.185  0.00  0.00    -0.081 HD
BRANCH  21  23
ATOM     23  C   UNL     1       1.323  -2.716  -2.361  0.00  0.00    -0.076 C 
BRANCH  23  24
ATOM     24  C   UNL     1       0.517  -2.040  -1.251  0.00  0.00    +0.009 C 
BRANCH  24  25
ATOM     25  C   UNL     1       0.572  -0.522  -1.433  0.00  0.00    +0.157 C 
BRANCH  25  27
ATOM     26  C   UNL     1      -0.194   1.537  -0.473  0.00  0.00    +0.193 C 
ATOM     27  O   UNL     1      -0.181   0.110  -0.395  0.00  0.00    -0.383 OA
ENDBRANCH  25  27
ENDBRANCH  24  25
ENDBRANCH  23  24
ENDBRANCH  21  23
BRANCH  21  28
ATOM     28  C   UNL     1       0.029  -4.732  -2.241  0.00  0.00    -0.043 C 
BRANCH  28  29
ATOM     29  C   UNL     1       0.060  -6.209  -1.840  0.00  0.00    +0.135 C 
BRANCH  29  30
ATOM     30  O   UNL     1       0.498  -6.326  -0.485  0.00  0.00    -0.390 OA
ATOM     31  H   UNL     1      -0.108  -5.934   0.159  0.00  0.00    +0.210 HD
ENDBRANCH  29  30
BRANCH  29  32
ATOM     32  C   UNL     1      -1.344  -6.803  -1.976  0.00  0.00    +0.258 C 
BRANCH  32  33
ATOM     33  O   UNL     1      -1.294  -8.207  -1.714  0.00  0.00    -0.489 OA
BRANCH  33  34
ATOM     34  C   UNL     1      -2.466  -8.891  -1.794  0.00  0.00    +0.121 A 
ATOM     35  C   UNL     1      -3.638  -8.226  -2.122  0.00  0.00    +0.045 A 
ATOM     36  C   UNL     1      -4.828  -8.923  -2.202  0.00  0.00    +0.004 A 
ATOM     37  C   UNL     1      -4.851 -10.284  -1.955  0.00  0.00    +0.000 A 
ATOM     38  C   UNL     1      -3.684 -10.949  -1.627  0.00  0.00    +0.004 A 
ATOM     39  C   UNL     1      -2.490 -10.257  -1.552  0.00  0.00    +0.045 A 
ENDBRANCH  33  34
ENDBRANCH  32  33
ENDBRANCH  29  32
ENDBRANCH  28  29
ENDBRANCH  21  28
ENDBRANCH   1  21
TORSDOF 14
