REMARK  Name = ZINC15769495
REMARK  5 active torsions:
REMARK  status: ('A' for Active; 'I' for Inactive)
REMARK    1  A    between atoms: C_2  and  C_3
REMARK    2  A    between atoms: C_3  and  O_4
REMARK    3  A    between atoms: O_4  and  C_5
REMARK    4  A    between atoms: C_8  and  C_12
REMARK    5  A    between atoms: N_18  and  C_19
REMARK                            x       y       z     vdW  Elec       q    Type
REMARK                         _______ _______ _______ _____ _____    ______ ____
ROOT
ATOM      1  C   UNL     1       5.570  -5.733   0.775  0.00  0.00    +0.028 C 
ATOM      2  C   UNL     1       5.698  -6.539   1.859  0.00  0.00    +0.078 C 
ATOM      3  C   UNL     1       6.798  -7.453   2.222  0.00  0.00    +0.256 C 
ATOM      4  O   UNL     1       7.781  -7.578   1.515  0.00  0.00    -0.269 OA
ATOM      5  N   UNL     1       6.668  -8.130   3.350  0.00  0.00    -0.260 N 
ATOM      6  C   UNL     1       5.547  -7.976   4.137  0.00  0.00    +0.166 C 
ATOM      7  N   UNL     1       5.260  -8.565   5.276  0.00  0.00    -0.224 NA
ATOM      8  S   UNL     1       4.583  -6.773   3.236  0.00  0.00    -0.049 S 
ATOM      9  H   UNL     1       7.368  -8.742   3.627  0.00  0.00    +0.157 HD
ENDROOT
BRANCH   7  10
ATOM     10  C   UNL     1       6.172  -9.401   5.862  0.00  0.00    +0.086 A 
ATOM     11  C   UNL     1       7.497  -8.990   6.025  0.00  0.00    +0.029 A 
ATOM     12  C   UNL     1       8.411  -9.837   6.617  0.00  0.00    +0.004 A 
ATOM     13  C   UNL     1       8.019 -11.091   7.049  0.00  0.00    +0.021 A 
ATOM     14  C   UNL     1       6.707 -11.506   6.892  0.00  0.00    +0.061 A 
ATOM     15  C   UNL     1       5.780 -10.666   6.306  0.00  0.00    +0.085 A 
ATOM     16 CL   UNL     1       4.134 -11.184   6.116  0.00  0.00    -0.080 Cl
ATOM     17 CL   UNL     1       6.226 -13.082   7.438  0.00  0.00    -0.082 Cl
ENDBRANCH   7  10
BRANCH   1  21
ATOM     18  C   UNL     1       2.369  -2.961   0.560  0.00  0.00    +0.135 A 
ATOM     19  C   UNL     1       2.708  -3.533   1.780  0.00  0.00    +0.047 A 
ATOM     20  C   UNL     1       3.747  -4.434   1.855  0.00  0.00    +0.011 A 
ATOM     21  C   UNL     1       4.462  -4.773   0.700  0.00  0.00    -0.023 A 
ATOM     22  C   UNL     1       4.115  -4.194  -0.527  0.00  0.00    +0.027 A 
ATOM     23  C   UNL     1       3.071  -3.298  -0.592  0.00  0.00    +0.060 A 
ATOM     24 BR   UNL     1       2.596  -2.520  -2.249  0.00  0.00    -0.046 Br
BRANCH  18  25
ATOM     25  O   UNL     1       1.343  -2.072   0.491  0.00  0.00    -0.487 OA
BRANCH  25  26
ATOM     26  C   UNL     1       0.664  -1.770   1.712  0.00  0.00    +0.256 C 
BRANCH  26  28
ATOM     27  C   UNL     1      -1.621  -0.951   1.966  0.00  0.00    +0.007 C 
ATOM     28  C   UNL     1      -0.434  -0.774   1.442  0.00  0.00    +0.006 C 
ENDBRANCH  26  28
ENDBRANCH  25  26
ENDBRANCH  18  25
ENDBRANCH   1  21
TORSDOF 5
