REMARK  Name = ZINC15839022
REMARK  7 active torsions:
REMARK  status: ('A' for Active; 'I' for Inactive)
REMARK    1  A    between atoms: C_1  and  C_2
REMARK    2  A    between atoms: C_2  and  N_3
REMARK    3  A    between atoms: C_11  and  S_13
REMARK    4  A    between atoms: S_13  and  C_14
REMARK    5  A    between atoms: C_14  and  C_15
REMARK    6  A    between atoms: C_16  and  C_24
REMARK    7  A    between atoms: C_16  and  C_25
REMARK                            x       y       z     vdW  Elec       q    Type
REMARK                         _______ _______ _______ _____ _____    ______ ____
ROOT
ATOM      1  N   UNL     1      -0.204   0.051  -0.448  0.00  0.00    -0.230 N 
ATOM      2  C   UNL     1      -0.171   1.406  -0.325  0.00  0.00    +0.237 A 
ATOM      3  N   UNL     1      -1.140   2.303  -0.225  0.00  0.00    -0.211 NA
ATOM      4  C   UNL     1      -0.861   3.602  -0.109  0.00  0.00    +0.084 A 
ATOM      5  C   UNL     1       0.462   4.030  -0.096  0.00  0.00    +0.049 A 
ATOM      6  C   UNL     1       1.479   3.081  -0.210  0.00  0.00    +0.266 A 
ATOM      7  O   UNL     1       2.651   3.421  -0.206  0.00  0.00    -0.267 OA
ATOM      8  N   UNL     1       1.141   1.778  -0.324  0.00  0.00    -0.222 N 
ATOM      9  C   UNL     1       1.909   0.641  -0.449  0.00  0.00    +0.198 A 
ATOM     10  N   UNL     1       1.123  -0.393  -0.523  0.00  0.00    -0.143 NA
ATOM     11  C   UNL     1       0.783   5.492   0.044  0.00  0.00    +0.001 C 
ATOM     12  C   UNL     1      -0.256   6.343  -0.681  0.00  0.00    +0.047 C 
ATOM     13  C   UNL     1      -1.647   5.947  -0.268  0.00  0.00    -0.037 A 
ATOM     14  C   UNL     1      -1.941   4.610   0.002  0.00  0.00    +0.004 A 
ATOM     15  C   UNL     1      -3.230   4.238   0.370  0.00  0.00    +0.010 A 
ATOM     16  C   UNL     1      -4.216   5.200   0.471  0.00  0.00    +0.001 A 
ATOM     17  C   UNL     1      -3.922   6.525   0.207  0.00  0.00    +0.000 A 
ATOM     18  C   UNL     1      -2.641   6.898  -0.161  0.00  0.00    +0.004 A 
ATOM     19  C   UNL     1       0.794   5.865   1.528  0.00  0.00    +0.016 C 
ATOM     20  C   UNL     1       2.165   5.764  -0.553  0.00  0.00    +0.016 C 
ENDROOT
BRANCH   1  22
ATOM     21  C   UNL     1      -1.858  -0.948  -1.946  0.00  0.00    +0.029 C 
ATOM     22  C   UNL     1      -1.404  -0.787  -0.494  0.00  0.00    +0.144 C 
ENDBRANCH   1  22
BRANCH   9  23
ATOM     23  S   UNL     1       3.670   0.596  -0.500  0.00  0.00    -0.086 S 
BRANCH  23  24
ATOM     24  C   UNL     1       3.933  -1.187  -0.672  0.00  0.00    +0.074 C 
ATOM     25  C   UNL     1       5.434  -1.477  -0.739  0.00  0.00    +0.016 C 
ENDBRANCH  23  24
ENDBRANCH   9  23
TORSDOF 3
