REMARK  Name = ZINC11304501
REMARK  9 active torsions:
REMARK  status: ('A' for Active; 'I' for Inactive)
REMARK    1  A    between atoms: C_1  and  C_2
REMARK    2  A    between atoms: C_2  and  O_3
REMARK    3  A    between atoms: O_3  and  C_4
REMARK    4  A    between atoms: C_4  and  C_6
REMARK    5  A    between atoms: C_7  and  C_21
REMARK    6  A    between atoms: C_12  and  C_14
REMARK    7  A    between atoms: C_21  and  S_22
REMARK    8  A    between atoms: S_22  and  C_23
REMARK    9  A    between atoms: C_26  and  C_28
REMARK                            x       y       z     vdW  Elec       q    Type
REMARK                         _______ _______ _______ _____ _____    ______ ____
ROOT
ATOM      1  C   UNL     1      -8.915  -1.595  -1.122  0.00  0.00    +0.079 C 
ATOM      2  C   UNL     1      -8.279  -1.271   0.024  0.00  0.00    +0.034 C 
ATOM      3  N   UNL     1      -8.963  -1.146   1.199  0.00  0.00    -0.272 N 
ATOM      4  C   UNL     1     -10.284  -1.334   1.313  0.00  0.00    +0.304 C 
ATOM      5  O   UNL     1     -10.806  -1.200   2.402  0.00  0.00    -0.252 OA
ATOM      6  N   UNL     1     -11.054  -1.667   0.258  0.00  0.00    -0.288 N 
ATOM      7  C   UNL     1     -10.411  -1.826  -1.057  0.00  0.00    +0.144 C 
ATOM      8  H   UNL     1      -8.465  -0.907   1.996  0.00  0.00    +0.156 HD
ATOM      9  H   UNL     1     -12.010  -1.798   0.362  0.00  0.00    +0.151 HD
ENDROOT
BRANCH   7  10
ATOM     10  C   UNL     1     -10.690  -3.224  -1.544  0.00  0.00    -0.022 A 
ATOM     11  C   UNL     1     -10.647  -4.286  -0.660  0.00  0.00    +0.007 A 
ATOM     12  C   UNL     1     -10.908  -5.568  -1.105  0.00  0.00    +0.020 A 
ATOM     13  C   UNL     1     -11.202  -5.790  -2.438  0.00  0.00    +0.041 A 
ATOM     14  C   UNL     1     -11.240  -4.729  -3.324  0.00  0.00    +0.020 A 
ATOM     15  C   UNL     1     -10.984  -3.446  -2.877  0.00  0.00    +0.007 A 
ATOM     16 CL   UNL     1     -11.525  -7.401  -2.999  0.00  0.00    -0.084 Cl
ENDBRANCH   7  10
BRANCH   1  17
ATOM     17  C   UNL     1      -8.208  -1.720  -2.341  0.00  0.00    +0.339 C 
ATOM     18  O   UNL     1      -6.992  -1.679  -2.345  0.00  0.00    -0.245 OA
BRANCH  17  19
ATOM     19  O   UNL     1      -8.882  -1.884  -3.498  0.00  0.00    -0.462 OA
BRANCH  19  21
ATOM     20  C   UNL     1      -9.035  -2.180  -5.892  0.00  0.00    +0.048 C 
ATOM     21  C   UNL     1      -8.104  -2.003  -4.691  0.00  0.00    +0.229 C 
ENDBRANCH  19  21
ENDBRANCH  17  19
ENDBRANCH   1  17
BRANCH   2  22
ATOM     22  C   UNL     1      -6.790  -1.038   0.005  0.00  0.00    +0.130 C 
BRANCH  22  23
ATOM     23  S   UNL     1      -5.939  -2.525   0.590  0.00  0.00    -0.060 S 
BRANCH  23  24
ATOM     24  C   UNL     1      -4.265  -1.987   0.468  0.00  0.00    +0.278 A 
ATOM     25  N   UNL     1      -3.855  -0.810   0.053  0.00  0.00    -0.101 NA
ATOM     26  N   UNL     1      -2.570  -0.766   0.094  0.00  0.00    -0.106 NA
ATOM     27  C   UNL     1      -2.108  -1.911   0.535  0.00  0.00    +0.249 A 
ATOM     28  O   UNL     1      -3.172  -2.710   0.775  0.00  0.00    -0.411 OA
BRANCH  27  29
ATOM     29  C   UNL     1      -0.687  -2.265   0.728  0.00  0.00    +0.039 A 
ATOM     30  C   UNL     1       0.313  -1.337   0.432  0.00  0.00    +0.013 A 
ATOM     31  C   UNL     1       1.638  -1.671   0.620  0.00  0.00    +0.001 A 
ATOM     32  C   UNL     1       1.977  -2.926   1.096  0.00  0.00    +0.000 A 
ATOM     33  C   UNL     1       0.991  -3.852   1.387  0.00  0.00    +0.001 A 
ATOM     34  C   UNL     1      -0.338  -3.530   1.204  0.00  0.00    +0.013 A 
ENDBRANCH  27  29
ENDBRANCH  23  24
ENDBRANCH  22  23
ENDBRANCH   2  22
TORSDOF 8
