REMARK  Name = ZINC12161370
REMARK  12 active torsions:
REMARK  status: ('A' for Active; 'I' for Inactive)
REMARK    1  A    between atoms: C_1  and  C_2
REMARK    2  A    between atoms: C_7  and  C_8
REMARK    3  A    between atoms: C_8  and  C_9
REMARK    4  A    between atoms: C_9  and  C_21
REMARK    5  A    between atoms: N_12  and  C_16
REMARK    6  A    between atoms: C_16  and  C_17
REMARK    7  A    between atoms: C_17  and  C_18
REMARK    8  A    between atoms: C_18  and  N_74
REMARK    9  A    between atoms: C_19  and  N_74
REMARK   10  A    between atoms: C_20  and  N_74
REMARK   11  A    between atoms: C_27  and  C_29
REMARK   12  A    between atoms: C_34  and  C_35
REMARK                            x       y       z     vdW  Elec       q    Type
REMARK                         _______ _______ _______ _____ _____    ______ ____
ROOT
ATOM      1  C   UNL     1       0.442   1.589   1.175  0.00  0.00    +0.119 C 
ATOM      2  C   UNL     1      -0.077   2.325   2.393  0.00  0.00    +0.247 C 
ATOM      3  O   UNL     1       0.181   2.093   3.554  0.00  0.00    -0.273 OA
ATOM      4  N   UNL     1      -0.885   3.293   1.917  0.00  0.00    -0.224 N 
ATOM      5  C   UNL     1      -0.948   3.270   0.580  0.00  0.00    +0.309 C 
ATOM      6  O   UNL     1      -1.613   4.046  -0.078  0.00  0.00    -0.252 OA
ATOM      7  N   UNL     1      -0.190   2.291   0.045  0.00  0.00    -0.284 N 
ATOM      8  H   UNL     1      -0.082   2.089  -0.898  0.00  0.00    +0.151 HD
ENDROOT
BRANCH   1   9
ATOM      9  C   UNL     1       0.008   0.122   1.207  0.00  0.00    +0.025 C 
ATOM     10  C   UNL     1       0.486  -0.580  -0.066  0.00  0.00    +0.025 C 
ATOM     11  C   UNL     1       0.080  -2.056  -0.015  0.00  0.00    +0.108 C 
ATOM     12  N   UNL     1      -1.369  -2.140   0.212  0.00  0.00    -0.297 N 
ATOM     13  C   UNL     1      -1.947  -1.425   1.359  0.00  0.00    +0.108 C 
ATOM     14  C   UNL     1      -1.518   0.044   1.292  0.00  0.00    +0.025 C 
ATOM     15  C   UNL     1      -2.153  -2.858  -0.616  0.00  0.00    +0.247 C 
ATOM     16  O   UNL     1      -3.361  -2.839  -0.478  0.00  0.00    -0.270 OA
BRANCH  15  17
ATOM     17  C   UNL     1      -1.545  -3.669  -1.692  0.00  0.00    +0.040 A 
ATOM     18  C   UNL     1      -0.510  -4.559  -1.399  0.00  0.00    +0.013 A 
ATOM     19  C   UNL     1       0.053  -5.313  -2.408  0.00  0.00    +0.001 A 
ATOM     20  C   UNL     1      -0.406  -5.188  -3.708  0.00  0.00    +0.000 A 
ATOM     21  C   UNL     1      -1.431  -4.308  -4.004  0.00  0.00    +0.004 A 
ATOM     22  C   UNL     1      -2.006  -3.552  -3.004  0.00  0.00    -0.038 A 
ATOM     23  C   UNL     1      -3.127  -2.598  -3.328  0.00  0.00    +0.044 C 
ENDBRANCH  15  17
ENDBRANCH   1   9
BRANCH   1  24
ATOM     24  C   UNL     1       1.966   1.695   1.090  0.00  0.00    +0.071 C 
BRANCH  24  31
ATOM     25  C   UNL     1       2.290   3.180  -1.367  0.00  0.00    +0.044 C 
ATOM     26  C   UNL     1       2.526   3.856  -0.041  0.00  0.00    -0.047 A 
ATOM     27  C   UNL     1       2.898   5.188  -0.001  0.00  0.00    +0.003 A 
ATOM     28  C   UNL     1       3.114   5.808   1.215  0.00  0.00    +0.000 A 
ATOM     29  C   UNL     1       2.959   5.097   2.391  0.00  0.00    +0.000 A 
ATOM     30  C   UNL     1       2.582   3.768   2.351  0.00  0.00    +0.004 A 
ATOM     31  C   UNL     1       2.371   3.146   1.134  0.00  0.00    -0.042 A 
ENDBRANCH  24  31
ENDBRANCH   1  24
BRANCH   4  32
ATOM     32  C   UNL     1      -1.607   4.251   2.758  0.00  0.00    +0.116 C 
BRANCH  32  33
ATOM     33  C   UNL     1      -0.736   5.489   2.983  0.00  0.00    +0.001 C 
BRANCH  33  34
ATOM     34  C   UNL     1      -1.489   6.489   3.862  0.00  0.00    -0.078 C 
BRANCH  34  37
ATOM     35  C   UNL     1      -1.423   8.755   4.714  0.00  0.00    -0.097 C 
ATOM     36  C   UNL     1       0.539   7.345   4.870  0.00  0.00    -0.097 C 
ATOM     37  N   UNL     1      -0.644   7.687   4.053  0.00  0.00    +0.376 N 
ATOM     38  H   UNL     1      -0.329   8.023   3.135  0.00  0.00    -0.083 HD
ENDBRANCH  34  37
ENDBRANCH  33  34
ENDBRANCH  32  33
ENDBRANCH   4  32
TORSDOF 8
