REMARK  Name = ZINC19296065
REMARK  11 active torsions:
REMARK  status: ('A' for Active; 'I' for Inactive)
REMARK    1  A    between atoms: C_1  and  C_2
REMARK    2  A    between atoms: C_2  and  C_3
REMARK    3  A    between atoms: C_3  and  C_5
REMARK    4  A    between atoms: C_3  and  C_6
REMARK    5  A    between atoms: C_9  and  C_12
REMARK    6  A    between atoms: C_12  and  C_14
REMARK    7  A    between atoms: C_12  and  N_17
REMARK    8  A    between atoms: C_14  and  C_15
REMARK    9  A    between atoms: C_14  and  C_16
REMARK   10  A    between atoms: C_18  and  C_20
REMARK   11  A    between atoms: C_20  and  N_21
REMARK                            x       y       z     vdW  Elec       q    Type
REMARK                         _______ _______ _______ _____ _____    ______ ____
ROOT
ATOM      1  C   UNL     1      -2.449   1.117   0.020  0.00  0.00    +0.106 C 
ENDROOT
BRANCH   1   5
ATOM      2  C   UNL     1      -5.549   3.533  -1.654  0.00  0.00    -0.045 A 
ATOM      3  C   UNL     1      -5.484   2.186  -1.955  0.00  0.00    +0.004 A 
ATOM      4  C   UNL     1      -4.481   1.404  -1.413  0.00  0.00    +0.006 A 
ATOM      5  C   UNL     1      -3.543   1.969  -0.571  0.00  0.00    -0.027 A 
ATOM      6  C   UNL     1      -3.610   3.316  -0.266  0.00  0.00    +0.006 A 
ATOM      7  C   UNL     1      -4.610   4.099  -0.812  0.00  0.00    +0.004 A 
BRANCH   2   8
ATOM      8  C   UNL     1      -6.642   4.386  -2.245  0.00  0.00    +0.016 C 
ATOM      9  C   UNL     1      -6.020   5.505  -3.083  0.00  0.00    +0.012 C 
BRANCH   8  11
ATOM     10  C   UNL     1      -8.660   5.760  -1.717  0.00  0.00    +0.004 C 
ATOM     11  C   UNL     1      -7.477   4.997  -1.118  0.00  0.00    +0.004 C 
ENDBRANCH   8  11
ENDBRANCH   2   8
ENDBRANCH   1   5
BRANCH   1  12
ATOM     12  N   UNL     1      -1.191   1.867   0.018  0.00  0.00    -0.307 N 
ATOM     13  C   UNL     1      -0.014   1.209   0.009  0.00  0.00    +0.231 C 
ATOM     14  O   UNL     1       0.002  -0.004   0.002  0.00  0.00    -0.274 OA
ATOM     15  H   UNL     1      -1.206   2.966   0.024  0.00  0.00    +0.149 HD
BRANCH  13  16
ATOM     16  C   UNL     1       1.280   1.980   0.001  0.00  0.00    +0.204 C 
BRANCH  16  17
ATOM     17  N   UNL     1       2.407   1.043  -0.015  0.00  0.00    -0.283 N 
ATOM     18  C   UNL     1       2.996   0.564   1.249  0.00  0.00    +0.178 C 
ATOM     19  S   UNL     1       3.992  -0.875   0.660  0.00  0.00    -0.132 S 
ATOM     20  C   UNL     1       4.076  -0.355  -1.109  0.00  0.00    +0.166 C 
ATOM     21  C   UNL     1       2.912   0.621  -1.167  0.00  0.00    +0.227 C 
ATOM     22  O   UNL     1       2.462   0.999  -2.228  0.00  0.00    -0.275 OA
ENDBRANCH  16  17
ENDBRANCH  13  16
ENDBRANCH   1  12
BRANCH   1  23
ATOM     23  C   UNL     1      -2.816   0.740   1.456  0.00  0.00    +0.008 C 
ATOM     24  C   UNL     1      -4.131  -0.043   1.458  0.00  0.00    +0.009 C 
ATOM     25  C   UNL     1      -1.706  -0.125   2.056  0.00  0.00    +0.009 C 
ENDBRANCH   1  23
TORSDOF 7
