REMARK  Name = ZINC04997239
REMARK  7 active torsions:
REMARK  status: ('A' for Active; 'I' for Inactive)
REMARK    1  A    between atoms: C_1  and  C_2
REMARK    2  A    between atoms: C_2  and  C_4
REMARK    3  A    between atoms: C_2  and  O_10
REMARK    4  A    between atoms: N_6  and  C_7
REMARK    5  A    between atoms: O_10  and  C_11
REMARK    6  A    between atoms: C_11  and  C_13
REMARK    7  A    between atoms: C_26  and  C_27
REMARK                            x       y       z     vdW  Elec       q    Type
REMARK                         _______ _______ _______ _____ _____    ______ ____
ROOT
ATOM      1  C   UNL     1      -7.325   1.679   0.468  0.00  0.00    +0.073 A 
ATOM      2  C   UNL     1      -7.639   0.250   0.490  0.00  0.00    +0.015 A 
ATOM      3  C   UNL     1      -8.954  -0.210   0.609  0.00  0.00    +0.011 A 
ATOM      4  C   UNL     1      -9.200  -1.552   0.624  0.00  0.00    +0.001 A 
ATOM      5  C   UNL     1      -8.156  -2.469   0.524  0.00  0.00    +0.002 A 
ATOM      6  C   UNL     1      -6.865  -2.055   0.407  0.00  0.00    +0.028 A 
ATOM      7  C   UNL     1      -6.572  -0.678   0.387  0.00  0.00    +0.072 A 
ATOM      8  N   UNL     1      -5.320  -0.243   0.273  0.00  0.00    -0.247 NA
ATOM      9  C   UNL     1      -5.002   1.047   0.249  0.00  0.00    +0.072 A 
ATOM     10  C   UNL     1      -5.990   2.040   0.346  0.00  0.00    -0.007 A 
ATOM     11  C   UNL     1      -5.349   3.405   0.293  0.00  0.00    +0.043 C 
ATOM     12  C   UNL     1      -3.839   3.167   0.159  0.00  0.00    +0.042 C 
ATOM     13  C   UNL     1      -3.668   1.668   0.129  0.00  0.00    -0.021 C 
ATOM     14  C   UNL     1      -2.500   1.011   0.019  0.00  0.00    +0.013 C 
ENDROOT
BRANCH  14  15
ATOM     15  C   UNL     1      -1.230   1.756   0.054  0.00  0.00    -0.025 A 
ATOM     16  C   UNL     1      -0.171   1.378  -0.775  0.00  0.00    +0.008 A 
ATOM     17  C   UNL     1       1.014   2.084  -0.741  0.00  0.00    +0.001 A 
ATOM     18  C   UNL     1       1.157   3.161   0.117  0.00  0.00    +0.000 A 
ATOM     19  C   UNL     1       0.114   3.538   0.946  0.00  0.00    +0.001 A 
ATOM     20  C   UNL     1      -1.076   2.841   0.922  0.00  0.00    +0.008 A 
ENDBRANCH  14  15
BRANCH   1  21
ATOM     21  C   UNL     1      -8.389   2.699   0.570  0.00  0.00    +0.341 C 
ATOM     22  O   UNL     1      -8.730   3.114   1.660  0.00  0.00    -0.245 OA
BRANCH  21  23
ATOM     23  O   UNL     1      -8.980   3.170  -0.545  0.00  0.00    -0.449 OA
BRANCH  23  25
ATOM     24  C   UNL     1      -9.389   5.566  -0.393  0.00  0.00    +0.062 C 
ATOM     25  C   UNL     1     -10.017   4.171  -0.368  0.00  0.00    +0.259 C 
BRANCH  25  26
ATOM     26  C   UNL     1     -11.023   4.054  -1.484  0.00  0.00    +0.254 C 
ATOM     27  O   UNL     1     -10.880   3.210  -2.343  0.00  0.00    -0.272 OA
ATOM     28  N   UNL     1     -12.082   4.887  -1.527  0.00  0.00    -0.309 N 
ATOM     29  H   UNL     1     -12.196   5.562  -0.840  0.00  0.00    +0.149 HD
BRANCH  28  30
ATOM     30  C   UNL     1     -13.060   4.773  -2.612  0.00  0.00    +0.073 C 
ATOM     31  C   UNL     1     -13.546   6.069  -3.264  0.00  0.00    +0.024 C 
ATOM     32  C   UNL     1     -14.478   5.280  -2.341  0.00  0.00    +0.024 C 
ENDBRANCH  28  30
ENDBRANCH  25  26
ENDBRANCH  23  25
ENDBRANCH  21  23
ENDBRANCH   1  21
TORSDOF 6
