REMARK  Name = ZINC16833026
REMARK  7 active torsions:
REMARK  status: ('A' for Active; 'I' for Inactive)
REMARK    1  A    between atoms: C_1  and  S_2
REMARK    2  A    between atoms: S_2  and  C_3
REMARK    3  A    between atoms: C_6  and  N_9
REMARK    4  A    between atoms: C_10  and  C_12
REMARK    5  A    between atoms: C_12  and  C_13
REMARK    6  A    between atoms: C_13  and  N_14
REMARK    7  A    between atoms: N_17  and  C_18
REMARK                            x       y       z     vdW  Elec       q    Type
REMARK                         _______ _______ _______ _____ _____    ______ ____
ROOT
ATOM      1  N   UNL     1       4.875   1.385   0.178  0.00  0.00    -0.299 N 
ATOM      2  C   UNL     1       6.009   2.114   0.176  0.00  0.00    +0.300 C 
ATOM      3  O   UNL     1       5.954   3.325   0.095  0.00  0.00    -0.253 OA
ATOM      4  N   UNL     1       7.205   1.498   0.265  0.00  0.00    -0.294 N 
ATOM      5  H   UNL     1       4.920   0.418   0.243  0.00  0.00    +0.150 HD
ATOM      6  H   UNL     1       7.250   0.532   0.330  0.00  0.00    +0.151 HD
ENDROOT
BRANCH   4   7
ATOM      7  C   UNL     1       8.438   2.290   0.263  0.00  0.00    +0.037 C 
ATOM      8  C   UNL     1       8.529   3.089  -1.038  0.00  0.00    +0.029 C 
ATOM      9  C   UNL     1       9.816   3.916  -1.040  0.00  0.00    -0.008 C 
ATOM     10  C   UNL     1      11.023   2.982  -0.930  0.00  0.00    +0.007 C 
ATOM     11  C   UNL     1      10.932   2.182   0.371  0.00  0.00    -0.008 C 
ATOM     12  C   UNL     1       9.645   1.356   0.373  0.00  0.00    +0.029 C 
ATOM     13  C   UNL     1      10.922   3.144   1.561  0.00  0.00    +0.007 C 
ATOM     14  C   UNL     1       9.716   4.079   1.451  0.00  0.00    -0.008 C 
ATOM     15  C   UNL     1       9.806   4.878   0.149  0.00  0.00    +0.007 C 
ATOM     16  C   UNL     1       8.428   3.252   1.453  0.00  0.00    +0.029 C 
ENDBRANCH   4   7
BRANCH   1  17
ATOM     17  C   UNL     1       3.575   2.054   0.082  0.00  0.00    +0.115 C 
BRANCH  17  18
ATOM     18  C   UNL     1       2.460   1.006   0.105  0.00  0.00    +0.115 C 
BRANCH  18  20
ATOM     19  N   UNL     1      -0.011   0.966   0.007  0.00  0.00    -0.285 N 
ATOM     20  C   UNL     1       1.123   1.694   0.006  0.00  0.00    +0.219 C 
ATOM     21  O   UNL     1       1.067   2.903  -0.076  0.00  0.00    -0.275 OA
ATOM     22  H   UNL     1       0.035  -0.003   0.005  0.00  0.00    +0.155 HD
BRANCH  19  26
ATOM     23  C   UNL     1      -3.718   2.878   0.006  0.00  0.00    +0.008 A 
ATOM     24  C   UNL     1      -2.649   3.434  -0.686  0.00  0.00    +0.016 A 
ATOM     25  C   UNL     1      -1.423   2.800  -0.686  0.00  0.00    +0.024 A 
ATOM     26  C   UNL     1      -1.257   1.609   0.007  0.00  0.00    +0.033 A 
ATOM     27  C   UNL     1      -2.326   1.050   0.695  0.00  0.00    +0.024 A 
ATOM     28  C   UNL     1      -3.551   1.685   0.699  0.00  0.00    +0.016 A 
BRANCH  23  30
ATOM     29  C   UNL     1      -6.334   2.608   1.020  0.00  0.00    +0.090 C 
ATOM     30  S   UNL     1      -5.284   3.686   0.007  0.00  0.00    -0.129 S 
ENDBRANCH  23  30
ENDBRANCH  19  26
ENDBRANCH  18  20
ENDBRANCH  17  18
ENDBRANCH   1  17
TORSDOF 6
