REMARK  Name = ZINC01158667
REMARK  7 active torsions:
REMARK  status: ('A' for Active; 'I' for Inactive)
REMARK    1  A    between atoms: C_1  and  C_2
REMARK    2  A    between atoms: C_5  and  N_9
REMARK    3  A    between atoms: C_6  and  C_8
REMARK    4  A    between atoms: C_10  and  C_12
REMARK    5  A    between atoms: C_13  and  C_30
REMARK    6  A    between atoms: C_18  and  C_20
REMARK    7  A    between atoms: C_24  and  N_26
REMARK                            x       y       z     vdW  Elec       q    Type
REMARK                         _______ _______ _______ _____ _____    ______ ____
ROOT
ATOM      1  C   UNL     1       2.296   0.779  -0.084  0.00  0.00    +0.056 C 
ATOM      2  C   UNL     1       1.995   2.054  -0.409  0.00  0.00    +0.017 C 
ATOM      3  N   UNL     1       0.707   2.504  -0.375  0.00  0.00    -0.300 N 
ATOM      4  C   UNL     1      -0.338   1.742  -0.027  0.00  0.00    +0.135 C 
ATOM      5  S   UNL     1      -1.905   2.431  -0.034  0.00  0.00    -0.019 S 
ATOM      6  N   UNL     1      -0.196   0.448   0.323  0.00  0.00    -0.315 N 
ATOM      7  C   UNL     1       1.157  -0.135   0.318  0.00  0.00    +0.139 C 
ATOM      8  C   UNL     1       3.099   2.996  -0.815  0.00  0.00    +0.061 C 
ATOM      9  H   UNL     1       0.538   3.428  -0.617  0.00  0.00    +0.154 HD
ATOM     10  H   UNL     1      -0.966  -0.087   0.571  0.00  0.00    +0.149 HD
ENDROOT
BRANCH   7  11
ATOM     11  C   UNL     1       1.152  -1.313  -0.621  0.00  0.00    -0.020 A 
ATOM     12  C   UNL     1       0.506  -1.223  -1.840  0.00  0.00    +0.007 A 
ATOM     13  C   UNL     1       0.501  -2.303  -2.702  0.00  0.00    +0.022 A 
ATOM     14  C   UNL     1       1.143  -3.475  -2.345  0.00  0.00    +0.071 A 
ATOM     15  C   UNL     1       1.789  -3.566  -1.125  0.00  0.00    +0.145 A 
ATOM     16  C   UNL     1       1.798  -2.482  -0.266  0.00  0.00    +0.040 A 
ATOM     17 CL   UNL     1       1.137  -4.833  -3.427  0.00  0.00    -0.081 Cl
BRANCH  15  18
ATOM     18  N   UNL     1       2.475  -4.820  -0.742  0.00  0.00    +0.058 N 
ATOM     19  O   UNL     1       2.960  -4.934   0.370  0.00  0.00    -0.126 OA
ATOM     20  O   UNL     1       2.555  -5.738  -1.538  0.00  0.00    -0.126 OA
ENDBRANCH  15  18
ENDBRANCH   7  11
BRANCH   1  22
ATOM     21  N   UNL     1       4.197  -0.029  -1.296  0.00  0.00    -0.281 N 
ATOM     22  C   UNL     1       3.633   0.310  -0.120  0.00  0.00    +0.248 C 
ATOM     23  O   UNL     1       4.271   0.214   0.912  0.00  0.00    -0.270 OA
ATOM     24  H   UNL     1       3.676   0.011  -2.113  0.00  0.00    +0.155 HD
BRANCH  21  29
ATOM     25  C   UNL     1       9.619  -1.686  -1.465  0.00  0.00    +0.044 C 
ATOM     26  C   UNL     1       8.179  -1.246  -1.420  0.00  0.00    -0.050 A 
ATOM     27  C   UNL     1       7.438  -1.427  -0.267  0.00  0.00    +0.005 A 
ATOM     28  C   UNL     1       6.119  -1.020  -0.220  0.00  0.00    +0.024 A 
ATOM     29  C   UNL     1       5.534  -0.438  -1.338  0.00  0.00    +0.037 A 
ATOM     30  C   UNL     1       6.281  -0.257  -2.494  0.00  0.00    -0.029 A 
ATOM     31  C   UNL     1       7.601  -0.662  -2.532  0.00  0.00    +0.008 A 
ATOM     32  C   UNL     1       5.652   0.380  -3.707  0.00  0.00    +0.045 C 
ENDBRANCH  21  29
ENDBRANCH   1  22
TORSDOF 4
