REMARK  Name = ZINC00055562
REMARK  6 active torsions:
REMARK  status: ('A' for Active; 'I' for Inactive)
REMARK    1  A    between atoms: C_1  and  C_2
REMARK    2  A    between atoms: C_5  and  S_8
REMARK    3  A    between atoms: S_8  and  C_9
REMARK    4  A    between atoms: C_10  and  C_21
REMARK    5  A    between atoms: C_17  and  C_20
REMARK    6  A    between atoms: N_22  and  O_23
REMARK                            x       y       z     vdW  Elec       q    Type
REMARK                         _______ _______ _______ _____ _____    ______ ____
ROOT
ATOM      1  C   UNL     1       0.228  -4.966   1.677  0.00  0.00    +0.118 A 
ATOM      2  C   UNL     1       0.394  -6.316   2.053  0.00  0.00    +0.093 A 
ATOM      3  C   UNL     1       0.521  -6.620   3.424  0.00  0.00    +0.268 A 
ATOM      4  O   UNL     1       0.667  -7.774   3.791  0.00  0.00    -0.266 OA
ATOM      5  N   UNL     1       0.480  -5.614   4.324  0.00  0.00    -0.267 N 
ATOM      6  C   UNL     1       0.602  -5.900   5.651  0.00  0.00    +0.096 A 
ATOM      7  C   UNL     1       0.564  -4.916   6.577  0.00  0.00    +0.019 A 
ATOM      8  C   UNL     1       0.397  -3.582   6.180  0.00  0.00    +0.008 A 
ATOM      9  C   UNL     1       0.274  -3.285   4.855  0.00  0.00    -0.008 A 
ATOM     10  C   UNL     1       0.317  -4.322   3.905  0.00  0.00    +0.144 A 
ATOM     11  N   UNL     1       0.201  -4.024   2.612  0.00  0.00    -0.222 NA
ATOM     12  C   UNL     1       0.094  -1.856   4.411  0.00  0.00    +0.047 C 
ENDROOT
BRANCH   2  13
ATOM     13  C   UNL     1       0.433  -7.377   1.041  0.00  0.00    +0.168 C 
ATOM     14  N   UNL     1       0.587  -8.614   1.403  0.00  0.00    -0.095 NA
BRANCH  14  15
ATOM     15  O   UNL     1       0.625  -9.639   0.427  0.00  0.00    -0.409 OA
ATOM     16  H   UNL     1       0.743 -10.526   0.792  0.00  0.00    +0.328 HD
ENDBRANCH  14  15
ENDBRANCH   2  13
BRANCH   1  17
ATOM     17  S   UNL     1       0.064  -4.533  -0.023  0.00  0.00    -0.069 S 
BRANCH  17  22
ATOM     18  C   UNL     1      -0.033   1.502   0.011  0.00  0.00    +0.044 C 
ATOM     19  C   UNL     1      -0.009  -0.004   0.002  0.00  0.00    -0.050 A 
ATOM     20  C   UNL     1       1.201  -0.675  -0.007  0.00  0.00    +0.004 A 
ATOM     21  C   UNL     1       1.227  -2.055  -0.015  0.00  0.00    +0.015 A 
ATOM     22  C   UNL     1       0.036  -2.771  -0.013  0.00  0.00    +0.014 A 
ATOM     23  C   UNL     1      -1.177  -2.094  -0.003  0.00  0.00    +0.015 A 
ATOM     24  C   UNL     1      -1.196  -0.714   0.010  0.00  0.00    +0.004 A 
ENDBRANCH  17  22
ENDBRANCH   1  17
TORSDOF 4
