REMARK  Name = ZINC35934810
REMARK  13 active torsions:
REMARK  status: ('A' for Active; 'I' for Inactive)
REMARK    1  A    between atoms: C_1  and  C_2
REMARK    2  A    between atoms: C_2  and  N_3
REMARK    3  A    between atoms: C_6  and  C_11
REMARK    4  A    between atoms: N_21  and  C_23
REMARK    5  A    between atoms: C_23  and  C_24
REMARK    6  A    between atoms: N_26  and  C_27
REMARK    7  A    between atoms: C_27  and  C_28
REMARK    8  A    between atoms: C_28  and  C_29
REMARK    9  A    between atoms: C_28  and  C_30
REMARK   10  A    between atoms: C_28  and  C_31
REMARK   11  A    between atoms: C_31  and  N_32
REMARK   12  A    between atoms: N_32  and  C_33
REMARK   13  A    between atoms: N_32  and  C_34
REMARK                            x       y       z     vdW  Elec       q    Type
REMARK                         _______ _______ _______ _____ _____    ______ ____
ROOT
ATOM      1  N   UNL     1       1.155   0.417   0.741  0.00  0.00    -0.257 N 
ATOM      2  C   UNL     1       0.392   0.219   1.856  0.00  0.00    +0.042 C 
ATOM      3  C   UNL     1      -0.953   0.152   1.779  0.00  0.00    +0.058 C 
ATOM      4  C   UNL     1      -1.589   0.304   0.412  0.00  0.00    +0.143 C 
ATOM      5  N   UNL     1      -0.680   0.514  -0.727  0.00  0.00    -0.288 N 
ATOM      6  C   UNL     1       0.646   0.563  -0.490  0.00  0.00    +0.307 C 
ATOM      7  O   UNL     1       1.404   0.740  -1.423  0.00  0.00    -0.252 OA
ATOM      8  C   UNL     1      -1.507  -0.057   3.059  0.00  0.00    +0.247 C 
ATOM      9  O   UNL     1      -2.699  -0.158   3.284  0.00  0.00    -0.270 OA
ATOM     10  N   UNL     1      -0.547  -0.132   3.998  0.00  0.00    -0.283 N 
ATOM     11  C   UNL     1       0.744   0.038   3.315  0.00  0.00    +0.160 C 
ATOM     12  H   UNL     1      -1.027   0.618  -1.627  0.00  0.00    +0.151 HD
ENDROOT
BRANCH   4  13
ATOM     13  C   UNL     1      -2.400  -0.937   0.137  0.00  0.00    -0.004 A 
ATOM     14  C   UNL     1      -1.843  -1.981  -0.579  0.00  0.00    +0.008 A 
ATOM     15  C   UNL     1      -2.586  -3.119  -0.832  0.00  0.00    +0.020 A 
ATOM     16  C   UNL     1      -3.887  -3.213  -0.369  0.00  0.00    +0.042 A 
ATOM     17  C   UNL     1      -4.444  -2.169   0.347  0.00  0.00    +0.040 A 
ATOM     18  C   UNL     1      -3.698  -1.033   0.604  0.00  0.00    +0.048 A 
ATOM     19 CL   UNL     1      -4.394   0.276   1.508  0.00  0.00    -0.083 Cl
ATOM     20 CL   UNL     1      -4.819  -4.643  -0.688  0.00  0.00    -0.083 Cl
ENDBRANCH   4  13
BRANCH   1  22
ATOM     21  C   UNL     1       3.033   1.928   1.159  0.00  0.00    +0.025 C 
ATOM     22  C   UNL     1       2.610   0.480   0.900  0.00  0.00    +0.111 C 
ENDBRANCH   1  22
BRANCH  10  23
ATOM     23  C   UNL     1      -0.750  -0.342   5.434  0.00  0.00    +0.204 C 
BRANCH  23  24
ATOM     24  C   UNL     1      -0.738  -1.819   5.732  0.00  0.00    +0.230 C 
ATOM     25  O   UNL     1      -0.575  -2.617   4.834  0.00  0.00    -0.274 OA
ATOM     26  N   UNL     1      -0.907  -2.252   6.997  0.00  0.00    -0.314 N 
ATOM     27  H   UNL     1      -1.036  -1.613   7.715  0.00  0.00    +0.149 HD
BRANCH  26  28
ATOM     28  C   UNL     1      -0.895  -3.688   7.287  0.00  0.00    +0.108 C 
BRANCH  28  29
ATOM     29  C   UNL     1      -1.107  -3.907   8.786  0.00  0.00    -0.034 C 
ATOM     30  C   UNL     1       0.016  -3.220   9.566  0.00  0.00    +0.010 C 
ATOM     31  C   UNL     1      -2.454  -3.314   9.203  0.00  0.00    +0.010 C 
BRANCH  29  32
ATOM     32  C   UNL     1      -1.094  -5.407   9.089  0.00  0.00    -0.072 C 
BRANCH  32  33
ATOM     33  N   UNL     1      -1.250  -5.616  10.534  0.00  0.00    +0.376 N 
ATOM     34  C   UNL     1      -2.679  -5.619  10.878  0.00  0.00    -0.097 C 
ATOM     35  C   UNL     1      -0.654  -6.905  10.910  0.00  0.00    -0.097 C 
ATOM     36  H   UNL     1      -0.786  -4.872  11.034  0.00  0.00    -0.083 HD
ENDBRANCH  32  33
ENDBRANCH  29  32
ENDBRANCH  28  29
ENDBRANCH  26  28
ENDBRANCH  23  24
ENDBRANCH  10  23
TORSDOF 8
