REMARK  Name = ZINC15256844
REMARK  5 active torsions:
REMARK  status: ('A' for Active; 'I' for Inactive)
REMARK    1  A    between atoms: C_1  and  C_2
REMARK    2  A    between atoms: C_15  and  C_17
REMARK    3  A    between atoms: C_17  and  N_18
REMARK    4  A    between atoms: N_18  and  C_19
REMARK    5  A    between atoms: N_18  and  C_20
REMARK                            x       y       z     vdW  Elec       q    Type
REMARK                         _______ _______ _______ _____ _____    ______ ____
ROOT
ATOM      1  C   UNL     1      -0.019   1.526   0.010  0.00  0.00    +0.029 C 
ATOM      2  C   UNL     1       0.002  -0.004   0.002  0.00  0.00    +0.087 C 
ATOM      3  C   UNL     1      -1.433  -0.532   0.009  0.00  0.00    +0.118 C 
ATOM      4  C   UNL     1      -1.448  -1.987   0.396  0.00  0.00    +0.219 C 
ATOM      5  O   UNL     1      -1.623  -2.835  -0.454  0.00  0.00    -0.275 OA
ATOM      6  N   UNL     1      -1.268  -2.354   1.683  0.00  0.00    -0.284 N 
ATOM      7  C   UNL     1      -0.970  -1.397   2.659  0.00  0.00    +0.055 A 
ATOM      8  C   UNL     1      -1.673  -1.354   3.851  0.00  0.00    +0.025 A 
ATOM      9  C   UNL     1      -1.345  -0.414   4.811  0.00  0.00    +0.002 A 
ATOM     10  C   UNL     1      -0.316   0.482   4.584  0.00  0.00    +0.002 A 
ATOM     11  C   UNL     1       0.385   0.452   3.393  0.00  0.00    +0.025 A 
ATOM     12  C   UNL     1       0.054  -0.479   2.422  0.00  0.00    +0.058 A 
ATOM     13  N   UNL     1       0.714  -0.487   1.187  0.00  0.00    -0.268 N 
ATOM     14  C   UNL     1       1.982  -0.932   1.091  0.00  0.00    +0.204 C 
ATOM     15  O   UNL     1       2.545  -0.934   0.017  0.00  0.00    -0.277 OA
ATOM     16  H   UNL     1      -1.347  -3.288   1.933  0.00  0.00    +0.155 HD
ENDROOT
BRANCH  14  17
ATOM     17  C   UNL     1       2.702  -1.427   2.320  0.00  0.00    +0.019 C 
BRANCH  17  18
ATOM     18  N   UNL     1       4.059  -1.853   1.954  0.00  0.00    +0.385 N 
ATOM     19  C   UNL     1       4.830  -0.690   1.494  0.00  0.00    -0.095 C 
ATOM     20  H   UNL     1       4.009  -2.537   1.214  0.00  0.00    -0.081 HD
BRANCH  18  21
ATOM     21  C   UNL     1       4.719  -2.445   3.125  0.00  0.00    -0.068 C 
ATOM     22  C   UNL     1       3.916  -3.656   3.604  0.00  0.00    -0.015 C 
ATOM     23  C   UNL     1       4.603  -4.273   4.824  0.00  0.00    -0.002 C 
ATOM     24  C   UNL     1       6.017  -4.717   4.443  0.00  0.00    -0.000 C 
ATOM     25  C   UNL     1       6.820  -3.506   3.964  0.00  0.00    -0.002 C 
ATOM     26  C   UNL     1       6.133  -2.889   2.744  0.00  0.00    -0.015 C 
ENDBRANCH  18  21
ENDBRANCH  17  18
ENDBRANCH  14  17
TORSDOF 3
