REMARK  Name = ZINC16432803
REMARK  16 active torsions:
REMARK  status: ('A' for Active; 'I' for Inactive)
REMARK    1  A    between atoms: C_1  and  C_2
REMARK    2  A    between atoms: C_2  and  C_3
REMARK    3  A    between atoms: C_3  and  C_4
REMARK    4  A    between atoms: C_4  and  N_5
REMARK    5  A    between atoms: N_5  and  C_6
REMARK    6  A    between atoms: C_6  and  C_7
REMARK    7  A    between atoms: N_9  and  C_10
REMARK    8  A    between atoms: C_12  and  C_22
REMARK    9  A    between atoms: N_14  and  C_15
REMARK   10  A    between atoms: C_20  and  C_21
REMARK   11  A    between atoms: C_22  and  C_23
REMARK   12  A    between atoms: C_22  and  C_24
REMARK   13  A    between atoms: C_22  and  C_25
REMARK   14  A    between atoms: N_28  and  C_29
REMARK   15  A    between atoms: C_30  and  C_36
REMARK   16  A    between atoms: C_34  and  C_35
REMARK                            x       y       z     vdW  Elec       q    Type
REMARK                         _______ _______ _______ _____ _____    ______ ____
ROOT
ATOM      1  C   UNL     1       5.085  -0.187   0.054  0.00  0.00    +0.236 C 
ATOM      2  O   UNL     1       5.354   0.963   0.328  0.00  0.00    -0.274 OA
ATOM      3  N   UNL     1       3.806  -0.544  -0.176  0.00  0.00    -0.269 N 
ATOM      4  H   UNL     1       3.591  -1.464  -0.395  0.00  0.00    +0.156 HD
ENDROOT
BRANCH   3   5
ATOM      5  C   UNL     1       2.792   0.410  -0.100  0.00  0.00    +0.129 A 
ATOM      6  C   UNL     1       2.958   1.749   0.083  0.00  0.00    +0.069 A 
ATOM      7  C   UNL     1       1.691   2.340   0.099  0.00  0.00    +0.071 A 
ATOM      8  N   UNL     1       0.794   1.403  -0.073  0.00  0.00    -0.169 NA
ATOM      9  N   UNL     1       1.455   0.174  -0.196  0.00  0.00    -0.218 N 
BRANCH   9  10
ATOM     10  C   UNL     1       0.849  -1.075  -0.390  0.00  0.00    +0.070 A 
ATOM     11  C   UNL     1       1.310  -1.925  -1.386  0.00  0.00    +0.028 A 
ATOM     12  C   UNL     1       0.710  -3.154  -1.575  0.00  0.00    +0.002 A 
ATOM     13  C   UNL     1      -0.352  -3.537  -0.777  0.00  0.00    +0.000 A 
ATOM     14  C   UNL     1      -0.810  -2.695   0.220  0.00  0.00    +0.005 A 
ATOM     15  C   UNL     1      -0.214  -1.464   0.413  0.00  0.00    -0.025 A 
ATOM     16  C   UNL     1      -0.718  -0.544   1.496  0.00  0.00    +0.046 C 
ENDBRANCH   9  10
BRANCH   7  17
ATOM     17  C   UNL     1       1.407   3.809   0.278  0.00  0.00    +0.006 C 
ATOM     18  C   UNL     1       1.744   4.555  -1.015  0.00  0.00    +0.017 C 
ATOM     19  C   UNL     1      -0.074   4.005   0.609  0.00  0.00    +0.017 C 
ATOM     20  C   UNL     1       2.262   4.358   1.421  0.00  0.00    +0.017 C 
ENDBRANCH   7  17
ENDBRANCH   3   5
BRANCH   1  21
ATOM     21  C   UNL     1       6.181  -1.218  -0.028  0.00  0.00    +0.205 C 
BRANCH  21  22
ATOM     22  N   UNL     1       7.470  -0.585   0.262  0.00  0.00    -0.277 N 
ATOM     23  C   UNL     1       7.925  -0.531   1.529  0.00  0.00    +0.307 C 
ATOM     24  O   UNL     1       7.265  -1.008   2.433  0.00  0.00    -0.252 OA
ATOM     25  N   UNL     1       9.110   0.051   1.796  0.00  0.00    -0.269 N 
ATOM     26  H   UNL     1       9.598   0.504   1.090  0.00  0.00    +0.156 HD
BRANCH  25  27
ATOM     27  C   UNL     1       9.638   0.004   3.091  0.00  0.00    +0.041 A 
ATOM     28  C   UNL     1       8.909   0.510   4.159  0.00  0.00    -0.029 A 
ATOM     29  C   UNL     1       9.430   0.457   5.436  0.00  0.00    +0.005 A 
ATOM     30  C   UNL     1      10.682  -0.090   5.652  0.00  0.00    +0.001 A 
ATOM     31  C   UNL     1      11.413  -0.590   4.590  0.00  0.00    +0.005 A 
ATOM     32  C   UNL     1      10.895  -0.545   3.310  0.00  0.00    -0.029 A 
ATOM     33  C   UNL     1      11.692  -1.090   2.154  0.00  0.00    +0.045 C 
ATOM     34  C   UNL     1       7.547   1.111   3.924  0.00  0.00    +0.045 C 
ENDBRANCH  25  27
BRANCH  22  35
ATOM     35  C   UNL     1       8.265  -0.011  -0.827  0.00  0.00    +0.110 C 
BRANCH  35  36
ATOM     36  C   UNL     1       7.878   1.457  -1.021  0.00  0.00    +0.019 C 
BRANCH  36  38
ATOM     37  C   UNL     1       8.320   3.524  -2.353  0.00  0.00    +0.004 C 
ATOM     38  C   UNL     1       8.708   2.057  -2.158  0.00  0.00    -0.002 C 
ENDBRANCH  36  38
ENDBRANCH  35  36
ENDBRANCH  22  35
ENDBRANCH  21  22
ENDBRANCH   1  21
TORSDOF 9
