REMARK  Name = ZINC00631023
REMARK  4 active torsions:
REMARK  status: ('A' for Active; 'I' for Inactive)
REMARK    1  A    between atoms: C_1  and  C_2
REMARK    2  A    between atoms: C_2  and  C_3
REMARK    3  A    between atoms: C_6  and  C_9
REMARK    4  A    between atoms: C_14  and  C_19
REMARK                            x       y       z     vdW  Elec       q    Type
REMARK                         _______ _______ _______ _____ _____    ______ ____
ROOT
ATOM      1  C   UNL     1      -5.419  -2.006   0.043  0.00  0.00    +0.136 C 
ATOM      2  C   UNL     1      -5.372  -3.515   0.037  0.00  0.00    +0.036 C 
ATOM      3  C   UNL     1      -5.703  -4.318   1.061  0.00  0.00    +0.017 C 
ATOM      4  C   UNL     1      -5.571  -5.826   0.928  0.00  0.00    +0.059 C 
ATOM      5  C   UNL     1      -5.855  -6.248  -0.512  0.00  0.00    +0.032 C 
ATOM      6  C   UNL     1      -4.834  -5.545  -1.415  0.00  0.00    +0.088 C 
ATOM      7  C   UNL     1      -4.935  -4.066  -1.190  0.00  0.00    +0.163 C 
ATOM      8  O   UNL     1      -4.630  -3.314  -2.095  0.00  0.00    -0.292 OA
ATOM      9  N   UNL     1      -6.154  -3.893   2.268  0.00  0.00    -0.316 N 
ATOM     10  C   UNL     1      -5.580  -2.868   3.012  0.00  0.00    +0.052 A 
ATOM     11  C   UNL     1      -5.044  -3.080   4.270  0.00  0.00    +0.025 A 
ATOM     12  C   UNL     1      -4.585  -1.999   5.004  0.00  0.00    +0.002 A 
ATOM     13  C   UNL     1      -4.662  -0.720   4.484  0.00  0.00    +0.002 A 
ATOM     14  C   UNL     1      -5.180  -0.509   3.217  0.00  0.00    +0.025 A 
ATOM     15  C   UNL     1      -5.624  -1.590   2.474  0.00  0.00    +0.049 A 
ATOM     16  N   UNL     1      -6.111  -1.433   1.178  0.00  0.00    -0.331 N 
ATOM     17  H   UNL     1      -6.933  -4.336   2.639  0.00  0.00    +0.152 HD
ATOM     18  H   UNL     1      -6.929  -0.930   1.034  0.00  0.00    +0.147 HD
ENDROOT
BRANCH   1  22
ATOM     19  C   UNL     1      -1.412  -0.526   0.013  0.00  0.00    -0.048 A 
ATOM     20  C   UNL     1      -2.242  -0.295  -1.068  0.00  0.00    +0.004 A 
ATOM     21  C   UNL     1      -3.537  -0.778  -1.060  0.00  0.00    +0.006 A 
ATOM     22  C   UNL     1      -4.005  -1.483   0.032  0.00  0.00    -0.023 A 
ATOM     23  C   UNL     1      -3.177  -1.710   1.115  0.00  0.00    +0.006 A 
ATOM     24  C   UNL     1      -1.880  -1.230   1.106  0.00  0.00    +0.004 A 
BRANCH  19  26
ATOM     25  C   UNL     1       0.931  -1.058  -0.602  0.00  0.00    +0.009 C 
ATOM     26  C   UNL     1       0.002  -0.003   0.002  0.00  0.00    +0.032 C 
ENDBRANCH  19  26
ENDBRANCH   1  22
BRANCH   5  27
ATOM     27  C   UNL     1      -5.710  -7.742  -0.645  0.00  0.00    -0.044 A 
ATOM     28  C   UNL     1      -4.500  -8.347  -0.363  0.00  0.00    +0.004 A 
ATOM     29  C   UNL     1      -4.369  -9.718  -0.480  0.00  0.00    +0.000 A 
ATOM     30  C   UNL     1      -5.445 -10.483  -0.889  0.00  0.00    +0.000 A 
ATOM     31  C   UNL     1      -6.654  -9.878  -1.176  0.00  0.00    +0.000 A 
ATOM     32  C   UNL     1      -6.787  -8.507  -1.054  0.00  0.00    +0.004 A 
ENDBRANCH   5  27
TORSDOF 3
