REMARK  Name = ZINC13958855
REMARK  3 active torsions:
REMARK  status: ('A' for Active; 'I' for Inactive)
REMARK    1  A    between atoms: C_3  and  C_11
REMARK    2  A    between atoms: C_6  and  N_7
REMARK    3  A    between atoms: C_16  and  C_19
REMARK                            x       y       z     vdW  Elec       q    Type
REMARK                         _______ _______ _______ _____ _____    ______ ____
ROOT
ATOM      1  C   UNL     1       3.655   2.162  -0.022  0.00  0.00    +0.251 C 
ATOM      2  O   UNL     1       4.715   1.567  -0.035  0.00  0.00    -0.270 OA
ATOM      3  N   UNL     1       3.640   3.510  -0.015  0.00  0.00    -0.261 N 
ATOM      4  C   UNL     1       4.834   4.218  -0.023  0.00  0.00    +0.165 A 
ATOM      5  N   UNL     1       5.031   5.524  -0.013  0.00  0.00    -0.225 NA
ATOM      6  C   UNL     1       6.253   6.035  -0.023  0.00  0.00    +0.082 A 
ATOM      7  C   UNL     1       7.331   5.194  -0.044  0.00  0.00    +0.077 A 
ATOM      8  S   UNL     1       6.513   3.605  -0.042  0.00  0.00    -0.060 S 
ATOM      9  H   UNL     1       2.794   3.985  -0.004  0.00  0.00    +0.157 HD
ENDROOT
BRANCH   6  10
ATOM     10  C   UNL     1       6.450   7.505  -0.011  0.00  0.00    +0.019 A 
ATOM     11  C   UNL     1       7.737   8.038  -0.028  0.00  0.00    +0.013 A 
ATOM     12  C   UNL     1       7.915   9.406  -0.018  0.00  0.00    +0.021 A 
ATOM     13  C   UNL     1       6.817  10.250   0.009  0.00  0.00    +0.042 A 
ATOM     14  C   UNL     1       5.536   9.726   0.026  0.00  0.00    +0.040 A 
ATOM     15  C   UNL     1       5.347   8.358   0.010  0.00  0.00    +0.052 A 
ATOM     16 CL   UNL     1       3.740   7.702   0.024  0.00  0.00    -0.083 Cl
ATOM     17 CL   UNL     1       7.049  11.970   0.022  0.00  0.00    -0.083 Cl
ENDBRANCH   6  10
BRANCH   1  20
ATOM     18  C   UNL     1      -0.017   1.380   0.010  0.00  0.00    +0.033 A 
ATOM     19  C   UNL     1       1.166   2.089   0.002  0.00  0.00    +0.017 A 
ATOM     20  C   UNL     1       2.385   1.409  -0.013  0.00  0.00    +0.055 A 
ATOM     21  C   UNL     1       2.397   0.011  -0.021  0.00  0.00    +0.055 A 
ATOM     22  C   UNL     1       1.205  -0.686  -0.013  0.00  0.00    +0.053 A 
ATOM     23  C   UNL     1       0.002  -0.004   0.002  0.00  0.00    +0.128 A 
ATOM     24 CL   UNL     1       3.907  -0.846  -0.040  0.00  0.00    -0.083 Cl
BRANCH  23  25
ATOM     25  N   UNL     1      -1.272  -0.758   0.010  0.00  0.00    +0.056 N 
ATOM     26  O   UNL     1      -2.325  -0.165   0.023  0.00  0.00    -0.126 OA
ATOM     27  O   UNL     1      -1.259  -1.967   0.004  0.00  0.00    -0.126 OA
ENDBRANCH  23  25
ENDBRANCH   1  20
TORSDOF 3
