REMARK  Name = ZINC04091831
REMARK  9 active torsions:
REMARK  status: ('A' for Active; 'I' for Inactive)
REMARK    1  A    between atoms: C_1  and  C_2
REMARK    2  A    between atoms: C_2  and  N_3
REMARK    3  A    between atoms: N_3  and  C_4
REMARK    4  A    between atoms: N_3  and  C_6
REMARK    5  A    between atoms: C_4  and  C_5
REMARK    6  A    between atoms: C_9  and  C_12
REMARK    7  A    between atoms: C_24  and  O_26
REMARK    8  A    between atoms: O_26  and  C_27
REMARK    9  A    between atoms: C_27  and  C_28
REMARK                            x       y       z     vdW  Elec       q    Type
REMARK                         _______ _______ _______ _____ _____    ______ ____
ROOT
ATOM      1  C   UNL     1       2.452   3.935  -0.000  0.00  0.00    +0.190 C 
ATOM      2  N   UNL     1       2.258   5.215   0.705  0.00  0.00    -0.316 N 
ATOM      3  C   UNL     1       2.344   5.180   2.073  0.00  0.00    +0.080 A 
ATOM      4  C   UNL     1       3.058   4.190   2.765  0.00  0.00    +0.068 A 
ATOM      5  C   UNL     1       3.040   4.292   4.217  0.00  0.00    -0.020 A 
ATOM      6  C   UNL     1       2.344   5.337   4.718  0.00  0.00    +0.013 A 
ATOM      7  S   UNL     1       1.704   6.187   3.300  0.00  0.00    -0.076 S 
ATOM      8  C   UNL     1       2.164   5.688   6.163  0.00  0.00    +0.153 C 
ATOM      9  N   UNL     1       2.686   4.557   6.955  0.00  0.00    -0.262 N 
ATOM     10  C   UNL     1       3.945   3.942   6.510  0.00  0.00    +0.116 C 
ATOM     11  C   UNL     1       3.744   3.301   5.136  0.00  0.00    +0.056 C 
ATOM     12  C   UNL     1       2.034   4.107   8.046  0.00  0.00    +0.403 C 
ATOM     13  O   UNL     1       2.486   3.174   8.681  0.00  0.00    -0.226 OA
ATOM     14  C   UNL     1       3.753   3.160   1.960  0.00  0.00    +0.248 C 
ATOM     15  O   UNL     1       4.531   2.375   2.469  0.00  0.00    -0.270 OA
ATOM     16  N   UNL     1       3.489   3.129   0.636  0.00  0.00    -0.289 N 
ATOM     17  H   UNL     1       2.079   6.039   0.226  0.00  0.00    +0.149 HD
ATOM     18  H   UNL     1       4.017   2.539   0.077  0.00  0.00    +0.151 HD
ENDROOT
BRANCH   1  22
ATOM     19  C   UNL     1      -1.224   1.755   0.017  0.00  0.00    +0.030 A 
ATOM     20  C   UNL     1      -0.013   1.076   0.008  0.00  0.00    +0.023 A 
ATOM     21  C   UNL     1       1.173   1.783   0.000  0.00  0.00    +0.009 A 
ATOM     22  C   UNL     1       1.156   3.166   0.008  0.00  0.00    -0.009 A 
ATOM     23  C   UNL     1      -0.049   3.845   0.024  0.00  0.00    +0.009 A 
ATOM     24  C   UNL     1      -1.239   3.144   0.031  0.00  0.00    +0.023 A 
BRANCH  19  25
ATOM     25  N   UNL     1      -2.426   1.042   0.019  0.00  0.00    -0.330 N 
BRANCH  25  27
ATOM     26  C   UNL     1      -4.154   2.018  -1.410  0.00  0.00    +0.024 C 
ATOM     27  C   UNL     1      -3.703   1.760   0.029  0.00  0.00    +0.102 C 
ENDBRANCH  25  27
BRANCH  25  28
ATOM     28  C   UNL     1      -2.409  -0.422   0.011  0.00  0.00    +0.102 C 
ATOM     29  C   UNL     1      -2.396  -0.940   1.451  0.00  0.00    +0.024 C 
ENDBRANCH  25  28
ENDBRANCH  19  25
ENDBRANCH   1  22
BRANCH  12  30
ATOM     30  O   UNL     1       0.883   4.689   8.431  0.00  0.00    -0.451 OA
BRANCH  30  31
ATOM     31  C   UNL     1       0.236   4.152   9.614  0.00  0.00    +0.230 C 
ATOM     32  C   UNL     1      -1.048   4.936   9.894  0.00  0.00    +0.048 C 
ENDBRANCH  30  31
ENDBRANCH  12  30
TORSDOF 6
