REMARK  Name = ZINC20758001
REMARK  14 active torsions:
REMARK  status: ('A' for Active; 'I' for Inactive)
REMARK    1  A    between atoms: C_1  and  C_2
REMARK    2  A    between atoms: C_2  and  N_3
REMARK    3  A    between atoms: N_3  and  C_4
REMARK    4  A    between atoms: N_3  and  C_6
REMARK    5  A    between atoms: C_4  and  C_5
REMARK    6  A    between atoms: C_6  and  C_7
REMARK    7  A    between atoms: C_7  and  C_8
REMARK    8  A    between atoms: C_8  and  N_9
REMARK    9  A    between atoms: C_10  and  C_12
REMARK   10  A    between atoms: C_13  and  C_35
REMARK   11  A    between atoms: N_19  and  C_22
REMARK   12  A    between atoms: C_22  and  C_23
REMARK   13  A    between atoms: C_27  and  C_34
REMARK   14  A    between atoms: C_30  and  C_33
REMARK                            x       y       z     vdW  Elec       q    Type
REMARK                         _______ _______ _______ _____ _____    ______ ____
ROOT
ATOM      1  C   UNL     1       4.835  -3.459   1.402  0.00  0.00    +0.079 A 
ATOM      2  C   UNL     1       3.596  -2.912   1.566  0.00  0.00    -0.017 A 
ATOM      3  C   UNL     1       2.868  -2.494   0.450  0.00  0.00    +0.076 A 
ATOM      4  C   UNL     1       3.498  -2.679  -0.802  0.00  0.00    +0.116 A 
ATOM      5  S   UNL     1       5.054  -3.417  -0.369  0.00  0.00    -0.064 S 
ATOM      6  N   UNL     1       2.914  -2.325  -1.939  0.00  0.00    -0.230 NA
ATOM      7  C   UNL     1       1.725  -1.787  -1.959  0.00  0.00    +0.203 A 
ATOM      8  N   UNL     1       1.022  -1.559  -0.822  0.00  0.00    -0.290 N 
ATOM      9  C   UNL     1       1.523  -1.876   0.388  0.00  0.00    +0.263 A 
ATOM     10  O   UNL     1       0.886  -1.663   1.404  0.00  0.00    -0.267 OA
ATOM     11  C   UNL     1       3.015  -2.759   2.948  0.00  0.00    +0.046 C 
ENDROOT
BRANCH   1  13
ATOM     12  N   UNL     1       6.952  -4.470   2.066  0.00  0.00    -0.311 N 
ATOM     13  C   UNL     1       5.758  -3.958   2.426  0.00  0.00    +0.251 C 
ATOM     14  O   UNL     1       5.446  -3.911   3.601  0.00  0.00    -0.270 OA
ATOM     15  H   UNL     1       7.234  -4.512   1.004  0.00  0.00    +0.149 HD
BRANCH  12  16
ATOM     16  C   UNL     1       7.874  -4.968   3.089  0.00  0.00    +0.102 C 
BRANCH  16  17
ATOM     17  C   UNL     1       9.146  -5.490   2.419  0.00  0.00    +0.000 C 
BRANCH  17  18
ATOM     18  C   UNL     1      10.109  -6.011   3.487  0.00  0.00    -0.077 C 
BRANCH  18  19
ATOM     19  N   UNL     1      11.331  -6.512   2.844  0.00  0.00    +0.379 N 
ATOM     20  H   UNL     1      11.033  -7.221   2.058  0.00  0.00    -0.082 HD
BRANCH  19  22
ATOM     21  C   UNL     1      12.488  -4.395   3.265  0.00  0.00    -0.017 C 
ATOM     22  C   UNL     1      12.076  -5.418   2.205  0.00  0.00    -0.082 C 
ENDBRANCH  19  22
BRANCH  19  23
ATOM     23  C   UNL     1      12.175  -7.233   3.805  0.00  0.00    -0.082 C 
ATOM     24  C   UNL     1      13.216  -8.062   3.050  0.00  0.00    -0.017 C 
ENDBRANCH  19  23
ENDBRANCH  18  19
ENDBRANCH  17  18
ENDBRANCH  16  17
ENDBRANCH  12  16
ENDBRANCH   1  13
BRANCH   8  25
ATOM     25  C   UNL     1      -0.308  -0.951  -0.910  0.00  0.00    +0.222 C 
BRANCH  25  26
ATOM     26  C   UNL     1      -1.348  -2.034  -1.043  0.00  0.00    +0.236 C 
ATOM     27  O   UNL     1      -1.011  -3.199  -1.062  0.00  0.00    -0.274 OA
ATOM     28  N   UNL     1      -2.651  -1.707  -1.147  0.00  0.00    -0.300 N 
ATOM     29  C   UNL     1      -3.075  -0.301  -1.119  0.00  0.00    +0.111 C 
ATOM     30  C   UNL     1      -3.933  -0.024  -2.363  0.00  0.00    +0.004 C 
ATOM     31  C   UNL     1      -5.088  -1.027  -2.412  0.00  0.00    +0.009 C 
ATOM     32  C   UNL     1      -4.528  -2.448  -2.519  0.00  0.00    +0.004 C 
ATOM     33  C   UNL     1      -3.676  -2.751  -1.283  0.00  0.00    +0.111 C 
ATOM     34  C   UNL     1      -3.662  -2.562  -3.776  0.00  0.00    +0.009 C 
ATOM     35  C   UNL     1      -4.494   1.397  -2.289  0.00  0.00    +0.009 C 
ENDBRANCH  25  26
ENDBRANCH   8  25
TORSDOF 9
