REMARK  Name = ZINC34835283
REMARK  15 active torsions:
REMARK  status: ('A' for Active; 'I' for Inactive)
REMARK    1  A    between atoms: C_1  and  C_2
REMARK    2  A    between atoms: C_2  and  N_3
REMARK    3  A    between atoms: N_6  and  C_9
REMARK    4  A    between atoms: C_10  and  C_21
REMARK    5  A    between atoms: C_11  and  C_20
REMARK    6  A    between atoms: N_13  and  C_14
REMARK    7  A    between atoms: C_21  and  N_22
REMARK    8  A    between atoms: N_22  and  C_23
REMARK    9  A    between atoms: N_22  and  S_28
REMARK   10  A    between atoms: C_23  and  C_24
REMARK   11  A    between atoms: C_24  and  C_25
REMARK   12  A    between atoms: C_25  and  O_26
REMARK   13  A    between atoms: O_26  and  C_27
REMARK   14  A    between atoms: S_28  and  C_31
REMARK   15  A    between atoms: C_32  and  C_33
REMARK                            x       y       z     vdW  Elec       q    Type
REMARK                         _______ _______ _______ _____ _____    ______ ____
ROOT
ATOM      1  C   UNL     1      -4.142  -2.759  -1.350  0.00  0.00    +0.129 A 
ATOM      2  C   UNL     1      -4.529  -4.024  -1.026  0.00  0.00    +0.031 A 
ATOM      3  C   UNL     1      -5.883  -4.154  -1.349  0.00  0.00    +0.067 A 
ATOM      4  N   UNL     1      -6.302  -3.018  -1.847  0.00  0.00    -0.170 NA
ATOM      5  N   UNL     1      -5.230  -2.116  -1.855  0.00  0.00    -0.218 N 
ATOM      6  C   UNL     1      -6.719  -5.393  -1.156  0.00  0.00    +0.068 C 
ENDROOT
BRANCH   1  10
ATOM      7  N   UNL     1      -0.082  -2.060  -1.055  0.00  0.00    +0.382 N 
ATOM      8  C   UNL     1      -0.730  -2.272  -2.356  0.00  0.00    -0.060 C 
ATOM      9  C   UNL     1      -2.134  -1.659  -2.332  0.00  0.00    +0.088 C 
ATOM     10  N   UNL     1      -2.869  -2.220  -1.188  0.00  0.00    -0.318 N 
ATOM     11  C   UNL     1      -2.220  -2.196   0.132  0.00  0.00    +0.088 C 
ATOM     12  C   UNL     1      -0.812  -2.784  -0.008  0.00  0.00    -0.060 C 
ATOM     13  H   UNL     1      -0.079  -1.074  -0.841  0.00  0.00    -0.082 HD
BRANCH   7  15
ATOM     14  C   UNL     1       2.098  -1.712  -2.117  0.00  0.00    -0.017 C 
ATOM     15  C   UNL     1       1.302  -2.550  -1.114  0.00  0.00    -0.082 C 
ENDBRANCH   7  15
ENDBRANCH   1  10
BRANCH   5  16
ATOM     16  C   UNL     1      -5.270  -0.790  -2.308  0.00  0.00    +0.067 A 
ATOM     17  C   UNL     1      -4.689   0.220  -1.553  0.00  0.00    +0.028 A 
ATOM     18  C   UNL     1      -4.730   1.526  -2.001  0.00  0.00    +0.002 A 
ATOM     19  C   UNL     1      -5.349   1.827  -3.200  0.00  0.00    +0.000 A 
ATOM     20  C   UNL     1      -5.929   0.824  -3.954  0.00  0.00    +0.002 A 
ATOM     21  C   UNL     1      -5.886  -0.485  -3.514  0.00  0.00    +0.028 A 
ENDBRANCH   5  16
BRANCH   2  22
ATOM     22  C   UNL     1      -3.653  -5.094  -0.428  0.00  0.00    +0.149 C 
BRANCH  22  23
ATOM     23  N   UNL     1      -4.103  -5.388   0.935  0.00  0.00    -0.173 NA
BRANCH  23  24
ATOM     24  S   UNL     1      -3.414  -4.605   2.222  0.00  0.00    +0.054 S 
ATOM     25  O   UNL     1      -3.619  -5.434   3.358  0.00  0.00    -0.153 OA
ATOM     26  O   UNL     1      -2.121  -4.193   1.802  0.00  0.00    -0.153 OA
BRANCH  24  27
ATOM     27  C   UNL     1      -4.346  -3.135   2.496  0.00  0.00    +0.153 C 
ATOM     28  C   UNL     1      -4.963  -2.948   3.655  0.00  0.00    +0.028 C 
BRANCH  28  29
ATOM     29  C   UNL     1      -5.744  -1.715   3.886  0.00  0.00    -0.024 A 
ATOM     30  C   UNL     1      -5.840  -0.748   2.884  0.00  0.00    +0.008 A 
ATOM     31  C   UNL     1      -6.571   0.400   3.105  0.00  0.00    +0.001 A 
ATOM     32  C   UNL     1      -7.208   0.595   4.318  0.00  0.00    +0.000 A 
ATOM     33  C   UNL     1      -7.117  -0.359   5.315  0.00  0.00    +0.001 A 
ATOM     34  C   UNL     1      -6.394  -1.515   5.104  0.00  0.00    +0.008 A 
ENDBRANCH  28  29
ENDBRANCH  24  27
ENDBRANCH  23  24
BRANCH  23  35
ATOM     35  C   UNL     1      -5.162  -6.375   1.159  0.00  0.00    +0.112 C 
BRANCH  35  36
ATOM     36  C   UNL     1      -4.551  -7.776   1.216  0.00  0.00    +0.045 C 
BRANCH  36  37
ATOM     37  C   UNL     1      -5.657  -8.806   1.451  0.00  0.00    +0.161 C 
BRANCH  37  38
ATOM     38  O   UNL     1      -5.085 -10.115   1.504  0.00  0.00    -0.383 OA
ATOM     39  C   UNL     1      -6.039 -11.157   1.720  0.00  0.00    +0.193 C 
ENDBRANCH  37  38
ENDBRANCH  36  37
ENDBRANCH  35  36
ENDBRANCH  23  35
ENDBRANCH  22  23
ENDBRANCH   2  22
TORSDOF 12
