REMARK  Name = ZINC29811963
REMARK  12 active torsions:
REMARK  status: ('A' for Active; 'I' for Inactive)
REMARK    1  A    between atoms: C_1  and  C_2
REMARK    2  A    between atoms: C_2  and  C_3
REMARK    3  A    between atoms: C_7  and  C_29
REMARK    4  A    between atoms: C_8  and  N_9
REMARK    5  A    between atoms: C_10  and  C_12
REMARK    6  A    between atoms: C_12  and  C_14
REMARK    7  A    between atoms: C_12  and  N_15
REMARK    8  A    between atoms: N_15  and  C_16
REMARK    9  A    between atoms: C_19  and  N_22
REMARK   10  A    between atoms: N_25  and  C_26
REMARK   11  A    between atoms: C_26  and  C_27
REMARK   12  A    between atoms: C_29  and  C_30
REMARK                            x       y       z     vdW  Elec       q    Type
REMARK                         _______ _______ _______ _____ _____    ______ ____
ROOT
ATOM      1  N   UNL     1       0.220   7.308   0.816  0.00  0.00    -0.333 N 
ATOM      2  H   UNL     1      -0.242   7.843   1.659  0.00  0.00    +0.147 HD
ENDROOT
BRANCH   1   3
ATOM      3  C   UNL     1       0.006   5.935   0.657  0.00  0.00    +0.028 A 
ATOM      4  C   UNL     1      -0.790   5.246   1.563  0.00  0.00    +0.025 A 
ATOM      5  C   UNL     1      -1.001   3.891   1.406  0.00  0.00    +0.025 A 
ATOM      6  C   UNL     1      -0.417   3.216   0.342  0.00  0.00    +0.035 A 
ATOM      7  C   UNL     1       0.383   3.903  -0.561  0.00  0.00    +0.025 A 
ATOM      8  C   UNL     1       0.590   5.259  -0.407  0.00  0.00    +0.025 A 
BRANCH   6   9
ATOM      9  N   UNL     1      -0.631   1.840   0.182  0.00  0.00    -0.269 N 
ATOM     10  C   UNL     1      -0.692   1.306  -1.054  0.00  0.00    +0.304 C 
ATOM     11  O   UNL     1      -0.658   2.029  -2.030  0.00  0.00    -0.253 OA
ATOM     12  N   UNL     1      -0.795  -0.029  -1.206  0.00  0.00    -0.296 N 
ATOM     13  H   UNL     1      -0.750   1.196   1.066  0.00  0.00    +0.156 HD
ATOM     14  H   UNL     1      -0.826  -0.683  -0.323  0.00  0.00    +0.151 HD
BRANCH  12  15
ATOM     15  C   UNL     1      -0.867  -0.610  -2.550  0.00  0.00    +0.132 C 
BRANCH  15  16
ATOM     16  C   UNL     1      -0.977  -2.109  -2.444  0.00  0.00    -0.016 C 
ATOM     17  C   UNL     1      -1.969  -2.735  -3.028  0.00  0.00    +0.005 C 
ENDBRANCH  15  16
ENDBRANCH  12  15
ENDBRANCH   6   9
ENDBRANCH   1   3
BRANCH   1  18
ATOM     18  C   UNL     1       1.060   8.034  -0.140  0.00  0.00    +0.154 C 
ATOM     19  C   UNL     1       2.528   7.907   0.271  0.00  0.00    +0.038 C 
BRANCH  18  21
ATOM     20  N   UNL     1       1.307  10.354  -0.961  0.00  0.00    -0.284 N 
ATOM     21  C   UNL     1       0.666   9.489  -0.151  0.00  0.00    +0.237 C 
ATOM     22  O   UNL     1      -0.229   9.880   0.568  0.00  0.00    -0.273 OA
ATOM     23  H   UNL     1       2.058   9.986  -1.675  0.00  0.00    +0.155 HD
BRANCH  20  29
ATOM     24  C   UNL     1      -0.268  12.175  -1.153  0.00  0.00    -0.026 A 
ATOM     25  C   UNL     1      -0.551  13.525  -1.079  0.00  0.00    +0.005 A 
ATOM     26  C   UNL     1       0.447  14.426  -0.757  0.00  0.00    +0.001 A 
ATOM     27  C   UNL     1       1.731  13.978  -0.503  0.00  0.00    +0.005 A 
ATOM     28  C   UNL     1       2.019  12.629  -0.569  0.00  0.00    -0.026 A 
ATOM     29  C   UNL     1       1.018  11.722  -0.892  0.00  0.00    +0.040 A 
BRANCH  24  31
ATOM     30  C   UNL     1      -2.345  11.085  -0.347  0.00  0.00    +0.009 C 
ATOM     31  C   UNL     1      -1.356  11.195  -1.509  0.00  0.00    +0.033 C 
ENDBRANCH  24  31
BRANCH  28  32
ATOM     32  C   UNL     1       3.418  12.142  -0.292  0.00  0.00    +0.033 C 
ATOM     33  C   UNL     1       4.178  11.997  -1.612  0.00  0.00    +0.009 C 
ENDBRANCH  28  32
ENDBRANCH  20  29
ENDBRANCH  18  21
ENDBRANCH   1  18
TORSDOF 9
