REMARK  Name = ZINC13611120
REMARK  4 active torsions:
REMARK  status: ('A' for Active; 'I' for Inactive)
REMARK    1  A    between atoms: C_1  and  C_2
REMARK    2  A    between atoms: C_5  and  N_8
REMARK    3  A    between atoms: C_12  and  C_16
REMARK    4  A    between atoms: C_17  and  C_33
REMARK                            x       y       z     vdW  Elec       q    Type
REMARK                         _______ _______ _______ _____ _____    ______ ____
ROOT
ATOM      1  C   UNL     1       1.443  -7.033   1.152  0.00  0.00    +0.051 A 
ATOM      2  C   UNL     1       1.554  -8.132   1.925  0.00  0.00    +0.039 A 
ATOM      3  N   UNL     1       2.881  -8.422   2.077  0.00  0.00    -0.292 N 
ATOM      4  H   UNL     1       3.247  -9.162   2.585  0.00  0.00    +0.187 HD
ATOM      5  N   UNL     1       3.620  -7.465   1.369  0.00  0.00    -0.186 N 
ATOM      6  C   UNL     1       2.745  -6.614   0.794  0.00  0.00    +0.278 A 
ATOM      7  O   UNL     1       3.026  -5.656   0.097  0.00  0.00    -0.265 OA
ATOM      8  C   UNL     1       4.998  -7.407   1.272  0.00  0.00    +0.232 A 
ATOM      9  N   UNL     1       5.863  -8.288   1.854  0.00  0.00    -0.322 N 
ATOM     10  H   UNL     1       5.624  -9.053   2.400  0.00  0.00    +0.169 HD
ATOM     11  C   UNL     1       7.146  -7.887   1.519  0.00  0.00    +0.068 A 
ATOM     12  C   UNL     1       8.412  -8.374   1.808  0.00  0.00    +0.028 A 
ATOM     13  C   UNL     1       9.525  -7.729   1.310  0.00  0.00    +0.002 A 
ATOM     14  C   UNL     1       9.387  -6.596   0.521  0.00  0.00    +0.002 A 
ATOM     15  C   UNL     1       8.138  -6.099   0.225  0.00  0.00    +0.030 A 
ATOM     16  C   UNL     1       7.000  -6.740   0.721  0.00  0.00    +0.091 A 
ATOM     17  N   UNL     1       5.668  -6.502   0.604  0.00  0.00    -0.211 NA
ATOM     18  C   UNL     1       0.409  -8.909   2.523  0.00  0.00    +0.065 C 
ENDROOT
BRANCH   1  23
ATOM     19  N   UNL     1       0.059  -4.172  -0.021  0.00  0.00    -0.210 N 
ATOM     20  C   UNL     1      -0.030  -4.892  -1.146  0.00  0.00    +0.227 C 
ATOM     21  O   UNL     1      -0.134  -4.436  -2.265  0.00  0.00    -0.275 OA
ATOM     22  C   UNL     1       0.020  -6.364  -0.801  0.00  0.00    +0.114 C 
ATOM     23  C   UNL     1       0.155  -6.371   0.735  0.00  0.00    +0.122 C 
ATOM     24  C   UNL     1       0.172  -4.902   1.096  0.00  0.00    +0.234 C 
ATOM     25  O   UNL     1       0.271  -4.455   2.219  0.00  0.00    -0.274 OA
BRANCH  19  30
ATOM     26  C   UNL     1      -0.017   1.503   0.009  0.00  0.00    +0.044 C 
ATOM     27  C   UNL     1       0.003  -0.004   0.001  0.00  0.00    -0.050 A 
ATOM     28  C   UNL     1       1.070  -0.677  -0.565  0.00  0.00    +0.005 A 
ATOM     29  C   UNL     1       1.091  -2.058  -0.574  0.00  0.00    +0.024 A 
ATOM     30  C   UNL     1       0.040  -2.771  -0.013  0.00  0.00    +0.044 A 
ATOM     31  C   UNL     1      -1.030  -2.092   0.555  0.00  0.00    +0.024 A 
ATOM     32  C   UNL     1      -1.043  -0.711   0.565  0.00  0.00    +0.005 A 
ENDBRANCH  19  30
ENDBRANCH   1  23
TORSDOF 2
