REMARK  Name = ZINC40917489
REMARK  11 active torsions:
REMARK  status: ('A' for Active; 'I' for Inactive)
REMARK    1  A    between atoms: C_1  and  C_2
REMARK    2  A    between atoms: C_2  and  C_3
REMARK    3  A    between atoms: C_3  and  O_4
REMARK    4  A    between atoms: O_4  and  C_5
REMARK    5  A    between atoms: C_8  and  C_12
REMARK    6  A    between atoms: C_12  and  N_13
REMARK    7  A    between atoms: N_13  and  C_14
REMARK    8  A    between atoms: C_18  and  C_27
REMARK    9  A    between atoms: C_27  and  C_28
REMARK   10  A    between atoms: C_27  and  C_29
REMARK   11  A    between atoms: C_27  and  C_30
REMARK                            x       y       z     vdW  Elec       q    Type
REMARK                         _______ _______ _______ _____ _____    ______ ____
ROOT
ATOM      1  C   UNL     1      -8.352  -4.690   1.534  0.00  0.00    +0.081 C 
ATOM      2  C   UNL     1      -8.917  -4.445   2.766  0.00  0.00    +0.058 C 
ATOM      3  C   UNL     1      -8.234  -3.589   3.759  0.00  0.00    +0.001 A 
ATOM      4  C   UNL     1      -7.003  -3.000   3.494  0.00  0.00    +0.013 A 
ATOM      5  C   UNL     1      -6.406  -2.208   4.454  0.00  0.00    -0.041 A 
ATOM      6  C   UNL     1      -7.024  -1.998   5.678  0.00  0.00    +0.005 A 
ATOM      7  C   UNL     1      -8.245  -2.573   5.958  0.00  0.00    +0.014 A 
ATOM      8  C   UNL     1      -8.866  -3.377   5.002  0.00  0.00    +0.045 A 
ATOM      9  C   UNL     1     -10.166  -4.008   5.260  0.00  0.00    +0.251 C 
ATOM     10  O   UNL     1     -10.716  -3.829   6.330  0.00  0.00    -0.270 OA
ATOM     11  N   UNL     1     -10.759  -4.780   4.335  0.00  0.00    -0.248 N 
ATOM     12  C   UNL     1     -10.217  -5.020   3.130  0.00  0.00    +0.252 C 
ATOM     13  O   UNL     1     -10.808  -5.726   2.333  0.00  0.00    -0.270 OA
ATOM     14  H   UNL     1     -11.618  -5.179   4.545  0.00  0.00    +0.158 HD
ENDROOT
BRANCH   5  15
ATOM     15  C   UNL     1      -5.072  -1.568   4.170  0.00  0.00    -0.013 C 
ATOM     16  C   UNL     1      -5.195  -0.650   2.953  0.00  0.00    +0.015 C 
ATOM     17  C   UNL     1      -4.631  -0.749   5.385  0.00  0.00    +0.015 C 
ATOM     18  C   UNL     1      -4.034  -2.656   3.885  0.00  0.00    +0.015 C 
ENDBRANCH   5  15
BRANCH   1  19
ATOM     19  N   UNL     1      -7.503  -3.784   0.983  0.00  0.00    -0.343 N 
ATOM     20  H   UNL     1      -7.372  -2.922   1.407  0.00  0.00    +0.146 HD
BRANCH  19  21
ATOM     21  C   UNL     1      -6.785  -4.110  -0.252  0.00  0.00    +0.154 C 
BRANCH  21  25
ATOM     22  C   UNL     1      -4.391  -0.771  -1.386  0.00  0.00    +0.183 A 
ATOM     23  C   UNL     1      -5.744  -0.695  -1.365  0.00  0.00    +0.133 A 
ATOM     24  N   UNL     1      -6.491  -1.770  -1.001  0.00  0.00    -0.360 N 
ATOM     25  C   UNL     1      -5.916  -2.945  -0.649  0.00  0.00    +0.037 A 
ATOM     26  C   UNL     1      -4.571  -3.084  -0.650  0.00  0.00    +0.077 A 
ATOM     27  C   UNL     1      -3.762  -1.990  -1.029  0.00  0.00    +0.223 A 
ATOM     28  O   UNL     1      -2.543  -2.091  -1.043  0.00  0.00    -0.284 OA
ATOM     29  H   UNL     1      -7.458  -1.694  -0.993  0.00  0.00    +0.165 HD
BRANCH  22  30
ATOM     30  O   UNL     1      -3.647   0.308  -1.750  0.00  0.00    -0.487 OA
BRANCH  30  31
ATOM     31  C   UNL     1      -4.356   1.500  -2.096  0.00  0.00    +0.229 C 
BRANCH  31  33
ATOM     32  C   UNL     1      -4.118   3.871  -2.845  0.00  0.00    +0.007 C 
ATOM     33  C   UNL     1      -3.358   2.596  -2.475  0.00  0.00    +0.038 C 
ENDBRANCH  31  33
ENDBRANCH  30  31
ENDBRANCH  22  30
ENDBRANCH  21  25
ENDBRANCH  19  21
ENDBRANCH   1  19
TORSDOF 7
