REMARK  Name = ZINC36208313
REMARK  17 active torsions:
REMARK  status: ('A' for Active; 'I' for Inactive)
REMARK    1  A    between atoms: C_1  and  C_2
REMARK    2  A    between atoms: C_2  and  N_3
REMARK    3  A    between atoms: N_3  and  C_4
REMARK    4  A    between atoms: N_3  and  C_6
REMARK    5  A    between atoms: C_4  and  C_5
REMARK    6  A    between atoms: C_7  and  C_17
REMARK    7  A    between atoms: C_8  and  C_11
REMARK    8  A    between atoms: C_17  and  N_18
REMARK    9  A    between atoms: N_18  and  C_19
REMARK   10  A    between atoms: N_18  and  C_26
REMARK   11  A    between atoms: C_19  and  C_20
REMARK   12  A    between atoms: C_26  and  C_27
REMARK   13  A    between atoms: C_27  and  C_29
REMARK   14  A    between atoms: C_27  and  O_38
REMARK   15  A    between atoms: C_29  and  O_30
REMARK   16  A    between atoms: O_30  and  C_31
REMARK   17  A    between atoms: C_31  and  C_32
REMARK                            x       y       z     vdW  Elec       q    Type
REMARK                         _______ _______ _______ _____ _____    ______ ____
ROOT
ATOM      1  N   UNL     1       2.865  -3.271   2.608  0.00  0.00    +0.387 N 
ATOM      2  H   UNL     1       2.797  -3.379   1.607  0.00  0.00    -0.081 HD
ENDROOT
BRANCH   1   3
ATOM      3  C   UNL     1       2.181  -2.037   3.014  0.00  0.00    -0.035 C 
BRANCH   3   5
ATOM      4  C   UNL     1       2.365  -0.491   0.991  0.00  0.00    +0.222 A 
ATOM      5  C   UNL     1       2.740  -0.873   2.238  0.00  0.00    +0.025 A 
ATOM      6  C   UNL     1       3.746   0.013   2.679  0.00  0.00    +0.117 A 
ATOM      7  N   UNL     1       3.960   0.889   1.726  0.00  0.00    -0.076 NA
ATOM      8  O   UNL     1       3.096   0.582   0.646  0.00  0.00    -0.339 OA
BRANCH   6   9
ATOM      9  C   UNL     1       4.439  -0.038   3.990  0.00  0.00    +0.004 A 
ATOM     10  C   UNL     1       3.711  -0.246   5.159  0.00  0.00    +0.010 A 
ATOM     11  C   UNL     1       4.361  -0.292   6.376  0.00  0.00    +0.001 A 
ATOM     12  C   UNL     1       5.734  -0.133   6.436  0.00  0.00    +0.000 A 
ATOM     13  C   UNL     1       6.462   0.073   5.278  0.00  0.00    +0.001 A 
ATOM     14  C   UNL     1       5.822   0.116   4.056  0.00  0.00    +0.010 A 
ENDBRANCH   6   9
BRANCH   4  15
ATOM     15  N   UNL     1       1.402  -1.103   0.209  0.00  0.00    -0.300 N 
BRANCH  15  17
ATOM     16  C   UNL     1      -0.797  -1.175   1.278  0.00  0.00    +0.024 C 
ATOM     17  C   UNL     1       0.043  -0.557   0.158  0.00  0.00    +0.104 C 
ENDBRANCH  15  17
BRANCH  15  18
ATOM     18  C   UNL     1       1.740  -2.298  -0.568  0.00  0.00    +0.104 C 
ATOM     19  C   UNL     1       2.338  -1.880  -1.913  0.00  0.00    +0.024 C 
ENDBRANCH  15  18
ENDBRANCH   4  15
ENDBRANCH   3   5
ENDBRANCH   1   3
BRANCH   1  20
ATOM     20  C   UNL     1       4.280  -3.197   2.997  0.00  0.00    -0.042 C 
BRANCH  20  21
ATOM     21  C   UNL     1       5.022  -4.375   2.420  0.00  0.00    -0.064 A 
ATOM     22  C   UNL     1       5.635  -5.285   3.260  0.00  0.00    +0.002 A 
ATOM     23  C   UNL     1       6.316  -6.366   2.730  0.00  0.00    +0.000 A 
ATOM     24  C   UNL     1       6.383  -6.536   1.360  0.00  0.00    +0.000 A 
ATOM     25  C   UNL     1       5.769  -5.626   0.519  0.00  0.00    +0.000 A 
ATOM     26  C   UNL     1       5.085  -4.548   1.050  0.00  0.00    +0.002 A 
ENDBRANCH  20  21
ENDBRANCH   1  20
BRANCH   1  27
ATOM     27  C   UNL     1       2.235  -4.421   3.269  0.00  0.00    -0.044 C 
BRANCH  27  28
ATOM     28  C   UNL     1       2.639  -5.709   2.547  0.00  0.00    +0.124 C 
BRANCH  28  29
ATOM     29  O   UNL     1       2.273  -5.617   1.169  0.00  0.00    -0.391 OA
ATOM     30  H   UNL     1       1.326  -5.493   1.021  0.00  0.00    +0.210 HD
ENDBRANCH  28  29
BRANCH  28  31
ATOM     31  C   UNL     1       1.922  -6.899   3.187  0.00  0.00    +0.189 C 
BRANCH  31  32
ATOM     32  O   UNL     1       2.387  -8.112   2.592  0.00  0.00    -0.373 OA
BRANCH  32  33
ATOM     33  C   UNL     1       1.777  -9.290   3.121  0.00  0.00    +0.195 C 
BRANCH  33  34
ATOM     34  C   UNL     1       2.338 -10.503   2.424  0.00  0.00    -0.022 A 
ATOM     35  C   UNL     1       1.736 -10.980   1.275  0.00  0.00    +0.006 A 
ATOM     36  C   UNL     1       2.251 -12.093   0.636  0.00  0.00    +0.000 A 
ATOM     37  C   UNL     1       3.368 -12.727   1.146  0.00  0.00    +0.000 A 
ATOM     38  C   UNL     1       3.971 -12.249   2.295  0.00  0.00    +0.000 A 
ATOM     39  C   UNL     1       3.458 -11.135   2.931  0.00  0.00    +0.006 A 
ENDBRANCH  33  34
ENDBRANCH  32  33
ENDBRANCH  31  32
ENDBRANCH  28  31
ENDBRANCH  27  28
ENDBRANCH   1  27
TORSDOF 15
