REMARK  Name = ZINC08985167
REMARK  6 active torsions:
REMARK  status: ('A' for Active; 'I' for Inactive)
REMARK    1  A    between atoms: C_1  and  C_2
REMARK    2  A    between atoms: C_2  and  C_4
REMARK    3  A    between atoms: C_2  and  S_11
REMARK    4  A    between atoms: N_9  and  C_10
REMARK    5  A    between atoms: S_11  and  C_12
REMARK    6  A    between atoms: C_20  and  C_22
REMARK                            x       y       z     vdW  Elec       q    Type
REMARK                         _______ _______ _______ _____ _____    ______ ____
ROOT
ATOM      1  C   UNL     1       2.338   3.931   0.001  0.00  0.00    +0.109 A 
ATOM      2  C   UNL     1       1.146   3.163   0.008  0.00  0.00    +0.032 A 
ATOM      3  C   UNL     1       1.165   1.765   0.000  0.00  0.00    +0.012 A 
ATOM      4  C   UNL     1      -0.013   1.076   0.008  0.00  0.00    +0.001 A 
ATOM      5  C   UNL     1      -1.232   1.746   0.017  0.00  0.00    +0.002 A 
ATOM      6  C   UNL     1      -1.286   3.108   0.030  0.00  0.00    +0.028 A 
ATOM      7  C   UNL     1      -0.094   3.847   0.023  0.00  0.00    +0.076 A 
ATOM      8  N   UNL     1      -0.093   5.187   0.030  0.00  0.00    -0.227 NA
ATOM      9  C   UNL     1       1.046   5.855   0.023  0.00  0.00    +0.161 A 
ATOM     10  N   UNL     1       2.234   5.253   0.009  0.00  0.00    -0.220 NA
ENDROOT
BRANCH   9  11
ATOM     11  C   UNL     1       1.002   7.337   0.031  0.00  0.00    +0.019 A 
ATOM     12  C   UNL     1      -0.225   7.999   0.040  0.00  0.00    +0.012 A 
ATOM     13  C   UNL     1      -0.261   9.379   0.051  0.00  0.00    +0.016 A 
ATOM     14  C   UNL     1       0.918  10.104   0.044  0.00  0.00    +0.018 A 
ATOM     15  C   UNL     1       2.138   9.451   0.031  0.00  0.00    +0.016 A 
ATOM     16  C   UNL     1       2.186   8.072   0.024  0.00  0.00    +0.012 A 
ATOM     17 BR   UNL     1       0.860  11.994   0.052  0.00  0.00    -0.050 Br
ENDBRANCH   9  11
BRANCH   1  18
ATOM     18  S   UNL     1       3.917   3.150  -0.017  0.00  0.00    -0.093 S 
BRANCH  18  20
ATOM     19  C   UNL     1       4.812   5.373   1.293  0.00  0.00    +0.029 C 
ATOM     20  C   UNL     1       4.990   4.607  -0.019  0.00  0.00    +0.136 C 
BRANCH  20  21
ATOM     21  C   UNL     1       6.426   4.174  -0.158  0.00  0.00    +0.233 C 
ATOM     22  O   UNL     1       6.745   3.036   0.112  0.00  0.00    -0.274 OA
ATOM     23  N   UNL     1       7.357   5.051  -0.584  0.00  0.00    -0.239 N 
ATOM     24  C   UNL     1       8.642   4.663  -0.708  0.00  0.00    +0.306 C 
ATOM     25  O   UNL     1       8.961   3.522  -0.436  0.00  0.00    -0.252 OA
ATOM     26  N   UNL     1       9.572   5.541  -1.133  0.00  0.00    -0.302 N 
ATOM     27  C   UNL     1      10.969   5.119  -1.268  0.00  0.00    +0.129 C 
ATOM     28  H   UNL     1       7.102   5.962  -0.800  0.00  0.00    +0.159 HD
ATOM     29  H   UNL     1       9.317   6.451  -1.349  0.00  0.00    +0.150 HD
ENDBRANCH  20  21
ENDBRANCH  18  20
ENDBRANCH   1  18
TORSDOF 4
