REMARK  Name = ZINC00745394
REMARK  10 active torsions:
REMARK  status: ('A' for Active; 'I' for Inactive)
REMARK    1  A    between atoms: C_1  and  C_2
REMARK    2  A    between atoms: C_2  and  C_3
REMARK    3  A    between atoms: C_3  and  N_4
REMARK    4  A    between atoms: N_4  and  C_5
REMARK    5  A    between atoms: C_5  and  C_6
REMARK    6  A    between atoms: N_8  and  C_9
REMARK    7  A    between atoms: C_11  and  C_20
REMARK    8  A    between atoms: N_13  and  C_14
REMARK    9  A    between atoms: N_28  and  C_29
REMARK   10  A    between atoms: C_34  and  C_35
REMARK                            x       y       z     vdW  Elec       q    Type
REMARK                         _______ _______ _______ _____ _____    ______ ____
ROOT
ATOM      1  C   UNL     1       3.083  -1.963  -0.026  0.00  0.00    +0.236 C 
ATOM      2  O   UNL     1       3.882  -1.050  -0.020  0.00  0.00    -0.274 OA
ATOM      3  N   UNL     1       1.761  -1.701  -0.010  0.00  0.00    -0.269 N 
ATOM      4  H   UNL     1       1.122  -2.430  -0.015  0.00  0.00    +0.156 HD
ENDROOT
BRANCH   3   5
ATOM      5  C   UNL     1       1.312  -0.381   0.013  0.00  0.00    +0.129 A 
ATOM      6  C   UNL     1       2.093   0.732   0.022  0.00  0.00    +0.074 A 
ATOM      7  C   UNL     1       1.243   1.854   0.046  0.00  0.00    +0.095 A 
ATOM      8  N   UNL     1      -0.003   1.426   0.051  0.00  0.00    -0.165 NA
ATOM      9  N   UNL     1       0.013   0.026   0.031  0.00  0.00    -0.218 N 
BRANCH   9  10
ATOM     10  C   UNL     1      -1.112  -0.809   0.030  0.00  0.00    +0.067 A 
ATOM     11  C   UNL     1      -1.092  -2.002  -0.681  0.00  0.00    +0.028 A 
ATOM     12  C   UNL     1      -2.200  -2.826  -0.675  0.00  0.00    +0.002 A 
ATOM     13  C   UNL     1      -3.333  -2.460   0.028  0.00  0.00    +0.000 A 
ATOM     14  C   UNL     1      -3.358  -1.270   0.732  0.00  0.00    +0.002 A 
ATOM     15  C   UNL     1      -2.251  -0.444   0.735  0.00  0.00    +0.028 A 
ENDBRANCH   9  10
BRANCH   7  16
ATOM     16  C   UNL     1       1.676   3.273   0.062  0.00  0.00    +0.002 A 
ATOM     17  C   UNL     1       3.033   3.590   0.059  0.00  0.00    +0.010 A 
ATOM     18  C   UNL     1       3.430   4.912   0.069  0.00  0.00    +0.001 A 
ATOM     19  C   UNL     1       2.484   5.921   0.093  0.00  0.00    +0.000 A 
ATOM     20  C   UNL     1       1.136   5.612   0.101  0.00  0.00    +0.001 A 
ATOM     21  C   UNL     1       0.727   4.293   0.086  0.00  0.00    +0.010 A 
ENDBRANCH   7  16
ENDBRANCH   3   5
BRANCH   1  22
ATOM     22  C   UNL     1       3.568  -3.389  -0.051  0.00  0.00    +0.205 C 
BRANCH  22  23
ATOM     23  N   UNL     1       5.033  -3.407  -0.065  0.00  0.00    -0.277 N 
ATOM     24  C   UNL     1       5.718  -3.432   1.096  0.00  0.00    +0.307 C 
ATOM     25  O   UNL     1       5.119  -3.440   2.155  0.00  0.00    -0.252 OA
ATOM     26  N   UNL     1       7.065  -3.448   1.083  0.00  0.00    -0.269 N 
ATOM     27  H   UNL     1       7.541  -3.524   0.242  0.00  0.00    +0.156 HD
BRANCH  26  28
ATOM     28  C   UNL     1       7.777  -3.355   2.284  0.00  0.00    +0.038 A 
ATOM     29  C   UNL     1       7.198  -2.749   3.392  0.00  0.00    +0.023 A 
ATOM     30  C   UNL     1       7.902  -2.664   4.577  0.00  0.00    +0.002 A 
ATOM     31  C   UNL     1       9.186  -3.171   4.659  0.00  0.00    +0.000 A 
ATOM     32  C   UNL     1       9.767  -3.769   3.557  0.00  0.00    +0.005 A 
ATOM     33  C   UNL     1       9.067  -3.863   2.370  0.00  0.00    -0.029 A 
ATOM     34  C   UNL     1       9.701  -4.515   1.169  0.00  0.00    +0.045 C 
ENDBRANCH  26  28
BRANCH  23  35
ATOM     35  C   UNL     1       5.754  -3.397  -1.340  0.00  0.00    +0.109 C 
BRANCH  35  37
ATOM     36  C   UNL     1       6.775  -1.942  -3.095  0.00  0.00    +0.005 C 
ATOM     37  C   UNL     1       6.022  -1.952  -1.764  0.00  0.00    +0.016 C 
ENDBRANCH  35  37
ENDBRANCH  23  35
ENDBRANCH  22  23
ENDBRANCH   1  22
TORSDOF 8
