REMARK  Name = ZINC43209070
REMARK  13 active torsions:
REMARK  status: ('A' for Active; 'I' for Inactive)
REMARK    1  A    between atoms: C_1  and  C_2
REMARK    2  A    between atoms: C_5  and  S_8
REMARK    3  A    between atoms: S_8  and  N_11
REMARK    4  A    between atoms: N_11  and  C_12
REMARK    5  A    between atoms: N_11  and  C_15
REMARK    6  A    between atoms: C_12  and  C_13
REMARK    7  A    between atoms: C_15  and  C_16
REMARK    8  A    between atoms: C_16  and  C_18
REMARK    9  A    between atoms: C_16  and  C_31
REMARK   10  A    between atoms: C_18  and  C_20
REMARK   11  A    between atoms: C_18  and  N_27
REMARK   12  A    between atoms: N_27  and  C_28
REMARK   13  A    between atoms: C_28  and  C_29
REMARK                            x       y       z     vdW  Elec       q    Type
REMARK                         _______ _______ _______ _____ _____    ______ ____
ROOT
ATOM      1  C   UNL     1       3.698  -4.634  -1.780  0.00  0.00    +0.108 C 
ENDROOT
BRANCH   1   2
ATOM      2  C   UNL     1       3.330  -3.225  -2.169  0.00  0.00    +0.359 C 
ATOM      3  O   UNL     1       2.162  -2.876  -2.161  0.00  0.00    -0.246 OA
ATOM      4  O   UNL     1       4.200  -2.434  -2.492  0.00  0.00    -0.246 OA
ENDBRANCH   1   2
BRANCH   1   5
ATOM      5  C   UNL     1       3.047  -4.980  -0.440  0.00  0.00    +0.123 C 
BRANCH   5   6
ATOM      6  N   UNL     1       3.643  -4.160   0.619  0.00  0.00    -0.172 NA
BRANCH   6   7
ATOM      7  S   UNL     1       5.213  -4.416   1.079  0.00  0.00    +0.061 S 
ATOM      8  O   UNL     1       5.662  -3.209   1.680  0.00  0.00    -0.153 OA
ATOM      9  O   UNL     1       5.872  -5.004  -0.034  0.00  0.00    -0.153 OA
BRANCH   7  14
ATOM     10  C   UNL     1       5.139  -8.587   5.438  0.00  0.00    +0.044 C 
ATOM     11  C   UNL     1       5.157  -7.546   4.349  0.00  0.00    -0.050 A 
ATOM     12  C   UNL     1       5.167  -7.933   3.022  0.00  0.00    +0.005 A 
ATOM     13  C   UNL     1       5.183  -6.977   2.024  0.00  0.00    +0.029 A 
ATOM     14  C   UNL     1       5.190  -5.634   2.352  0.00  0.00    +0.106 A 
ATOM     15  C   UNL     1       5.180  -5.247   3.679  0.00  0.00    +0.029 A 
ATOM     16  C   UNL     1       5.159  -6.203   4.678  0.00  0.00    +0.005 A 
ENDBRANCH   7  14
ENDBRANCH   6   7
BRANCH   6  17
ATOM     17  C   UNL     1       2.850  -3.114   1.269  0.00  0.00    +0.136 C 
BRANCH  17  18
ATOM     18  C   UNL     1       3.003  -1.822   0.510  0.00  0.00    -0.018 C 
ATOM     19  C   UNL     1       1.943  -1.188   0.073  0.00  0.00    +0.005 C 
ENDBRANCH  17  18
ENDBRANCH   6  17
ENDBRANCH   5   6
ENDBRANCH   1   5
BRANCH   1  20
ATOM     20  C   UNL     1       3.202  -5.605  -2.854  0.00  0.00    -0.025 C 
BRANCH  20  21
ATOM     21  C   UNL     1       1.698  -5.674  -2.812  0.00  0.00    -0.060 A 
ATOM     22  C   UNL     1       0.943  -4.685  -3.416  0.00  0.00    +0.003 A 
ATOM     23  C   UNL     1      -0.437  -4.748  -3.378  0.00  0.00    +0.015 A 
ATOM     24  C   UNL     1      -1.063  -5.802  -2.737  0.00  0.00    +0.018 A 
ATOM     25  C   UNL     1      -0.308  -6.791  -2.133  0.00  0.00    +0.015 A 
ATOM     26  C   UNL     1       1.072  -6.730  -2.176  0.00  0.00    +0.003 A 
ATOM     27 BR   UNL     1      -2.952  -5.889  -2.685  0.00  0.00    -0.050 Br
ENDBRANCH  20  21
BRANCH  20  28
ATOM     28  N   UNL     1       3.635  -5.135  -4.176  0.00  0.00    +0.386 N 
ATOM     29  H   UNL     1       3.269  -5.750  -4.888  0.00  0.00    -0.085 HD
ATOM     30  H   UNL     1       3.289  -4.199  -4.330  0.00  0.00    -0.085 HD
BRANCH  28  31
ATOM     31  C   UNL     1       5.102  -5.131  -4.239  0.00  0.00    -0.055 C 
BRANCH  31  32
ATOM     32  C   UNL     1       5.546  -4.619  -5.585  0.00  0.00    -0.054 C 
ATOM     33  C   UNL     1       6.373  -3.606  -5.660  0.00  0.00    +0.002 C 
ENDBRANCH  31  32
ENDBRANCH  28  31
ENDBRANCH  20  28
ENDBRANCH   1  20
TORSDOF 12
