REMARK  Name = ZINC39469602
REMARK  7 active torsions:
REMARK  status: ('A' for Active; 'I' for Inactive)
REMARK    1  A    between atoms: C_1  and  S_2
REMARK    2  A    between atoms: S_2  and  C_3
REMARK    3  A    between atoms: C_15  and  C_16
REMARK    4  A    between atoms: C_16  and  C_17
REMARK    5  A    between atoms: P_25  and  S_28
REMARK    6  A    between atoms: S_28  and  O_31
REMARK    7  A    between atoms: O_31  and  C_32
REMARK                            x       y       z     vdW  Elec       q    Type
REMARK                         _______ _______ _______ _____ _____    ______ ____
ROOT
ATOM      1  C   UNL     1       0.848  -0.411  -1.489  0.00  0.00    +0.007 C 
ATOM      2  C   UNL     1       1.301   0.558  -2.296  0.00  0.00    -0.010 C 
ATOM      3  C   UNL     1       2.011   0.187  -3.570  0.00  0.00    +0.005 C 
ATOM      4  C   UNL     1       1.936   1.325  -4.578  0.00  0.00    -0.046 C 
ATOM      5  N   UNL     1       0.541   1.617  -4.948  0.00  0.00    +0.398 N 
ATOM      6  C   UNL     1      -0.078   0.440  -5.562  0.00  0.00    -0.020 C 
ATOM      7  C   UNL     1      -0.063  -0.738  -4.581  0.00  0.00    -0.003 C 
ATOM      8  C   UNL     1       1.357  -1.057  -4.177  0.00  0.00    +0.016 C 
ATOM      9  C   UNL     1       1.303  -2.142  -3.128  0.00  0.00    -0.018 C 
ATOM     10  C   UNL     1       1.072  -1.823  -1.859  0.00  0.00    -0.034 C 
ATOM     11  C   UNL     1      -1.546   0.700  -5.925  0.00  0.00    +0.158 C 
ATOM     12  O   UNL     1      -1.622   1.768  -6.886  0.00  0.00    -0.301 OA
ATOM     13  P   UNL     1      -0.821   3.144  -6.550  0.00  0.00    +0.431 P 
ATOM     14  O   UNL     1      -1.602   3.977  -5.609  0.00  0.00    -0.246 OA
ATOM     15  N   UNL     1       0.599   2.658  -5.850  0.00  0.00    -0.271 NA
ATOM     16  H   UNL     1       1.440   3.093  -6.061  0.00  0.00    +0.113 HD
ATOM     17  H   UNL     1       0.024   1.901  -4.130  0.00  0.00    -0.055 HD
ENDROOT
BRANCH  13  18
ATOM     18  S   UNL     1      -0.430   4.221  -8.334  0.00  0.00    +0.209 S 
ATOM     19  O   UNL     1       0.137   5.463  -7.942  0.00  0.00    -0.126 OA
ATOM     20  O   UNL     1       0.235   3.323  -9.213  0.00  0.00    -0.126 OA
BRANCH  18  21
ATOM     21  O   UNL     1      -1.775   4.538  -8.972  0.00  0.00    -0.339 OA
BRANCH  21  22
ATOM     22  C   UNL     1      -2.460   5.534  -8.350  0.00  0.00    +0.157 A 
ATOM     23  C   UNL     1      -3.335   5.234  -7.316  0.00  0.00    +0.048 A 
ATOM     24  C   UNL     1      -4.030   6.248  -6.685  0.00  0.00    +0.004 A 
ATOM     25  C   UNL     1      -3.855   7.560  -7.084  0.00  0.00    +0.000 A 
ATOM     26  C   UNL     1      -2.984   7.861  -8.115  0.00  0.00    +0.004 A 
ATOM     27  C   UNL     1      -2.281   6.852  -8.745  0.00  0.00    +0.048 A 
ENDBRANCH  21  22
ENDBRANCH  18  21
ENDBRANCH  13  18
BRANCH   1  29
ATOM     28  C   UNL     1      -0.022   1.810   0.012  0.00  0.00    +0.090 C 
ATOM     29  S   UNL     1       0.002  -0.004   0.002  0.00  0.00    -0.129 S 
ENDBRANCH   1  29
BRANCH  10  30
ATOM     30  C   UNL     1       1.032  -2.896  -0.801  0.00  0.00    +0.071 C 
BRANCH  30  31
ATOM     31  C   UNL     1       2.385  -3.006  -0.145  0.00  0.00    -0.043 A 
ATOM     32  C   UNL     1       3.336  -3.865  -0.662  0.00  0.00    +0.004 A 
ATOM     33  C   UNL     1       4.576  -3.965  -0.060  0.00  0.00    +0.000 A 
ATOM     34  C   UNL     1       4.865  -3.205   1.058  0.00  0.00    +0.000 A 
ATOM     35  C   UNL     1       3.914  -2.345   1.574  0.00  0.00    +0.000 A 
ATOM     36  C   UNL     1       2.675  -2.242   0.970  0.00  0.00    +0.004 A 
ENDBRANCH  30  31
ENDBRANCH  10  30
TORSDOF 6
