REMARK  Name = ZINC35675611
REMARK  3 active torsions:
REMARK  status: ('A' for Active; 'I' for Inactive)
REMARK    1  A    between atoms: C_3  and  N_9
REMARK    2  A    between atoms: N_9  and  C_10
REMARK    3  A    between atoms: C_13  and  N_19
REMARK                            x       y       z     vdW  Elec       q    Type
REMARK                         _______ _______ _______ _____ _____    ______ ____
ROOT
ATOM      1  C   UNL     1       3.511   3.518  -0.106  0.00  0.00    +0.063 A 
ATOM      2  C   UNL     1       2.305   4.146  -0.078  0.00  0.00    +0.027 A 
ATOM      3  C   UNL     1       2.181   5.533  -0.159  0.00  0.00    +0.027 A 
ATOM      4  C   UNL     1       3.257   6.356  -0.272  0.00  0.00    +0.056 A 
ATOM      5  C   UNL     1       4.605   5.782  -0.311  0.00  0.00    +0.157 A 
ATOM      6  C   UNL     1       4.737   4.314  -0.219  0.00  0.00    +0.157 A 
ATOM      7  N   UNL     1       6.012   4.016  -0.266  0.00  0.00    -0.047 NA
ATOM      8  O   UNL     1       6.740   5.226  -0.380  0.00  0.00    -0.241 OA
ATOM      9  N   UNL     1       5.808   6.294  -0.410  0.00  0.00    -0.047 NA
ENDROOT
BRANCH   4  10
ATOM     10  N   UNL     1       3.079   7.740  -0.351  0.00  0.00    -0.356 N 
ATOM     11  H   UNL     1       2.186   8.116  -0.325  0.00  0.00    +0.142 HD
ATOM     12  H   UNL     1       3.850   8.324  -0.431  0.00  0.00    +0.142 HD
ENDBRANCH   4  10
BRANCH   1  13
ATOM     13  N   UNL     1       3.582   2.126  -0.021  0.00  0.00    -0.312 N 
ATOM     14  H   UNL     1       4.435   1.676  -0.125  0.00  0.00    +0.152 HD
BRANCH  13  17
ATOM     15  C   UNL     1       0.364   1.061   1.399  0.00  0.00    +0.003 A 
ATOM     16  C   UNL     1       1.508   1.800   1.170  0.00  0.00    +0.025 A 
ATOM     17  C   UNL     1       2.424   1.380   0.213  0.00  0.00    +0.051 A 
ATOM     18  C   UNL     1       2.185   0.217  -0.511  0.00  0.00    +0.080 A 
ATOM     19  C   UNL     1       1.038  -0.517  -0.276  0.00  0.00    +0.061 A 
ATOM     20  C   UNL     1       0.128  -0.095   0.679  0.00  0.00    +0.021 A 
ATOM     21 CL   UNL     1       0.737  -1.969  -1.179  0.00  0.00    -0.082 Cl
ATOM     22 CL   UNL     1       3.326  -0.311  -1.708  0.00  0.00    -0.080 Cl
ENDBRANCH  13  17
ENDBRANCH   1  13
TORSDOF 3
