REMARK  Name = ZINC35399271
REMARK  4 active torsions:
REMARK  status: ('A' for Active; 'I' for Inactive)
REMARK    1  A    between atoms: C_1  and  C_2
REMARK    2  A    between atoms: N_12  and  S_15
REMARK    3  A    between atoms: S_15  and  C_18
REMARK    4  A    between atoms: C_23  and  C_24
REMARK                            x       y       z     vdW  Elec       q    Type
REMARK                         _______ _______ _______ _____ _____    ______ ____
ROOT
ATOM      1  C   UNL     1       1.400   1.270   0.463  0.00  0.00    +0.044 C 
ATOM      2  C   UNL     1       1.192  -0.221   0.396  0.00  0.00    -0.049 A 
ATOM      3  C   UNL     1       1.197  -0.861  -0.830  0.00  0.00    +0.005 A 
ATOM      4  C   UNL     1       0.995  -2.229  -0.900  0.00  0.00    +0.028 A 
ATOM      5  C   UNL     1       0.789  -2.952   0.258  0.00  0.00    +0.067 A 
ATOM      6  C   UNL     1       0.808  -2.312   1.503  0.00  0.00    +0.052 A 
ATOM      7  C   UNL     1       1.004  -0.941   1.561  0.00  0.00    +0.028 A 
ATOM      8  N   UNL     1       0.667  -3.060   2.678  0.00  0.00    -0.331 N 
ATOM      9  C   UNL     1      -0.104  -4.310   2.673  0.00  0.00    +0.075 C 
ATOM     10  C   UNL     1      -1.594  -3.995   2.806  0.00  0.00    +0.049 C 
ATOM     11  C   UNL     1      -1.839  -3.244   4.119  0.00  0.00    +0.112 C 
ATOM     12  N   UNL     1      -1.283  -4.034   5.226  0.00  0.00    -0.176 NA
ATOM     13  C   UNL     1       0.122  -4.458   5.155  0.00  0.00    +0.112 C 
ATOM     14  C   UNL     1       0.347  -5.197   3.832  0.00  0.00    +0.049 C 
ATOM     15  C   UNL     1       0.152  -5.013   1.363  0.00  0.00    +0.047 A 
ATOM     16  N   UNL     1       0.559  -4.336   0.235  0.00  0.00    -0.316 N 
ATOM     17  C   UNL     1       0.680  -5.222  -0.782  0.00  0.00    +0.092 A 
ATOM     18  C   UNL     1       0.376  -6.451  -0.308  0.00  0.00    +0.020 A 
ATOM     19  C   UNL     1       0.046  -6.311   1.058  0.00  0.00    +0.025 A 
ATOM     20  H   UNL     1       1.082  -2.751   3.499  0.00  0.00    +0.147 HD
ENDROOT
BRANCH  12  21
ATOM     21  S   UNL     1      -2.222  -4.438   6.529  0.00  0.00    +0.061 S 
ATOM     22  O   UNL     1      -1.343  -4.572   7.637  0.00  0.00    -0.153 OA
ATOM     23  O   UNL     1      -3.321  -3.538   6.532  0.00  0.00    -0.153 OA
BRANCH  21  24
ATOM     24  C   UNL     1      -2.885  -6.040   6.216  0.00  0.00    +0.108 A 
ATOM     25  C   UNL     1      -2.480  -7.118   6.982  0.00  0.00    +0.029 A 
ATOM     26  C   UNL     1      -3.000  -8.375   6.737  0.00  0.00    +0.002 A 
ATOM     27  C   UNL     1      -3.926  -8.554   5.726  0.00  0.00    +0.000 A 
ATOM     28  C   UNL     1      -4.331  -7.477   4.960  0.00  0.00    +0.005 A 
ATOM     29  C   UNL     1      -3.814  -6.219   5.209  0.00  0.00    -0.024 A 
ATOM     30  C   UNL     1      -4.260  -5.044   4.378  0.00  0.00    +0.046 C 
ENDBRANCH  21  24
ENDBRANCH  12  21
TORSDOF 2
