REMARK  Name = ZINC05739663
REMARK  9 active torsions:
REMARK  status: ('A' for Active; 'I' for Inactive)
REMARK    1  A    between atoms: C_1  and  C_2
REMARK    2  A    between atoms: C_4  and  C_16
REMARK    3  A    between atoms: C_5  and  C_15
REMARK    4  A    between atoms: N_6  and  C_7
REMARK    5  A    between atoms: N_17  and  N_18
REMARK    6  A    between atoms: C_19  and  C_21
REMARK    7  A    between atoms: C_21  and  C_22
REMARK    8  A    between atoms: C_22  and  C_23
REMARK    9  A    between atoms: C_22  and  C_24
REMARK                            x       y       z     vdW  Elec       q    Type
REMARK                         _______ _______ _______ _____ _____    ______ ____
ROOT
ATOM      1  C   UNL     1      -2.112  -0.041   2.314  0.00  0.00    +0.064 C 
ATOM      2  C   UNL     1      -2.857   0.227   1.031  0.00  0.00    +0.022 A 
ATOM      3  C   UNL     1      -4.051  -0.295   0.695  0.00  0.00    +0.032 A 
ATOM      4  C   UNL     1      -4.383   0.239  -0.629  0.00  0.00    +0.016 A 
ATOM      5  C   UNL     1      -3.348   1.055  -0.984  0.00  0.00    +0.030 A 
ATOM      6  N   UNL     1      -2.429   1.039   0.019  0.00  0.00    -0.317 N 
ATOM      7  C   UNL     1      -3.240   1.837  -2.268  0.00  0.00    +0.064 C 
ENDROOT
BRANCH   6   8
ATOM      8  C   UNL     1      -1.224   1.754   0.017  0.00  0.00    +0.049 A 
ATOM      9  C   UNL     1      -0.013   1.076   0.008  0.00  0.00    +0.046 A 
ATOM     10  C   UNL     1       1.175   1.784   0.000  0.00  0.00    +0.044 A 
ATOM     11  C   UNL     1       1.157   3.167   0.007  0.00  0.00    +0.040 A 
ATOM     12  C   UNL     1      -0.049   3.846   0.021  0.00  0.00    +0.044 A 
ATOM     13  C   UNL     1      -1.239   3.142   0.029  0.00  0.00    +0.046 A 
ATOM     14 CL   UNL     1      -0.068   5.582   0.029  0.00  0.00    -0.083 Cl
ATOM     15 CL   UNL     1       2.690   0.936  -0.018  0.00  0.00    -0.083 Cl
ENDBRANCH   6   8
BRANCH   4  16
ATOM     16  C   UNL     1      -5.596  -0.044  -1.417  0.00  0.00    +0.140 C 
ATOM     17  N   UNL     1      -5.756   0.504  -2.582  0.00  0.00    -0.188 NA
BRANCH  17  18
ATOM     18  N   UNL     1      -6.909   0.235  -3.331  0.00  0.00    -0.207 N 
ATOM     19  C   UNL     1      -7.075   0.805  -4.541  0.00  0.00    +0.232 C 
ATOM     20  O   UNL     1      -6.226   1.551  -4.982  0.00  0.00    -0.274 OA
ATOM     21  H   UNL     1      -7.588  -0.361  -2.979  0.00  0.00    +0.177 HD
BRANCH  19  22
ATOM     22  C   UNL     1      -8.316   0.516  -5.347  0.00  0.00    +0.100 C 
BRANCH  22  23
ATOM     23  C   UNL     1      -8.255   1.282  -6.670  0.00  0.00    -0.008 C 
ATOM     24  C   UNL     1      -7.092   0.753  -7.512  0.00  0.00    +0.008 C 
ATOM     25  C   UNL     1      -9.567   1.088  -7.432  0.00  0.00    +0.008 C 
ENDBRANCH  22  23
ENDBRANCH  19  22
ENDBRANCH  17  18
ENDBRANCH   4  16
TORSDOF 5
