REMARK  Name = ZINC50362135
REMARK  8 active torsions:
REMARK  status: ('A' for Active; 'I' for Inactive)
REMARK    1  A    between atoms: C_1  and  C_2
REMARK    2  A    between atoms: C_2  and  C_3
REMARK    3  A    between atoms: C_2  and  C_4
REMARK    4  A    between atoms: C_2  and  N_5
REMARK    5  A    between atoms: N_8  and  C_11
REMARK    6  A    between atoms: C_11  and  C_13
REMARK    7  A    between atoms: C_11  and  C_15
REMARK    8  A    between atoms: C_13  and  N_14
REMARK                            x       y       z     vdW  Elec       q    Type
REMARK                         _______ _______ _______ _____ _____    ______ ____
ROOT
ATOM      1  C   UNL     1       2.767  -0.442  -4.888  0.00  0.00    +0.105 C 
ENDROOT
BRANCH   1   5
ATOM      2  N   UNL     1       0.062  -0.596  -1.643  0.00  0.00    +0.385 N 
ATOM      3  C   UNL     1      -0.472  -0.277  -2.973  0.00  0.00    -0.062 C 
ATOM      4  C   UNL     1       0.516  -0.740  -4.045  0.00  0.00    +0.066 C 
ATOM      5  N   UNL     1       1.806  -0.066  -3.842  0.00  0.00    -0.298 NA
ATOM      6  C   UNL     1       2.342  -0.356  -2.505  0.00  0.00    +0.066 C 
ATOM      7  C   UNL     1       1.339   0.104  -1.446  0.00  0.00    -0.062 C 
ATOM      8  H   UNL     1       0.210  -1.591  -1.570  0.00  0.00    -0.081 HD
BRANCH   2  10
ATOM      9  C   UNL     1      -1.119   1.342  -0.724  0.00  0.00    -0.010 C 
ATOM     10  C   UNL     1      -0.895  -0.167  -0.615  0.00  0.00    -0.074 C 
ATOM     11  C   UNL     1      -0.339  -0.501   0.771  0.00  0.00    -0.010 C 
ATOM     12  C   UNL     1      -2.224  -0.896  -0.820  0.00  0.00    -0.010 C 
ENDBRANCH   2  10
ENDBRANCH   1   5
BRANCH   1  13
ATOM     13  C   UNL     1       2.994  -1.931  -4.849  0.00  0.00    +0.123 A 
ATOM     14  C   UNL     1       2.967  -2.758  -5.910  0.00  0.00    +0.062 A 
ATOM     15  C   UNL     1       3.230  -4.059  -5.422  0.00  0.00    +0.070 A 
ATOM     16  C   UNL     1       3.401  -3.949  -4.091  0.00  0.00    +0.184 A 
ATOM     17  O   UNL     1       3.262  -2.657  -3.751  0.00  0.00    -0.450 OA
ATOM     18 BR   UNL     1       3.780  -5.371  -2.903  0.00  0.00    -0.007 Br
ATOM     19 BR   UNL     1       3.322  -5.649  -6.443  0.00  0.00    -0.046 Br
ENDBRANCH   1  13
BRANCH   1  20
ATOM     20  C   UNL     1       4.093   0.282  -4.646  0.00  0.00    -0.059 C 
BRANCH  20  21
ATOM     21  N   UNL     1       3.854   1.729  -4.564  0.00  0.00    +0.379 N 
ATOM     22  H   UNL     1       4.728   2.206  -4.404  0.00  0.00    -0.090 HD
ATOM     23  H   UNL     1       3.447   2.052  -5.429  0.00  0.00    -0.090 HD
ATOM     24  H   UNL     1       3.221   1.923  -3.802  0.00  0.00    -0.090 HD
ENDBRANCH  20  21
ENDBRANCH   1  20
TORSDOF 5
