REMARK  Name = ZINC67279741
REMARK  12 active torsions:
REMARK  status: ('A' for Active; 'I' for Inactive)
REMARK    1  A    between atoms: C_1  and  C_2
REMARK    2  A    between atoms: C_2  and  N_3
REMARK    3  A    between atoms: C_4  and  C_6
REMARK    4  A    between atoms: C_9  and  N_13
REMARK    5  A    between atoms: C_10  and  C_12
REMARK    6  A    between atoms: N_16  and  C_17
REMARK    7  A    between atoms: C_17  and  C_18
REMARK    8  A    between atoms: C_18  and  S_19
REMARK    9  A    between atoms: S_19  and  C_20
REMARK   10  A    between atoms: C_20  and  C_21
REMARK   11  A    between atoms: C_20  and  C_22
REMARK   12  A    between atoms: C_20  and  C_23
REMARK                            x       y       z     vdW  Elec       q    Type
REMARK                         _______ _______ _______ _____ _____    ______ ____
ROOT
ATOM      1  C   UNL     1       1.543  -2.272  -2.626  0.00  0.00    +0.037 A 
ATOM      2  C   UNL     1       2.558  -1.506  -3.205  0.00  0.00    +0.015 A 
ATOM      3  C   UNL     1       3.193  -1.954  -4.342  0.00  0.00    +0.024 A 
ATOM      4  C   UNL     1       2.824  -3.167  -4.914  0.00  0.00    +0.038 A 
ATOM      5  C   UNL     1       1.814  -3.932  -4.340  0.00  0.00    -0.028 A 
ATOM      6  C   UNL     1       1.179  -3.493  -3.200  0.00  0.00    +0.018 A 
ATOM      7  C   UNL     1       1.417  -5.246  -4.964  0.00  0.00    +0.045 C 
ENDROOT
BRANCH   4   8
ATOM      8  N   UNL     1       3.469  -3.618  -6.066  0.00  0.00    -0.269 N 
ATOM      9  C   UNL     1       3.876  -2.735  -6.999  0.00  0.00    +0.304 C 
ATOM     10  O   UNL     1       3.756  -1.542  -6.800  0.00  0.00    -0.253 OA
ATOM     11  N   UNL     1       4.416  -3.175  -8.153  0.00  0.00    -0.298 N 
ATOM     12  H   UNL     1       3.624  -4.567  -6.195  0.00  0.00    +0.156 HD
ATOM     13  H   UNL     1       4.512  -4.127  -8.311  0.00  0.00    +0.150 HD
BRANCH  11  14
ATOM     14  C   UNL     1       4.859  -2.216  -9.167  0.00  0.00    +0.116 C 
BRANCH  14  15
ATOM     15  C   UNL     1       5.429  -2.971 -10.369  0.00  0.00    +0.088 C 
BRANCH  15  16
ATOM     16  S   UNL     1       5.978  -1.783 -11.626  0.00  0.00    -0.153 S 
BRANCH  16  17
ATOM     17  C   UNL     1       6.617  -2.825 -12.965  0.00  0.00    +0.008 C 
ATOM     18  C   UNL     1       5.501  -3.735 -13.481  0.00  0.00    +0.022 C 
ATOM     19  C   UNL     1       7.120  -1.937 -14.106  0.00  0.00    +0.022 C 
ATOM     20  C   UNL     1       7.771  -3.681 -12.439  0.00  0.00    +0.022 C 
ENDBRANCH  16  17
ENDBRANCH  15  16
ENDBRANCH  14  15
ENDBRANCH  11  14
ENDBRANCH   4   8
BRANCH   1  22
ATOM     21  N   UNL     1       1.214  -0.618  -0.854  0.00  0.00    -0.312 N 
ATOM     22  C   UNL     1       0.861  -1.796  -1.407  0.00  0.00    +0.244 C 
ATOM     23  O   UNL     1      -0.018  -2.466  -0.901  0.00  0.00    -0.270 OA
ATOM     24  H   UNL     1       1.915  -0.083  -1.258  0.00  0.00    +0.149 HD
BRANCH  21  26
ATOM     25  C   UNL     1       1.121   1.207   0.772  0.00  0.00    +0.024 C 
ATOM     26  C   UNL     1       0.537  -0.145   0.356  0.00  0.00    +0.101 C 
ENDBRANCH  21  26
ENDBRANCH   1  22
TORSDOF 7
