REMARK  Name = ZINC41688060
REMARK  5 active torsions:
REMARK  status: ('A' for Active; 'I' for Inactive)
REMARK    1  A    between atoms: C_1  and  N_2
REMARK    2  A    between atoms: C_10  and  C_11
REMARK    3  A    between atoms: N_13  and  N_14
REMARK    4  A    between atoms: C_15  and  C_17
REMARK    5  A    between atoms: C_17  and  C_18
REMARK                            x       y       z     vdW  Elec       q    Type
REMARK                         _______ _______ _______ _____ _____    ______ ____
ROOT
ATOM      1  C   UNL     1       0.043  -0.142   2.436  0.00  0.00    +0.278 C 
ATOM      2  O   UNL     1       0.185  -0.861   3.407  0.00  0.00    -0.267 OA
ATOM      3  N   UNL     1      -0.105   1.188   2.597  0.00  0.00    -0.229 N 
ATOM      4  H   UNL     1      -0.293   1.752   1.830  0.00  0.00    +0.173 HD
ENDROOT
BRANCH   1  14
ATOM      5  C   UNL     1      -2.480  -0.780   0.773  0.00  0.00    +0.149 C 
ATOM      6  N   UNL     1      -1.098  -1.009   0.344  0.00  0.00    -0.338 N 
ATOM      7  C   UNL     1      -0.713  -1.537  -0.865  0.00  0.00    +0.051 A 
ATOM      8  C   UNL     1      -1.421  -1.988  -1.976  0.00  0.00    +0.026 A 
ATOM      9  C   UNL     1      -0.741  -2.476  -3.070  0.00  0.00    +0.002 A 
ATOM     10  C   UNL     1       0.648  -2.525  -3.076  0.00  0.00    +0.001 A 
ATOM     11  C   UNL     1       1.363  -2.089  -1.999  0.00  0.00    +0.011 A 
ATOM     12  C   UNL     1       0.695  -1.587  -0.875  0.00  0.00    +0.019 A 
ATOM     13  C   UNL     1       1.136  -1.071   0.369  0.00  0.00    +0.079 A 
ATOM     14  C   UNL     1       0.034  -0.724   1.087  0.00  0.00    +0.125 A 
ATOM     15 CL   UNL     1       2.786  -0.906   0.883  0.00  0.00    -0.081 Cl
ENDBRANCH   1  14
BRANCH   3  16
ATOM     16  N   UNL     1       0.013   1.756   3.872  0.00  0.00    -0.234 N 
ATOM     17  C   UNL     1      -0.136   3.086   4.034  0.00  0.00    +0.233 C 
ATOM     18  O   UNL     1      -0.370   3.791   3.075  0.00  0.00    -0.274 OA
ATOM     19  H   UNL     1       0.200   1.192   4.639  0.00  0.00    +0.173 HD
BRANCH  17  20
ATOM     20  C   UNL     1      -0.009   3.697   5.405  0.00  0.00    +0.134 C 
BRANCH  20  21
ATOM     21  C   UNL     1      -0.216   5.187   5.313  0.00  0.00    -0.014 A 
ATOM     22  C   UNL     1       0.741   6.120   5.192  0.00  0.00    +0.087 A 
ATOM     23  N   UNL     1       0.175   7.365   5.137  0.00  0.00    -0.360 N 
ATOM     24  H   UNL     1       0.666   8.197   5.051  0.00  0.00    +0.165 HD
ATOM     25  C   UNL     1      -1.195   7.260   5.223  0.00  0.00    +0.047 A 
ATOM     26  C   UNL     1      -1.501   5.891   5.330  0.00  0.00    +0.003 A 
ATOM     27  C   UNL     1      -2.831   5.480   5.428  0.00  0.00    +0.010 A 
ATOM     28  C   UNL     1      -3.832   6.411   5.415  0.00  0.00    +0.001 A 
ATOM     29  C   UNL     1      -3.535   7.763   5.305  0.00  0.00    +0.002 A 
ATOM     30  C   UNL     1      -2.229   8.191   5.217  0.00  0.00    +0.026 A 
ENDBRANCH  20  21
ENDBRANCH  17  20
ENDBRANCH   3  16
TORSDOF 4
