REMARK  Name = ZINC42016659
REMARK  5 active torsions:
REMARK  status: ('A' for Active; 'I' for Inactive)
REMARK    1  A    between atoms: C_1  and  C_2
REMARK    2  A    between atoms: C_7  and  N_12
REMARK    3  A    between atoms: C_9  and  C_11
REMARK    4  A    between atoms: C_13  and  C_17
REMARK    5  A    between atoms: C_21  and  N_23
REMARK                            x       y       z     vdW  Elec       q    Type
REMARK                         _______ _______ _______ _____ _____    ______ ____
ROOT
ATOM      1  N   UNL     1       0.914  -0.517   3.597  0.00  0.00    -0.222 N 
ATOM      2  C   UNL     1       1.377   0.239   4.623  0.00  0.00    +0.182 A 
ATOM      3  N   UNL     1       1.696  -0.588   5.597  0.00  0.00    -0.108 NA
ATOM      4  N   UNL     1       1.464  -1.802   5.250  0.00  0.00    -0.023 NA
ATOM      5  N   UNL     1       0.984  -1.844   4.054  0.00  0.00    -0.043 NA
ENDROOT
BRANCH   1  11
ATOM      6  C   UNL     1       0.949   1.162  -0.325  0.00  0.00    +0.008 C 
ATOM      7  C   UNL     1       0.654  -0.332  -0.180  0.00  0.00    -0.009 C 
ATOM      8  C   UNL     1      -0.854  -0.567  -0.286  0.00  0.00    +0.004 C 
ATOM      9  C   UNL     1      -1.569   0.204   0.825  0.00  0.00    +0.002 C 
ATOM     10  C   UNL     1      -1.071  -0.284   2.187  0.00  0.00    +0.027 C 
ATOM     11  C   UNL     1       0.437  -0.049   2.293  0.00  0.00    +0.114 C 
ATOM     12  C   UNL     1       1.152  -0.820   1.182  0.00  0.00    +0.013 C 
ATOM     13  C   UNL     1       2.660  -0.585   1.287  0.00  0.00    +0.010 C 
ENDBRANCH   1  11
BRANCH   2  14
ATOM     14  C   UNL     1       1.501   1.713   4.645  0.00  0.00    +0.022 A 
ATOM     15  C   UNL     1       0.609   2.501   3.917  0.00  0.00    +0.013 A 
ATOM     16  C   UNL     1       0.726   3.876   3.938  0.00  0.00    +0.018 A 
ATOM     17  C   UNL     1       1.726   4.478   4.680  0.00  0.00    +0.039 A 
ATOM     18  C   UNL     1       2.620   3.701   5.409  0.00  0.00    +0.039 A 
ATOM     19  C   UNL     1       2.506   2.319   5.397  0.00  0.00    +0.035 A 
ATOM     20 BR   UNL     1       1.879   6.363   4.703  0.00  0.00    -0.048 Br
BRANCH  18  21
ATOM     21  N   UNL     1       3.629   4.313   6.157  0.00  0.00    -0.357 N 
ATOM     22  H   UNL     1       3.707   5.279   6.168  0.00  0.00    +0.142 HD
ATOM     23  H   UNL     1       4.253   3.771   6.666  0.00  0.00    +0.142 HD
ENDBRANCH  18  21
ENDBRANCH   2  14
TORSDOF 3
