REMARK  Name = ZINC64746087
REMARK  12 active torsions:
REMARK  status: ('A' for Active; 'I' for Inactive)
REMARK    1  A    between atoms: C_1  and  C_2
REMARK    2  A    between atoms: C_2  and  C_3
REMARK    3  A    between atoms: C_3  and  N_4
REMARK    4  A    between atoms: C_13  and  N_27
REMARK    5  A    between atoms: C_14  and  C_18
REMARK    6  A    between atoms: C_21  and  N_24
REMARK    7  A    between atoms: N_24  and  C_25
REMARK    8  A    between atoms: N_24  and  C_26
REMARK    9  A    between atoms: N_27  and  C_28
REMARK   10  A    between atoms: C_28  and  C_29
REMARK   11  A    between atoms: C_28  and  C_30
REMARK   12  A    between atoms: C_28  and  C_31
REMARK                            x       y       z     vdW  Elec       q    Type
REMARK                         _______ _______ _______ _____ _____    ______ ____
ROOT
ATOM      1  N   UNL     1       0.534  -0.830  -2.266  0.00  0.00    +0.382 N 
ATOM      2  C   UNL     1      -0.807  -1.427  -2.231  0.00  0.00    -0.060 C 
ATOM      3  C   UNL     1      -0.697  -2.904  -1.835  0.00  0.00    +0.088 C 
ATOM      4  N   UNL     1       0.238  -3.566  -2.758  0.00  0.00    -0.312 N 
ATOM      5  C   UNL     1       1.552  -2.942  -2.979  0.00  0.00    +0.088 C 
ATOM      6  C   UNL     1       1.336  -1.463  -3.321  0.00  0.00    -0.060 C 
ATOM      7  C   UNL     1      -0.109  -4.743  -3.401  0.00  0.00    +0.184 A 
ATOM      8  N   UNL     1       0.593  -5.458  -4.237  0.00  0.00    -0.140 NA
ATOM      9  N   UNL     1       0.084  -6.627  -4.794  0.00  0.00    -0.190 N 
ATOM     10  C   UNL     1       0.490  -7.617  -5.676  0.00  0.00    +0.150 A 
ATOM     11  C   UNL     1      -0.532  -8.510  -5.792  0.00  0.00    +0.114 A 
ATOM     12  N   UNL     1      -1.549  -8.083  -5.000  0.00  0.00    -0.218 NA
ATOM     13  C   UNL     1      -1.187  -6.980  -4.415  0.00  0.00    +0.199 A 
ATOM     14  S   UNL     1      -1.628  -5.675  -3.291  0.00  0.00    -0.013 S 
ATOM     15  H   UNL     1       0.985  -0.969  -1.374  0.00  0.00    -0.082 HD
ENDROOT
BRANCH  11  16
ATOM     16  C   UNL     1      -0.534  -9.730  -6.633  0.00  0.00    +0.004 A 
ATOM     17  C   UNL     1       0.128  -9.734  -7.861  0.00  0.00    +0.012 A 
ATOM     18  C   UNL     1       0.125 -10.871  -8.641  0.00  0.00    +0.024 A 
ATOM     19  C   UNL     1      -0.538 -12.012  -8.205  0.00  0.00    +0.029 A 
ATOM     20  C   UNL     1      -1.199 -12.011  -6.983  0.00  0.00    +0.024 A 
ATOM     21  C   UNL     1      -1.194 -10.879  -6.196  0.00  0.00    +0.012 A 
BRANCH  19  22
ATOM     22  N   UNL     1      -0.540 -13.164  -8.999  0.00  0.00    -0.336 N 
ATOM     23  C   UNL     1       0.259 -13.209 -10.226  0.00  0.00    +0.129 C 
ATOM     24  C   UNL     1      -1.341 -14.325  -8.603  0.00  0.00    +0.129 C 
ENDBRANCH  19  22
ENDBRANCH  11  16
BRANCH  10  25
ATOM     25  N   UNL     1       1.726  -7.686  -6.329  0.00  0.00    -0.323 N 
ATOM     26  H   UNL     1       1.925  -8.436  -6.912  0.00  0.00    +0.148 HD
BRANCH  25  27
ATOM     27  C   UNL     1       2.718  -6.626  -6.133  0.00  0.00    +0.025 C 
ATOM     28  C   UNL     1       3.094  -6.547  -4.652  0.00  0.00    +0.031 C 
ATOM     29  C   UNL     1       3.967  -6.938  -6.960  0.00  0.00    +0.031 C 
ATOM     30  C   UNL     1       2.129  -5.287  -6.583  0.00  0.00    +0.031 C 
ENDBRANCH  25  27
ENDBRANCH  10  25
BRANCH   1  31
ATOM     31  C   UNL     1       0.420   0.609  -2.538  0.00  0.00    -0.079 C 
BRANCH  31  33
ATOM     32  C   UNL     1      -0.426   2.790  -1.660  0.00  0.00    +0.002 C 
ATOM     33  C   UNL     1      -0.307   1.291  -1.377  0.00  0.00    -0.022 C 
ENDBRANCH  31  33
ENDBRANCH   1  31
TORSDOF 6
