REMARK  Name = ZINC14274318
REMARK  8 active torsions:
REMARK  status: ('A' for Active; 'I' for Inactive)
REMARK    1  A    between atoms: C_1  and  C_2
REMARK    2  A    between atoms: C_5  and  N_11
REMARK    3  A    between atoms: C_6  and  N_8
REMARK    4  A    between atoms: N_11  and  C_12
REMARK    5  A    between atoms: C_12  and  N_14
REMARK    6  A    between atoms: C_15  and  C_17
REMARK    7  A    between atoms: C_22  and  O_23
REMARK    8  A    between atoms: O_23  and  C_24
REMARK                            x       y       z     vdW  Elec       q    Type
REMARK                         _______ _______ _______ _____ _____    ______ ____
ROOT
ATOM      1  C   UNL     1       4.813   4.498  -0.097  0.00  0.00    +0.141 C 
ATOM      2  S   UNL     1       4.699   6.114   0.459  0.00  0.00    -0.018 S 
ENDROOT
BRANCH   1   3
ATOM      3  N   UNL     1       3.696   3.763  -0.264  0.00  0.00    -0.263 N 
ATOM      4  C   UNL     1       2.489   4.299   0.007  0.00  0.00    +0.253 C 
ATOM      5  O   UNL     1       2.408   5.446   0.401  0.00  0.00    -0.270 OA
ATOM      6  H   UNL     1       3.760   2.847  -0.578  0.00  0.00    +0.157 HD
BRANCH   4   7
ATOM      7  C   UNL     1       1.267   3.494  -0.176  0.00  0.00    +0.081 A 
ATOM      8  C   UNL     1       1.356   2.175  -0.629  0.00  0.00    +0.032 A 
ATOM      9  C   UNL     1       0.210   1.427  -0.798  0.00  0.00    +0.020 A 
ATOM     10  C   UNL     1      -1.032   1.980  -0.524  0.00  0.00    +0.034 A 
ATOM     11  C   UNL     1      -1.133   3.281  -0.071  0.00  0.00    +0.061 A 
ATOM     12  C   UNL     1       0.010   4.047   0.104  0.00  0.00    +0.146 A 
ATOM     13 BR   UNL     1      -2.833   4.020   0.306  0.00  0.00    -0.046 Br
ATOM     14 BR   UNL     1       0.331  -0.357  -1.412  0.00  0.00    -0.050 Br
BRANCH  12  15
ATOM     15  O   UNL     1      -0.088   5.327   0.545  0.00  0.00    -0.493 OA
ATOM     16  C   UNL     1      -0.224   6.346  -0.447  0.00  0.00    +0.277 C 
ENDBRANCH  12  15
ENDBRANCH   4   7
ENDBRANCH   1   3
BRANCH   1  17
ATOM     17  N   UNL     1       6.019   3.962  -0.367  0.00  0.00    -0.295 N 
ATOM     18  H   UNL     1       6.092   3.024  -0.601  0.00  0.00    +0.154 HD
BRANCH  17  23
ATOM     19  C   UNL     1      10.674   7.196  -0.136  0.00  0.00    +0.044 C 
ATOM     20  C   UNL     1       9.438   6.337  -0.198  0.00  0.00    -0.048 A 
ATOM     21  C   UNL     1       8.309   6.797  -0.852  0.00  0.00    +0.005 A 
ATOM     22  C   UNL     1       7.175   6.012  -0.910  0.00  0.00    +0.026 A 
ATOM     23  C   UNL     1       7.167   4.759  -0.310  0.00  0.00    +0.063 A 
ATOM     24  C   UNL     1       8.300   4.302   0.350  0.00  0.00    +0.147 A 
ATOM     25  C   UNL     1       9.433   5.090   0.401  0.00  0.00    +0.038 A 
BRANCH  24  26
ATOM     26  N   UNL     1       8.294   2.970   0.995  0.00  0.00    +0.058 N 
ATOM     27  O   UNL     1       9.311   2.538   1.508  0.00  0.00    -0.126 OA
ATOM     28  O   UNL     1       7.273   2.307   1.014  0.00  0.00    -0.126 OA
ENDBRANCH  24  26
ENDBRANCH  17  23
ENDBRANCH   1  17
TORSDOF 6
