REMARK  Name = ZINC24757354
REMARK  10 active torsions:
REMARK  status: ('A' for Active; 'I' for Inactive)
REMARK    1  A    between atoms: C_1  and  C_2
REMARK    2  A    between atoms: C_5  and  N_8
REMARK    3  A    between atoms: C_11  and  C_14
REMARK    4  A    between atoms: C_14  and  N_15
REMARK    5  A    between atoms: N_15  and  C_16
REMARK    6  A    between atoms: N_15  and  C_17
REMARK    7  A    between atoms: C_17  and  C_18
REMARK    8  A    between atoms: C_19  and  C_32
REMARK    9  A    between atoms: N_21  and  C_24
REMARK   10  A    between atoms: C_22  and  C_23
REMARK                            x       y       z     vdW  Elec       q    Type
REMARK                         _______ _______ _______ _____ _____    ______ ____
ROOT
ATOM      1  N   UNL     1       4.387   7.454  -0.565  0.00  0.00    +0.384 N 
ATOM      2  C   UNL     1       4.546   7.645  -2.013  0.00  0.00    -0.095 C 
ATOM      3  H   UNL     1       4.853   6.495  -0.297  0.00  0.00    -0.081 HD
ENDROOT
BRANCH   1   4
ATOM      4  C   UNL     1       5.074   8.514   0.185  0.00  0.00    -0.022 C 
BRANCH   4   8
ATOM      5  N   UNL     1       9.504   6.684   1.208  0.00  0.00    -0.294 N 
ATOM      6  C   UNL     1       8.592   7.479   0.530  0.00  0.00    +0.162 A 
ATOM      7  N   UNL     1       7.290   7.590   0.714  0.00  0.00    -0.232 NA
ATOM      8  C   UNL     1       6.561   8.399  -0.031  0.00  0.00    +0.034 A 
ATOM      9  C   UNL     1       7.181   9.128  -0.990  0.00  0.00    +0.070 A 
ATOM     10  S   UNL     1       8.871   8.588  -0.777  0.00  0.00    -0.060 S 
ATOM     11  H   UNL     1       9.182   6.106   2.087  0.00  0.00    +0.154 HD
BRANCH   5  16
ATOM     12  C   UNL     1      14.888   6.410  -0.554  0.00  0.00    +0.044 C 
ATOM     13  C   UNL     1      13.457   6.482  -0.086  0.00  0.00    -0.050 A 
ATOM     14  C   UNL     1      13.167   6.392   1.263  0.00  0.00    +0.005 A 
ATOM     15  C   UNL     1      11.857   6.458   1.696  0.00  0.00    +0.023 A 
ATOM     16  C   UNL     1      10.830   6.616   0.774  0.00  0.00    +0.033 A 
ATOM     17  C   UNL     1      11.124   6.701  -0.581  0.00  0.00    +0.023 A 
ATOM     18  C   UNL     1      12.437   6.639  -1.006  0.00  0.00    +0.005 A 
ENDBRANCH   5  16
ENDBRANCH   4   8
ENDBRANCH   1   4
BRANCH   1  19
ATOM     19  C   UNL     1       2.967   7.385  -0.197  0.00  0.00    -0.039 C 
BRANCH  19  20
ATOM     20  C   UNL     1       2.353   6.143  -0.791  0.00  0.00    -0.021 A 
ATOM     21  C   UNL     1       1.748   6.046  -2.049  0.00  0.00    +0.062 A 
ATOM     22  N   UNL     1       1.342   4.813  -2.212  0.00  0.00    -0.176 NA
ATOM     23  N   UNL     1       1.669   4.088  -1.059  0.00  0.00    -0.263 N 
ATOM     24  C   UNL     1       2.291   4.926  -0.204  0.00  0.00    +0.038 A 
ATOM     25  C   UNL     1       2.821   4.570   1.161  0.00  0.00    +0.065 C 
ATOM     26  C   UNL     1       1.596   7.166  -3.045  0.00  0.00    +0.068 C 
BRANCH  23  27
ATOM     27  C   UNL     1       1.389   2.669  -0.825  0.00  0.00    +0.130 C 
ATOM     28  C   UNL     1       2.056   1.820  -1.920  0.00  0.00    +0.051 C 
ATOM     29  C   UNL     1       1.510   0.373  -1.872  0.00  0.00    +0.168 C 
ATOM     30  S   UNL     1      -0.179   0.601  -1.181  0.00  0.00    -0.029 S 
ATOM     31  O   UNL     1      -0.261  -0.070   0.069  0.00  0.00    -0.174 OA
ATOM     32  O   UNL     1      -1.135   0.315  -2.192  0.00  0.00    -0.174 OA
ATOM     33  C   UNL     1      -0.145   2.419  -0.885  0.00  0.00    +0.192 C 
ENDBRANCH  23  27
ENDBRANCH  19  20
ENDBRANCH   1  19
TORSDOF 6
