REMARK  Name = ZINC61587858
REMARK  6 active torsions:
REMARK  status: ('A' for Active; 'I' for Inactive)
REMARK    1  A    between atoms: C_1  and  O_2
REMARK    2  A    between atoms: O_2  and  C_3
REMARK    3  A    between atoms: C_6  and  S_17
REMARK    4  A    between atoms: C_8  and  N_9
REMARK    5  A    between atoms: N_9  and  C_10
REMARK    6  A    between atoms: S_17  and  N_20
REMARK                            x       y       z     vdW  Elec       q    Type
REMARK                         _______ _______ _______ _____ _____    ______ ____
ROOT
ATOM      1  C   UNL     1       0.606  -0.608  -1.057  0.00  0.00    +0.141 A 
ATOM      2  C   UNL     1       1.173   0.158  -2.062  0.00  0.00    +0.049 A 
ATOM      3  C   UNL     1       1.786  -0.457  -3.138  0.00  0.00    +0.032 A 
ATOM      4  C   UNL     1       1.837  -1.836  -3.214  0.00  0.00    +0.107 A 
ATOM      5  C   UNL     1       1.274  -2.608  -2.214  0.00  0.00    +0.055 A 
ATOM      6  C   UNL     1       0.662  -1.998  -1.129  0.00  0.00    +0.071 A 
ENDROOT
BRANCH   4   7
ATOM      7  S   UNL     1       2.620  -2.612  -4.588  0.00  0.00    +0.056 S 
ATOM      8  O   UNL     1       2.055  -3.912  -4.696  0.00  0.00    -0.153 OA
ATOM      9  O   UNL     1       2.587  -1.676  -5.657  0.00  0.00    -0.153 OA
BRANCH   7  10
ATOM     10  N   UNL     1       4.214  -2.821  -4.190  0.00  0.00    -0.204 NA
ATOM     11  H   UNL     1       4.540  -2.527  -3.325  0.00  0.00    +0.144 HD
ATOM     12  H   UNL     1       4.821  -3.236  -4.822  0.00  0.00    +0.144 HD
ENDBRANCH   7  10
ENDBRANCH   4   7
BRANCH   1  14
ATOM     13  C   UNL     1      -0.017   1.425   0.010  0.00  0.00    +0.277 C 
ATOM     14  O   UNL     1       0.002  -0.004   0.002  0.00  0.00    -0.493 OA
ENDBRANCH   1  14
BRANCH   6  15
ATOM     15  N   UNL     1       0.097  -2.777  -0.113  0.00  0.00    -0.337 N 
ATOM     16  H   UNL     1      -0.334  -2.349   0.643  0.00  0.00    +0.146 HD
BRANCH  15  17
ATOM     17  C   UNL     1       0.156  -4.239  -0.192  0.00  0.00    +0.080 C 
ATOM     18  C   UNL     1       0.073  -4.825   1.214  0.00  0.00    +0.024 C 
ATOM     19  C   UNL     1       0.412  -6.313   1.202  0.00  0.00    +0.012 C 
ATOM     20  C   UNL     1      -0.721  -7.101   0.538  0.00  0.00    +0.069 C 
ATOM     21  S   UNL     1      -0.874  -6.557  -1.190  0.00  0.00    -0.159 S 
ATOM     22  C   UNL     1      -1.012  -4.750  -1.040  0.00  0.00    +0.091 C 
ENDBRANCH  15  17
ENDBRANCH   6  15
TORSDOF 5
