REMARK  Name = ZINC20503791
REMARK  4 active torsions:
REMARK  status: ('A' for Active; 'I' for Inactive)
REMARK    1  A    between atoms: C_1  and  C_2
REMARK    2  A    between atoms: N_5  and  C_8
REMARK    3  A    between atoms: C_8  and  C_9
REMARK    4  A    between atoms: C_17  and  C_18
REMARK                            x       y       z     vdW  Elec       q    Type
REMARK                         _______ _______ _______ _____ _____    ______ ____
ROOT
ATOM      1  C   UNL     1       1.201   1.702  -4.875  0.00  0.00    +0.026 A 
ATOM      2  C   UNL     1       0.370   0.724  -5.397  0.00  0.00    +0.184 A 
ATOM      3  C   UNL     1      -0.461   1.004  -6.478  0.00  0.00    +0.052 A 
ATOM      4  C   UNL     1      -0.459   2.249  -7.043  0.00  0.00    +0.019 A 
ATOM      5  C   UNL     1       0.376   3.242  -6.530  0.00  0.00    +0.068 A 
ATOM      6  C   UNL     1       1.215   2.971  -5.437  0.00  0.00    +0.144 A 
ATOM      7  O   UNL     1       1.914   4.087  -5.137  0.00  0.00    -0.451 OA
ATOM      8  C   UNL     1       1.597   5.107  -5.968  0.00  0.00    +0.179 C 
ATOM      9  C   UNL     1       2.128   6.363  -5.927  0.00  0.00    +0.096 C 
ATOM     10  C   UNL     1       0.618   4.650  -6.891  0.00  0.00    +0.232 C 
ATOM     11  O   UNL     1       0.091   5.286  -7.789  0.00  0.00    -0.283 OA
ATOM     12  O   UNL     1       0.364  -0.518  -4.848  0.00  0.00    -0.288 OA
ENDROOT
BRANCH   9  13
ATOM     13  C   UNL     1       3.099   6.688  -4.953  0.00  0.00    +0.131 A 
ATOM     14  C   UNL     1       3.717   7.914  -4.797  0.00  0.00    +0.049 A 
ATOM     15  C   UNL     1       4.600   7.780  -3.715  0.00  0.00    +0.042 A 
ATOM     16  C   UNL     1       4.489   6.510  -3.263  0.00  0.00    +0.195 A 
ATOM     17  O   UNL     1       3.583   5.859  -4.005  0.00  0.00    -0.463 OA
ENDBRANCH   9  13
BRANCH   1  18
ATOM     18  C   UNL     1       2.093   1.387  -3.701  0.00  0.00    -0.035 C 
BRANCH  18  23
ATOM     19  C   UNL     1      -0.731   1.581   1.265  0.00  0.00    +0.007 C 
ATOM     20  C   UNL     1      -0.013   1.086   0.008  0.00  0.00    -0.018 C 
ATOM     21  C   UNL     1      -0.746   1.595  -1.236  0.00  0.00    -0.016 C 
ATOM     22  C   UNL     1       0.012   1.147  -2.488  0.00  0.00    -0.078 C 
ATOM     23  N   UNL     1       1.379   1.681  -2.451  0.00  0.00    +0.383 N 
ATOM     24  C   UNL     1       2.118   1.169  -1.290  0.00  0.00    -0.078 C 
ATOM     25  C   UNL     1       1.423   1.617  -0.003  0.00  0.00    -0.016 C 
ATOM     26  H   UNL     1       1.309   2.774  -2.349  0.00  0.00    -0.081 HD
ENDBRANCH  18  23
ENDBRANCH   1  18
TORSDOF 3
