REMARK  Name = ZINC63663799
REMARK  10 active torsions:
REMARK  status: ('A' for Active; 'I' for Inactive)
REMARK    1  A    between atoms: C_1  and  C_2
REMARK    2  A    between atoms: C_2  and  C_4
REMARK    3  A    between atoms: C_2  and  N_18
REMARK    4  A    between atoms: C_4  and  C_6
REMARK    5  A    between atoms: C_4  and  N_11
REMARK    6  A    between atoms: N_14  and  C_17
REMARK    7  A    between atoms: C_19  and  C_21
REMARK    8  A    between atoms: N_23  and  C_24
REMARK    9  A    between atoms: C_24  and  C_25
REMARK   10  A    between atoms: C_25  and  C_26
REMARK                            x       y       z     vdW  Elec       q    Type
REMARK                         _______ _______ _______ _____ _____    ______ ____
ROOT
ATOM      1  N   UNL     1       0.632  -0.400   1.452  0.00  0.00    -0.303 N 
ATOM      2  C   UNL     1       1.974  -0.496   1.534  0.00  0.00    +0.299 C 
ATOM      3  O   UNL     1       2.660  -0.241   0.567  0.00  0.00    -0.265 OA
ATOM      4  H   UNL     1       0.083  -0.604   2.226  0.00  0.00    +0.149 HD
ENDROOT
BRANCH   2   5
ATOM      5  C   UNL     1       2.616  -0.915   2.817  0.00  0.00    +0.299 C 
ATOM      6  O   UNL     1       1.930  -1.170   3.784  0.00  0.00    -0.265 OA
ATOM      7  N   UNL     1       3.958  -1.010   2.898  0.00  0.00    -0.307 N 
ATOM      8  H   UNL     1       4.507  -0.807   2.125  0.00  0.00    +0.149 HD
BRANCH   7   9
ATOM      9  C   UNL     1       4.588  -1.421   4.156  0.00  0.00    +0.109 C 
BRANCH   9  10
ATOM     10  C   UNL     1       6.108  -1.449   3.980  0.00  0.00    +0.052 C 
BRANCH  10  11
ATOM     11  C   UNL     1       6.756  -1.872   5.273  0.00  0.00    -0.040 C 
ATOM     12  C   UNL     1       7.141  -3.121   5.619  0.00  0.00    -0.001 A 
ATOM     13  C   UNL     1       7.073  -4.411   4.922  0.00  0.00    +0.010 A 
ATOM     14  C   UNL     1       7.550  -5.516   5.539  0.00  0.00    +0.001 A 
ATOM     15  C   UNL     1       8.106  -5.460   6.825  0.00  0.00    +0.002 A 
ATOM     16  C   UNL     1       8.203  -4.312   7.528  0.00  0.00    +0.026 A 
ATOM     17  C   UNL     1       7.732  -3.089   6.976  0.00  0.00    +0.043 A 
ATOM     18  N   UNL     1       7.714  -1.867   7.450  0.00  0.00    -0.380 N 
ATOM     19  C   UNL     1       7.113  -0.984   6.444  0.00  0.00    +0.144 C 
ATOM     20  H   UNL     1       8.045  -1.591   8.319  0.00  0.00    +0.160 HD
ENDBRANCH  10  11
ENDBRANCH   9  10
ENDBRANCH   7   9
ENDBRANCH   2   5
BRANCH   1  22
ATOM     21  C   UNL     1      -0.032   1.538   0.117  0.00  0.00    +0.030 C 
ATOM     22  C   UNL     1       0.002   0.011   0.195  0.00  0.00    +0.092 C 
BRANCH  22  23
ATOM     23  C   UNL     1      -1.427  -0.534   0.139  0.00  0.00    +0.113 C 
BRANCH  23  24
ATOM     24  N   UNL     1      -1.397  -1.999   0.251  0.00  0.00    -0.297 NA
ATOM     25  C   UNL     1      -0.601  -2.594  -0.832  0.00  0.00    +0.066 C 
ATOM     26  C   UNL     1      -0.546  -4.112  -0.645  0.00  0.00    -0.064 C 
ATOM     27  N   UNL     1      -1.910  -4.657  -0.660  0.00  0.00    +0.379 N 
ATOM     28  C   UNL     1      -2.684  -4.072   0.442  0.00  0.00    -0.064 C 
ATOM     29  C   UNL     1      -2.758  -2.554   0.265  0.00  0.00    +0.066 C 
ATOM     30  C   UNL     1      -1.855  -6.116  -0.499  0.00  0.00    -0.096 C 
ATOM     31  H   UNL     1      -2.352  -4.433  -1.538  0.00  0.00    -0.082 HD
ENDBRANCH  23  24
BRANCH  23  32
ATOM     32  C   UNL     1      -2.229   0.041   1.277  0.00  0.00    +0.009 A 
ATOM     33  C   UNL     1      -3.115   1.067   1.264  0.00  0.00    +0.013 A 
ATOM     34  C   UNL     1      -3.742   1.425   2.443  0.00  0.00    +0.008 A 
ATOM     35  C   UNL     1      -3.453   0.741   3.576  0.00  0.00    +0.045 A 
ATOM     36  S   UNL     1      -2.266  -0.458   2.991  0.00  0.00    -0.100 S 
ENDBRANCH  23  32
ENDBRANCH  22  23
ENDBRANCH   1  22
TORSDOF 8
