REMARK  Name = ZINC15947543
REMARK  12 active torsions:
REMARK  status: ('A' for Active; 'I' for Inactive)
REMARK    1  A    between atoms: C_1  and  C_2
REMARK    2  A    between atoms: C_11  and  O_37
REMARK    3  A    between atoms: C_13  and  C_16
REMARK    4  A    between atoms: C_21  and  O_22
REMARK    5  A    between atoms: O_22  and  C_23
REMARK    6  A    between atoms: C_23  and  C_25
REMARK    7  A    between atoms: C_27  and  O_35
REMARK    8  A    between atoms: C_28  and  O_33
REMARK    9  A    between atoms: C_29  and  O_31
REMARK   10  A    between atoms: O_31  and  C_32
REMARK   11  A    between atoms: O_33  and  C_34
REMARK   12  A    between atoms: O_35  and  C_36
REMARK                            x       y       z     vdW  Elec       q    Type
REMARK                         _______ _______ _______ _____ _____    ______ ____
ROOT
ATOM      1  C   UNL     1      -0.230  -7.144   1.137  0.00  0.00    +0.037 A 
ATOM      2  C   UNL     1      -0.718  -6.957   2.417  0.00  0.00    +0.011 A 
ATOM      3  C   UNL     1      -1.999  -7.367   2.736  0.00  0.00    +0.001 A 
ATOM      4  C   UNL     1      -2.796  -7.965   1.776  0.00  0.00    +0.004 A 
ATOM      5  C   UNL     1      -2.313  -8.155   0.496  0.00  0.00    +0.047 A 
ATOM      6  C   UNL     1      -1.029  -7.738   0.172  0.00  0.00    +0.139 A 
ENDROOT
BRANCH   1  18
ATOM      7  C   UNL     1      -0.897   1.524   0.097  0.00  0.00    +0.008 C 
ATOM      8  C   UNL     1      -0.744   0.002   0.080  0.00  0.00    -0.009 C 
ATOM      9  C   UNL     1       0.082  -0.416  -1.140  0.00  0.00    +0.008 C 
ATOM     10  C   UNL     1       0.035  -1.937  -1.304  0.00  0.00    +0.037 C 
ATOM     11  C   UNL     1       0.425  -2.584   0.017  0.00  0.00    -0.023 A 
ATOM     12  C   UNL     1       0.388  -1.886   1.175  0.00  0.00    -0.004 A 
ATOM     13  S   UNL     1       0.919  -3.037   2.414  0.00  0.00    -0.078 S 
ATOM     14  C   UNL     1       1.172  -4.369   1.460  0.00  0.00    +0.080 A 
ATOM     15  C   UNL     1       0.861  -3.961   0.157  0.00  0.00    +0.068 A 
ATOM     16  C   UNL     1       1.014  -4.963  -0.929  0.00  0.00    +0.220 C 
ATOM     17  N   UNL     1       1.182  -6.211  -0.584  0.00  0.00    -0.223 NA
ATOM     18  C   UNL     1       1.166  -6.697   0.790  0.00  0.00    +0.227 C 
ATOM     19  N   UNL     1       1.586  -5.652   1.742  0.00  0.00    -0.313 N 
ATOM     20  C   UNL     1      -0.019  -0.456   1.354  0.00  0.00    +0.046 C 
ATOM     21  H   UNL     1       2.124  -5.856   2.522  0.00  0.00    +0.149 HD
BRANCH  16  22
ATOM     22  O   UNL     1       0.980  -4.595  -2.231  0.00  0.00    -0.492 OA
ATOM     23  H   UNL     1       1.090  -5.330  -2.850  0.00  0.00    +0.294 HD
ENDBRANCH  16  22
ENDBRANCH   1  18
BRANCH   6  24
ATOM     24  O   UNL     1      -0.554  -7.918  -1.089  0.00  0.00    -0.422 OA
BRANCH  24  25
ATOM     25  C   UNL     1       0.159  -9.034  -1.343  0.00  0.00    +0.345 C 
ATOM     26  O   UNL     1       0.355  -9.844  -0.459  0.00  0.00    -0.245 OA
BRANCH  25  27
ATOM     27  C   UNL     1       0.701  -9.270  -2.694  0.00  0.00    +0.067 A 
ATOM     28  C   UNL     1       0.481  -8.336  -3.710  0.00  0.00    +0.064 A 
ATOM     29  C   UNL     1       0.991  -8.560  -4.975  0.00  0.00    +0.166 A 
ATOM     30  C   UNL     1       1.723  -9.716  -5.237  0.00  0.00    +0.204 A 
ATOM     31  C   UNL     1       1.943 -10.648  -4.227  0.00  0.00    +0.166 A 
ATOM     32  C   UNL     1       1.440 -10.426  -2.959  0.00  0.00    +0.064 A 
BRANCH  31  33
ATOM     33  O   UNL     1       2.658 -11.775  -4.487  0.00  0.00    -0.491 OA
ATOM     34  C   UNL     1       2.845 -12.689  -3.404  0.00  0.00    +0.277 C 
ENDBRANCH  31  33
BRANCH  30  35
ATOM     35  O   UNL     1       2.223  -9.934  -6.482  0.00  0.00    -0.488 OA
ATOM     36  C   UNL     1       3.533  -9.432  -6.752  0.00  0.00    +0.277 C 
ENDBRANCH  30  35
BRANCH  29  37
ATOM     37  O   UNL     1       0.778  -7.652  -5.964  0.00  0.00    -0.491 OA
ATOM     38  C   UNL     1       0.018  -6.490  -5.625  0.00  0.00    +0.277 C 
ENDBRANCH  29  37
ENDBRANCH  25  27
ENDBRANCH  24  25
ENDBRANCH   6  24
TORSDOF 8
