REMARK  Name = ZINC04997204
REMARK  5 active torsions:
REMARK  status: ('A' for Active; 'I' for Inactive)
REMARK    1  A    between atoms: C_1  and  C_2
REMARK    2  A    between atoms: C_2  and  C_4
REMARK    3  A    between atoms: C_2  and  S_11
REMARK    4  A    between atoms: S_11  and  C_12
REMARK    5  A    between atoms: C_15  and  C_17
REMARK                            x       y       z     vdW  Elec       q    Type
REMARK                         _______ _______ _______ _____ _____    ______ ____
ROOT
ATOM      1  C   UNL     1       2.509  -0.029  -1.285  0.00  0.00    +0.278 A 
ATOM      2  N   UNL     1       2.978   0.648  -0.265  0.00  0.00    -0.101 NA
ATOM      3  N   UNL     1       4.229   0.888  -0.448  0.00  0.00    -0.106 NA
ATOM      4  C   UNL     1       4.609   0.374  -1.593  0.00  0.00    +0.251 A 
ATOM      5  O   UNL     1       3.529  -0.222  -2.145  0.00  0.00    -0.411 OA
ENDROOT
BRANCH   4   6
ATOM      6  C   UNL     1       5.965   0.431  -2.170  0.00  0.00    +0.063 A 
ATOM      7  C   UNL     1       6.365  -0.094  -3.357  0.00  0.00    +0.097 A 
ATOM      8  N   UNL     1       7.692   0.160  -3.549  0.00  0.00    -0.360 N 
ATOM      9  H   UNL     1       8.203  -0.116  -4.326  0.00  0.00    +0.165 HD
ATOM     10  C   UNL     1       8.202   0.865  -2.480  0.00  0.00    +0.047 A 
ATOM     11  C   UNL     1       7.149   1.073  -1.573  0.00  0.00    +0.012 A 
ATOM     12  C   UNL     1       7.376   1.772  -0.389  0.00  0.00    +0.011 A 
ATOM     13  C   UNL     1       8.635   2.260  -0.116  0.00  0.00    +0.001 A 
ATOM     14  C   UNL     1       9.674   2.059  -1.013  0.00  0.00    +0.002 A 
ATOM     15  C   UNL     1       9.467   1.362  -2.183  0.00  0.00    +0.026 A 
ENDBRANCH   4   6
BRANCH   1  16
ATOM     16  S   UNL     1       0.851  -0.589  -1.490  0.00  0.00    -0.058 S 
BRANCH  16  18
ATOM     17  C   UNL     1      -0.019   1.526   0.010  0.00  0.00    +0.024 C 
ATOM     18  C   UNL     1       0.002  -0.004   0.002  0.00  0.00    +0.084 C 
BRANCH  18  19
ATOM     19  C   UNL     1      -1.412  -0.526   0.013  0.00  0.00    -0.016 A 
ATOM     20  C   UNL     1      -2.034  -0.862  -1.175  0.00  0.00    +0.006 A 
ATOM     21  C   UNL     1      -3.330  -1.340  -1.166  0.00  0.00    +0.000 A 
ATOM     22  C   UNL     1      -4.006  -1.483   0.032  0.00  0.00    +0.001 A 
ATOM     23  C   UNL     1      -3.386  -1.147   1.220  0.00  0.00    +0.020 A 
ATOM     24  C   UNL     1      -2.086  -0.674   1.212  0.00  0.00    +0.045 A 
ATOM     25 CL   UNL     1      -1.303  -0.258   2.705  0.00  0.00    -0.083 Cl
ENDBRANCH  18  19
ENDBRANCH  16  18
ENDBRANCH   1  16
TORSDOF 4
