REMARK  Name = ZINC35574489
REMARK  7 active torsions:
REMARK  status: ('A' for Active; 'I' for Inactive)
REMARK    1  A    between atoms: C_6  and  C_7
REMARK    2  A    between atoms: C_7  and  N_8
REMARK    3  A    between atoms: N_11  and  C_14
REMARK    4  A    between atoms: C_14  and  C_15
REMARK    5  A    between atoms: C_30  and  C_32
REMARK    6  A    between atoms: C_32  and  C_33
REMARK    7  A    between atoms: C_33  and  C_34
REMARK                            x       y       z     vdW  Elec       q    Type
REMARK                         _______ _______ _______ _____ _____    ______ ____
ROOT
ATOM      1  C   UNL     1      -5.239  -2.087  -4.938  0.00  0.00    +0.034 A 
ATOM      2  C   UNL     1      -6.397  -1.584  -5.455  0.00  0.00    +0.091 A 
ATOM      3  C   UNL     1      -7.545  -2.397  -5.468  0.00  0.00    +0.253 A 
ATOM      4  O   UNL     1      -8.597  -1.979  -5.923  0.00  0.00    -0.268 OA
ATOM      5  N   UNL     1      -7.460  -3.648  -4.968  0.00  0.00    -0.295 N 
ATOM      6  H   UNL     1      -8.239  -4.226  -4.967  0.00  0.00    +0.172 HD
ATOM      7  C   UNL     1      -6.277  -4.096  -4.465  0.00  0.00    +0.198 A 
ATOM      8  N   UNL     1      -5.204  -3.330  -4.461  0.00  0.00    -0.223 NA
ATOM      9  N   UNL     1      -6.199  -5.366  -3.960  0.00  0.00    -0.300 N 
ATOM     10  C   UNL     1      -4.911  -5.824  -3.417  0.00  0.00    +0.109 C 
ATOM     11  C   UNL     1      -5.067  -6.591  -2.102  0.00  0.00    +0.038 C 
ATOM     12  C   UNL     1      -6.097  -5.918  -1.217  0.00  0.00    +0.109 C 
ATOM     13  N   UNL     1      -7.415  -6.436  -1.583  0.00  0.00    -0.300 N 
ATOM     14  C   UNL     1      -8.192  -5.961  -2.675  0.00  0.00    +0.126 C 
ATOM     15  C   UNL     1      -7.393  -6.192  -3.981  0.00  0.00    +0.127 C 
ATOM     16  C   UNL     1      -7.929  -7.432  -0.834  0.00  0.00    +0.216 C 
ATOM     17  O   UNL     1      -7.300  -7.868   0.107  0.00  0.00    -0.276 OA
ENDROOT
BRANCH   1  18
ATOM     18  C   UNL     1      -3.994  -1.237  -4.912  0.00  0.00    -0.022 C 
BRANCH  18  22
ATOM     19  N   UNL     1      -1.727  -1.018  -1.371  0.00  0.00    -0.302 NA
ATOM     20  C   UNL     1      -2.081   0.241  -2.042  0.00  0.00    +0.066 C 
ATOM     21  C   UNL     1      -2.470  -0.048  -3.493  0.00  0.00    -0.063 C 
ATOM     22  N   UNL     1      -3.610  -0.974  -3.519  0.00  0.00    +0.385 N 
ATOM     23  C   UNL     1      -3.234  -2.236  -2.868  0.00  0.00    -0.063 C 
ATOM     24  C   UNL     1      -2.851  -1.964  -1.411  0.00  0.00    +0.066 C 
ATOM     25  H   UNL     1      -4.389  -0.561  -3.028  0.00  0.00    -0.081 HD
BRANCH  19  26
ATOM     26  C   UNL     1      -1.293  -0.775   0.011  0.00  0.00    +0.119 C 
BRANCH  26  32
ATOM     27  C   UNL     1      -0.017   1.378   0.010  0.00  0.00    +0.006 A 
ATOM     28  C   UNL     1       1.171   2.086   0.002  0.00  0.00    +0.020 A 
ATOM     29  C   UNL     1       2.378   1.410  -0.013  0.00  0.00    +0.041 A 
ATOM     30  C   UNL     1       2.396   0.027  -0.021  0.00  0.00    +0.020 A 
ATOM     31  C   UNL     1       1.208  -0.679  -0.013  0.00  0.00    +0.006 A 
ATOM     32  C   UNL     1       0.002  -0.004   0.002  0.00  0.00    -0.033 A 
ATOM     33 CL   UNL     1       3.870   2.298  -0.023  0.00  0.00    -0.084 Cl
ENDBRANCH  26  32
ENDBRANCH  19  26
ENDBRANCH  18  22
ENDBRANCH   1  18
BRANCH  16  34
ATOM     34  C   UNL     1      -9.283  -8.003  -1.166  0.00  0.00    +0.096 C 
BRANCH  34  35
ATOM     35  C   UNL     1      -9.627  -9.111  -0.169  0.00  0.00    +0.013 C 
BRANCH  35  36
ATOM     36  C   UNL     1     -11.002  -9.691  -0.506  0.00  0.00    -0.011 C 
ATOM     37  C   UNL     1     -12.099  -8.640  -0.238  0.00  0.00    +0.003 C 
ATOM     38  C   UNL     1     -13.286  -9.464   0.322  0.00  0.00    +0.000 C 
ATOM     39  C   UNL     1     -12.580 -10.525   1.203  0.00  0.00    +0.000 C 
ATOM     40  C   UNL     1     -11.308 -10.890   0.409  0.00  0.00    +0.003 C 
ENDBRANCH  35  36
ENDBRANCH  34  35
ENDBRANCH  16  34
TORSDOF 7
