REMARK  Name = ZINC36558608
REMARK  15 active torsions:
REMARK  status: ('A' for Active; 'I' for Inactive)
REMARK    1  A    between atoms: C_1  and  C_2
REMARK    2  A    between atoms: C_2  and  C_3
REMARK    3  A    between atoms: C_3  and  C_5
REMARK    4  A    between atoms: C_3  and  C_11
REMARK    5  A    between atoms: N_13  and  C_14
REMARK    6  A    between atoms: N_13  and  C_21
REMARK    7  A    between atoms: C_14  and  C_15
REMARK    8  A    between atoms: C_18  and  C_20
REMARK    9  A    between atoms: C_21  and  C_23
REMARK   10  A    between atoms: C_21  and  C_26
REMARK   11  A    between atoms: C_24  and  C_25
REMARK   12  A    between atoms: N_28  and  C_29
REMARK   13  A    between atoms: C_29  and  S_30
REMARK   14  A    between atoms: S_30  and  C_33
REMARK   15  A    between atoms: C_36  and  C_39
REMARK                            x       y       z     vdW  Elec       q    Type
REMARK                         _______ _______ _______ _____ _____    ______ ____
ROOT
ATOM      1  C   UNL     1       2.843  -0.645  -1.295  0.00  0.00    +0.224 C 
ATOM      2  O   UNL     1       3.889  -1.119  -1.685  0.00  0.00    -0.275 OA
ATOM      3  N   UNL     1       2.736   0.684  -1.100  0.00  0.00    -0.279 N 
ENDROOT
BRANCH   1   4
ATOM      4  C   UNL     1       1.662  -1.544  -1.029  0.00  0.00    +0.105 C 
BRANCH   4   5
ATOM      5  C   UNL     1       1.637  -2.655  -2.046  0.00  0.00    -0.036 A 
ATOM      6  C   UNL     1       2.703  -3.531  -2.140  0.00  0.00    +0.004 A 
ATOM      7  C   UNL     1       2.680  -4.551  -3.073  0.00  0.00    +0.000 A 
ATOM      8  C   UNL     1       1.591  -4.695  -3.912  0.00  0.00    +0.000 A 
ATOM      9  C   UNL     1       0.525  -3.820  -3.818  0.00  0.00    +0.000 A 
ATOM     10  C   UNL     1       0.546  -2.803  -2.882  0.00  0.00    +0.004 A 
ENDBRANCH   4   5
BRANCH   4  12
ATOM     11  C   UNL     1       1.688  -1.021   1.414  0.00  0.00    +0.005 C 
ATOM     12  C   UNL     1       1.782  -2.140   0.375  0.00  0.00    +0.014 C 
ENDBRANCH   4  12
ENDBRANCH   1   4
BRANCH   3  13
ATOM     13  C   UNL     1       1.448   1.266  -0.713  0.00  0.00    +0.183 C 
BRANCH  13  14
ATOM     14  C   UNL     1       0.635   1.553  -1.949  0.00  0.00    +0.122 A 
ATOM     15  C   UNL     1      -0.299   0.745  -2.482  0.00  0.00    +0.046 A 
ATOM     16  C   UNL     1      -0.806   1.403  -3.626  0.00  0.00    +0.045 A 
ATOM     17  C   UNL     1      -0.151   2.574  -3.724  0.00  0.00    +0.102 A 
ATOM     18  O   UNL     1       0.717   2.662  -2.703  0.00  0.00    -0.463 OA
ATOM     19  C   UNL     1      -0.359   3.613  -4.795  0.00  0.00    +0.086 C 
ENDBRANCH  13  14
ENDBRANCH   3  13
BRANCH   3  20
ATOM     20  C   UNL     1       3.907   1.546  -1.275  0.00  0.00    +0.185 C 
BRANCH  20  21
ATOM     21  C   UNL     1       4.292   2.146   0.053  0.00  0.00    +0.239 C 
ATOM     22  O   UNL     1       3.496   2.153   0.969  0.00  0.00    -0.273 OA
ATOM     23  N   UNL     1       5.520   2.674   0.224  0.00  0.00    -0.294 N 
ATOM     24  H   UNL     1       6.156   2.668  -0.508  0.00  0.00    +0.150 HD
BRANCH  23  25
ATOM     25  C   UNL     1       5.894   3.256   1.515  0.00  0.00    +0.278 C 
BRANCH  25  26
ATOM     26  S   UNL     1       6.764   2.014   2.510  0.00  0.00    +0.013 S 
ATOM     27  O   UNL     1       7.189   2.582   3.740  0.00  0.00    -0.168 OA
ATOM     28  O   UNL     1       6.053   0.784   2.487  0.00  0.00    -0.168 OA
BRANCH  26  29
ATOM     29  C   UNL     1       8.253   1.688   1.626  0.00  0.00    +0.090 A 
ATOM     30  C   UNL     1       8.285   0.692   0.668  0.00  0.00    +0.027 A 
ATOM     31  C   UNL     1       9.453   0.436  -0.025  0.00  0.00    +0.005 A 
ATOM     32  C   UNL     1      10.590   1.177   0.240  0.00  0.00    -0.050 A 
ATOM     33  C   UNL     1      10.558   2.174   1.197  0.00  0.00    +0.005 A 
ATOM     34  C   UNL     1       9.389   2.432   1.887  0.00  0.00    +0.027 A 
ATOM     35  C   UNL     1      11.864   0.898  -0.515  0.00  0.00    +0.044 C 
ENDBRANCH  26  29
ENDBRANCH  25  26
ENDBRANCH  23  25
ENDBRANCH  20  21
BRANCH  20  36
ATOM     36  C   UNL     1       3.577   2.650  -2.247  0.00  0.00    +0.000 C 
ATOM     37  C   UNL     1       4.197   2.714  -3.400  0.00  0.00    -0.032 C 
ATOM     38  C   UNL     1       5.239   1.684  -3.753  0.00  0.00    +0.035 C 
ENDBRANCH  20  36
ENDBRANCH   3  20
TORSDOF 11
