REMARK  Name = ZINC39985645
REMARK  9 active torsions:
REMARK  status: ('A' for Active; 'I' for Inactive)
REMARK    1  A    between atoms: C_1  and  C_2
REMARK    2  A    between atoms: C_6  and  C_21
REMARK    3  A    between atoms: C_7  and  O_8
REMARK    4  A    between atoms: O_8  and  C_9
REMARK    5  A    between atoms: C_9  and  C_10
REMARK    6  A    between atoms: C_10  and  C_12
REMARK    7  A    between atoms: C_10  and  O_20
REMARK    8  A    between atoms: C_12  and  S_13
REMARK    9  A    between atoms: S_13  and  C_14
REMARK                            x       y       z     vdW  Elec       q    Type
REMARK                         _______ _______ _______ _____ _____    ______ ____
ROOT
ATOM      1  C   UNL     1      -1.043   1.022   4.274  0.00  0.00    +0.162 C 
ENDROOT
BRANCH   1   2
ATOM      2  O   UNL     1      -0.435   2.289   4.011  0.00  0.00    -0.388 OA
ATOM      3  H   UNL     1      -0.956   2.862   3.432  0.00  0.00    +0.210 HD
ENDBRANCH   1   2
BRANCH   1   4
ATOM      4  C   UNL     1      -1.246   0.270   2.957  0.00  0.00    +0.261 C 
BRANCH   4   5
ATOM      5  O   UNL     1       0.025  -0.033   2.381  0.00  0.00    -0.489 OA
BRANCH   5  12
ATOM      6  C   UNL     1      -0.018   1.503   0.010  0.00  0.00    +0.047 C 
ATOM      7  C   UNL     1       0.002  -0.004   0.002  0.00  0.00    -0.009 A 
ATOM      8  C   UNL     1       0.006  -0.689  -1.198  0.00  0.00    +0.007 A 
ATOM      9  C   UNL     1       0.024  -2.071  -1.206  0.00  0.00    +0.001 A 
ATOM     10  C   UNL     1       0.040  -2.772  -0.014  0.00  0.00    +0.007 A 
ATOM     11  C   UNL     1       0.036  -2.092   1.188  0.00  0.00    -0.009 A 
ATOM     12  C   UNL     1       0.023  -0.705   1.199  0.00  0.00    +0.126 A 
ATOM     13  C   UNL     1       0.052  -2.856   2.487  0.00  0.00    +0.047 C 
ENDBRANCH   5  12
ENDBRANCH   4   5
ENDBRANCH   1   4
BRANCH   1  14
ATOM     14  C   UNL     1      -2.397   1.238   4.953  0.00  0.00    +0.111 C 
BRANCH  14  15
ATOM     15  S   UNL     1      -2.156   2.130   6.514  0.00  0.00    -0.094 S 
BRANCH  15  16
ATOM     16  C   UNL     1      -3.785   2.297   7.165  0.00  0.00    +0.160 A 
ATOM     17  N   UNL     1      -4.932   1.879   6.665  0.00  0.00    -0.133 NA
ATOM     18  N   UNL     1      -6.103   2.119   7.346  0.00  0.00    -0.125 NA
ATOM     19  C   UNL     1      -6.074   2.765   8.495  0.00  0.00    +0.180 A 
ATOM     20  S   UNL     1      -4.324   3.072   8.681  0.00  0.00    -0.025 S 
ATOM     21  N   UNL     1      -7.123   3.110   9.339  0.00  0.00    -0.336 N 
ATOM     22  H   UNL     1      -8.033   2.869   9.105  0.00  0.00    +0.144 HD
ATOM     23  H   UNL     1      -6.945   3.592  10.162  0.00  0.00    +0.144 HD
ENDBRANCH  15  16
ENDBRANCH  14  15
ENDBRANCH   1  14
TORSDOF 7
