REMARK  Name = ZINC01002420
REMARK  6 active torsions:
REMARK  status: ('A' for Active; 'I' for Inactive)
REMARK    1  A    between atoms: C_1  and  C_2
REMARK    2  A    between atoms: C_9  and  C_11
REMARK    3  A    between atoms: C_12  and  C_36
REMARK    4  A    between atoms: C_16  and  C_18
REMARK    5  A    between atoms: C_19  and  C_23
REMARK    6  A    between atoms: C_27  and  C_30
REMARK                            x       y       z     vdW  Elec       q    Type
REMARK                         _______ _______ _______ _____ _____    ______ ____
ROOT
ATOM      1  C   UNL     1      -2.233   2.298  -0.896  0.00  0.00    +0.044 C 
ATOM      2  C   UNL     1      -3.165   1.342  -0.746  0.00  0.00    +0.014 C 
ATOM      3  N   UNL     1      -3.470   0.861   0.498  0.00  0.00    -0.321 N 
ATOM      4  C   UNL     1      -3.153   1.577   1.620  0.00  0.00    +0.016 C 
ATOM      5  C   UNL     1      -2.219   2.551   1.570  0.00  0.00    +0.024 C 
ATOM      6  C   UNL     1      -1.495   2.858   0.284  0.00  0.00    +0.097 C 
ATOM      7  C   UNL     1      -1.896   3.305   2.712  0.00  0.00    +0.162 C 
ATOM      8  O   UNL     1      -1.042   4.167   2.636  0.00  0.00    -0.292 OA
ATOM      9  C   UNL     1      -2.587   3.064   4.026  0.00  0.00    +0.088 C 
ATOM     10  C   UNL     1      -3.994   2.522   3.757  0.00  0.00    +0.032 C 
ATOM     11  C   UNL     1      -3.873   1.256   2.906  0.00  0.00    +0.059 C 
ATOM     12  C   UNL     1      -3.880   0.797  -1.955  0.00  0.00    +0.061 C 
ATOM     13  H   UNL     1      -3.974  -0.111   0.603  0.00  0.00    +0.152 HD
ENDROOT
BRANCH   1  22
ATOM     14  C   UNL     1       0.501   5.404  -7.521  0.00  0.00    +0.045 C 
ATOM     15  C   UNL     1       0.081   4.928  -6.154  0.00  0.00    -0.032 A 
ATOM     16  C   UNL     1      -1.187   4.400  -5.954  0.00  0.00    +0.008 A 
ATOM     17  C   UNL     1      -1.530   3.970  -4.685  0.00  0.00    +0.044 A 
ATOM     18  C   UNL     1      -0.603   4.091  -3.656  0.00  0.00    +0.125 A 
ATOM     19  N   UNL     1       0.597   4.601  -3.887  0.00  0.00    -0.240 NA
ATOM     20  C   UNL     1       0.954   5.014  -5.088  0.00  0.00    +0.116 A 
ATOM     21  N   UNL     1      -0.937   3.667  -2.372  0.00  0.00    -0.267 N 
ATOM     22  C   UNL     1      -1.940   2.785  -2.194  0.00  0.00    +0.248 C 
ATOM     23  O   UNL     1      -2.596   2.407  -3.148  0.00  0.00    -0.270 OA
ATOM     24  H   UNL     1      -0.383   4.052  -1.504  0.00  0.00    +0.157 HD
ENDBRANCH   1  22
BRANCH   6  25
ATOM     25  C   UNL     1      -0.115   2.256   0.337  0.00  0.00    +0.005 A 
ATOM     26  C   UNL     1       1.084   2.877   0.454  0.00  0.00    -0.039 A 
ATOM     27  C   UNL     1       2.236   2.113   0.476  0.00  0.00    +0.011 A 
ATOM     28  C   UNL     1       2.132   0.765   0.380  0.00  0.00    +0.046 A 
ATOM     29  S   UNL     1       0.366   0.538   0.252  0.00  0.00    -0.100 S 
ATOM     30  C   UNL     1       1.161   4.378   0.559  0.00  0.00    +0.044 C 
ENDBRANCH   6  25
BRANCH  10  31
ATOM     31  C   UNL     1      -4.668   2.191   5.064  0.00  0.00    -0.044 A 
ATOM     32  C   UNL     1      -4.111   1.250   5.910  0.00  0.00    +0.004 A 
ATOM     33  C   UNL     1      -4.726   0.949   7.111  0.00  0.00    +0.000 A 
ATOM     34  C   UNL     1      -5.903   1.583   7.462  0.00  0.00    +0.000 A 
ATOM     35  C   UNL     1      -6.463   2.521   6.614  0.00  0.00    +0.000 A 
ATOM     36  C   UNL     1      -5.845   2.824   5.415  0.00  0.00    +0.004 A 
ENDBRANCH  10  31
TORSDOF 3
