REMARK  Name = ZINC40982235
REMARK  14 active torsions:
REMARK  status: ('A' for Active; 'I' for Inactive)
REMARK    1  A    between atoms: C_1  and  C_2
REMARK    2  A    between atoms: C_2  and  C_3
REMARK    3  A    between atoms: C_3  and  O_4
REMARK    4  A    between atoms: O_4  and  C_5
REMARK    5  A    between atoms: C_10  and  C_11
REMARK    6  A    between atoms: C_13  and  C_26
REMARK    7  A    between atoms: C_14  and  C_25
REMARK    8  A    between atoms: C_19  and  S_21
REMARK    9  A    between atoms: S_21  and  C_22
REMARK   10  A    between atoms: C_22  and  C_23
REMARK   11  A    between atoms: C_23  and  C_24
REMARK   12  A    between atoms: N_28  and  C_29
REMARK   13  A    between atoms: C_32  and  C_36
REMARK   14  A    between atoms: C_34  and  C_35
REMARK                            x       y       z     vdW  Elec       q    Type
REMARK                         _______ _______ _______ _____ _____    ______ ____
ROOT
ATOM      1  C   UNL     1       0.668  -4.130   1.169  0.00  0.00    +0.181 C 
ATOM      2  C   UNL     1      -0.252  -5.250   1.575  0.00  0.00    +0.060 C 
ATOM      3  C   UNL     1       0.117  -6.539   1.572  0.00  0.00    +0.018 C 
ATOM      4  N   UNL     1       1.371  -6.940   1.181  0.00  0.00    -0.287 N 
ATOM      5  C   UNL     1       2.170  -6.004   0.538  0.00  0.00    +0.219 A 
ATOM      6  N   UNL     1       1.852  -4.686   0.519  0.00  0.00    -0.220 N 
ATOM      7  N   UNL     1       2.853  -4.044  -0.210  0.00  0.00    -0.141 NA
ATOM      8  C   UNL     1       3.706  -4.974  -0.582  0.00  0.00    +0.210 A 
ATOM      9  N   UNL     1       3.284  -6.162  -0.123  0.00  0.00    -0.187 NA
ATOM     10  C   UNL     1      -0.877  -7.583   2.010  0.00  0.00    +0.061 C 
ATOM     11  H   UNL     1       1.687  -7.841   1.349  0.00  0.00    +0.155 HD
ENDROOT
BRANCH   1  17
ATOM     12  C   UNL     1       0.828  -1.991   2.468  0.00  0.00    +0.126 A 
ATOM     13  C   UNL     1       1.206  -1.279   3.596  0.00  0.00    +0.046 A 
ATOM     14  C   UNL     1       1.842  -1.925   4.638  0.00  0.00    +0.004 A 
ATOM     15  C   UNL     1       2.101  -3.281   4.557  0.00  0.00    +0.001 A 
ATOM     16  C   UNL     1       1.724  -3.993   3.434  0.00  0.00    +0.009 A 
ATOM     17  C   UNL     1       1.083  -3.352   2.391  0.00  0.00    +0.023 A 
BRANCH  12  18
ATOM     18  O   UNL     1       0.202  -1.357   1.441  0.00  0.00    -0.492 OA
BRANCH  18  19
ATOM     19  C   UNL     1       0.069   0.062   1.540  0.00  0.00    +0.229 C 
BRANCH  19  21
ATOM     20  C   UNL     1      -0.944   2.089   0.488  0.00  0.00    +0.007 C 
ATOM     21  C   UNL     1      -0.699   0.588   0.325  0.00  0.00    +0.038 C 
ENDBRANCH  19  21
ENDBRANCH  18  19
ENDBRANCH  12  18
ENDBRANCH   1  17
BRANCH   2  22
ATOM     22  C   UNL     1      -1.569  -4.927   1.981  0.00  0.00    +0.248 C 
ATOM     23  O   UNL     1      -2.409  -4.640   1.148  0.00  0.00    -0.270 OA
ATOM     24  N   UNL     1      -1.893  -4.937   3.289  0.00  0.00    -0.281 N 
ATOM     25  H   UNL     1      -1.207  -5.096   3.957  0.00  0.00    +0.155 HD
BRANCH  24  26
ATOM     26  C   UNL     1      -3.216  -4.717   3.684  0.00  0.00    +0.037 A 
ATOM     27  C   UNL     1      -4.250  -4.878   2.771  0.00  0.00    +0.024 A 
ATOM     28  C   UNL     1      -5.556  -4.661   3.163  0.00  0.00    +0.005 A 
ATOM     29  C   UNL     1      -5.835  -4.282   4.464  0.00  0.00    -0.050 A 
ATOM     30  C   UNL     1      -4.808  -4.121   5.375  0.00  0.00    +0.008 A 
ATOM     31  C   UNL     1      -3.500  -4.343   4.991  0.00  0.00    -0.029 A 
ATOM     32  C   UNL     1      -2.381  -4.174   5.986  0.00  0.00    +0.045 C 
ATOM     33  C   UNL     1      -7.261  -4.045   4.889  0.00  0.00    +0.044 C 
ENDBRANCH  24  26
ENDBRANCH   2  22
BRANCH   8  34
ATOM     34  S   UNL     1       5.165  -4.703  -1.531  0.00  0.00    -0.084 S 
BRANCH  34  35
ATOM     35  C   UNL     1       5.890  -6.357  -1.702  0.00  0.00    +0.077 C 
BRANCH  35  36
ATOM     36  C   UNL     1       7.182  -6.266  -2.517  0.00  0.00    +0.008 C 
ATOM     37  C   UNL     1       7.794  -7.661  -2.662  0.00  0.00    +0.004 C 
ENDBRANCH  35  36
ENDBRANCH  34  35
ENDBRANCH   8  34
TORSDOF 9
