REMARK  Name = ZINC24908181
REMARK  7 active torsions:
REMARK  status: ('A' for Active; 'I' for Inactive)
REMARK    1  A    between atoms: C_3  and  C_9
REMARK    2  A    between atoms: C_5  and  C_7
REMARK    3  A    between atoms: C_9  and  N_10
REMARK    4  A    between atoms: C_13  and  C_16
REMARK    5  A    between atoms: C_16  and  N_17
REMARK    6  A    between atoms: C_22  and  C_33
REMARK    7  A    between atoms: C_25  and  C_28
REMARK                            x       y       z     vdW  Elec       q    Type
REMARK                         _______ _______ _______ _____ _____    ______ ____
ROOT
ATOM      1  N   UNL     1      -2.066   6.926  -5.994  0.00  0.00    -0.328 N 
ATOM      2  C   UNL     1      -2.115   7.195  -7.352  0.00  0.00    +0.128 A 
ATOM      3  C   UNL     1      -3.120   6.607  -8.151  0.00  0.00    +0.041 A 
ATOM      4  C   UNL     1      -4.089   5.746  -7.615  0.00  0.00    +0.015 A 
ATOM      5  C   UNL     1      -5.025   5.222  -8.464  0.00  0.00    +0.033 A 
ATOM      6  C   UNL     1      -4.997   5.549  -9.816  0.00  0.00    +0.144 A 
ATOM      7  N   UNL     1      -4.088   6.356 -10.313  0.00  0.00    -0.242 NA
ATOM      8  C   UNL     1      -3.151   6.897  -9.537  0.00  0.00    +0.084 A 
ATOM      9  C   UNL     1      -2.160   7.771 -10.055  0.00  0.00    +0.027 A 
ATOM     10  C   UNL     1      -1.219   8.294  -9.188  0.00  0.00    +0.123 A 
ATOM     11  N   UNL     1      -1.226   8.004  -7.896  0.00  0.00    -0.239 NA
ATOM     12  H   UNL     1      -2.810   6.255  -5.539  0.00  0.00    +0.147 HD
ENDROOT
BRANCH   9  13
ATOM     13  C   UNL     1      -2.134   8.115 -11.497  0.00  0.00    -0.007 A 
ATOM     14  C   UNL     1      -2.059   9.442 -11.911  0.00  0.00    +0.016 A 
ATOM     15  C   UNL     1      -2.033   9.716 -13.235  0.00  0.00    +0.046 A 
ATOM     16  S   UNL     1      -2.129   8.088 -13.960  0.00  0.00    -0.104 S 
ATOM     17  C   UNL     1      -2.190   7.137 -12.451  0.00  0.00    +0.053 A 
ENDBRANCH   9  13
BRANCH   6  18
ATOM     18  C   UNL     1      -6.037   4.961 -10.735  0.00  0.00    +0.434 C 
ATOM     19  F   UNL     1      -5.754   5.328 -12.055  0.00  0.00    -0.164 F 
ATOM     20  F   UNL     1      -6.021   3.566 -10.625  0.00  0.00    -0.164 F 
ATOM     21  F   UNL     1      -7.301   5.443 -10.378  0.00  0.00    -0.164 F 
ENDBRANCH   6  18
BRANCH   1  22
ATOM     22  C   UNL     1      -1.024   7.534  -5.164  0.00  0.00    +0.106 C 
BRANCH  22  26
ATOM     23  N   UNL     1      -0.073   5.854  -1.351  0.00  0.00    +0.382 N 
ATOM     24  C   UNL     1      -1.059   5.127  -2.160  0.00  0.00    -0.078 C 
ATOM     25  C   UNL     1      -0.947   5.569  -3.621  0.00  0.00    -0.014 C 
ATOM     26  C   UNL     1      -1.194   7.077  -3.714  0.00  0.00    +0.003 C 
ATOM     27  C   UNL     1      -0.185   7.808  -2.825  0.00  0.00    -0.014 C 
ATOM     28  C   UNL     1      -0.319   7.301  -1.387  0.00  0.00    -0.078 C 
ATOM     29  H   UNL     1       0.920   5.672  -1.788  0.00  0.00    -0.081 HD
BRANCH  23  30
ATOM     30  C   UNL     1      -0.057   5.357   0.032  0.00  0.00    -0.043 C 
BRANCH  30  33
ATOM     31  C   UNL     1       1.171   1.783   0.001  0.00  0.00    +0.001 A 
ATOM     32  C   UNL     1       1.155   3.167   0.008  0.00  0.00    +0.002 A 
ATOM     33  C   UNL     1      -0.048   3.850   0.023  0.00  0.00    -0.063 A 
ATOM     34  C   UNL     1      -1.240   3.155   0.030  0.00  0.00    +0.020 A 
ATOM     35  C   UNL     1      -1.230   1.759   0.017  0.00  0.00    +0.052 A 
ATOM     36  C   UNL     1      -0.013   1.076   0.008  0.00  0.00    +0.019 A 
BRANCH  35  37
ATOM     37  C   UNL     1      -2.464   1.031   0.019  0.00  0.00    +0.099 C 
ATOM     38  N   UNL     1      -3.442   0.454   0.021  0.00  0.00    -0.191 NA
ENDBRANCH  35  37
ENDBRANCH  30  33
ENDBRANCH  23  30
ENDBRANCH  22  26
ENDBRANCH   1  22
TORSDOF 7
