REMARK  Name = ZINC09054186
REMARK  4 active torsions:
REMARK  status: ('A' for Active; 'I' for Inactive)
REMARK    1  A    between atoms: C_3  and  C_7
REMARK    2  A    between atoms: C_14  and  C_15
REMARK    3  A    between atoms: C_14  and  N_60
REMARK    4  A    between atoms: N_17  and  C_18
REMARK                            x       y       z     vdW  Elec       q    Type
REMARK                         _______ _______ _______ _____ _____    ______ ____
ROOT
ATOM      1  C   UNL     1      -1.664   3.742   4.938  0.00  0.00    +0.019 C 
ENDROOT
BRANCH   1   9
ATOM      2  C   UNL     1      -0.768   1.372   9.737  0.00  0.00    +0.244 C 
ATOM      3  O   UNL     1      -1.075   1.986  10.737  0.00  0.00    -0.273 OA
ATOM      4  N   UNL     1      -0.505   2.035   8.594  0.00  0.00    -0.303 N 
ATOM      5  C   UNL     1      -0.585   3.503   8.537  0.00  0.00    +0.089 C 
ATOM      6  C   UNL     1      -1.466   3.897   7.346  0.00  0.00    -0.059 C 
ATOM      7  C   UNL     1      -1.030   1.791   6.225  0.00  0.00    -0.059 C 
ATOM      8  C   UNL     1      -0.131   1.311   7.370  0.00  0.00    +0.089 C 
ATOM      9  N   UNL     1      -0.925   3.263   6.125  0.00  0.00    +0.387 N 
ATOM     10  H   UNL     1       0.065   3.520   6.027  0.00  0.00    -0.081 HD
BRANCH   2  13
ATOM     11  C   UNL     1      -2.238  -1.971   9.686  0.00  0.00    +0.031 C 
ATOM     12  C   UNL     1      -1.768  -0.741   8.861  0.00  0.00    +0.043 C 
ATOM     13  C   UNL     1      -0.681  -0.132   9.773  0.00  0.00    +0.204 C 
ATOM     14  O   UNL     1      -0.920  -0.601  11.105  0.00  0.00    -0.367 OA
ATOM     15  C   UNL     1      -2.094  -1.429  11.130  0.00  0.00    +0.161 C 
ENDBRANCH   2  13
ENDBRANCH   1   9
BRANCH   1  16
ATOM     16  C   UNL     1      -0.959   3.256   3.698  0.00  0.00    +0.197 C 
ATOM     17  O   UNL     1       0.038   2.571   3.796  0.00  0.00    -0.278 OA
ATOM     18  N   UNL     1      -1.435   3.582   2.481  0.00  0.00    -0.311 N 
ATOM     19  H   UNL     1      -2.232   4.129   2.402  0.00  0.00    +0.149 HD
BRANCH  18  20
ATOM     20  C   UNL     1      -0.750   3.109   1.275  0.00  0.00    +0.035 C 
ATOM     21  C   UNL     1      -0.729   1.579   1.267  0.00  0.00    +0.029 C 
ATOM     22  C   UNL     1      -0.013   1.086   0.008  0.00  0.00    -0.008 C 
ATOM     23  C   UNL     1      -0.753   1.593  -1.232  0.00  0.00    +0.007 C 
ATOM     24  C   UNL     1      -0.773   3.123  -1.223  0.00  0.00    -0.008 C 
ATOM     25  C   UNL     1      -1.490   3.616   0.036  0.00  0.00    +0.029 C 
ATOM     26  C   UNL     1       0.662   3.652  -1.234  0.00  0.00    +0.007 C 
ATOM     27  C   UNL     1       1.402   3.145   0.006  0.00  0.00    -0.008 C 
ATOM     28  C   UNL     1       1.423   1.615  -0.003  0.00  0.00    +0.007 C 
ATOM     29  C   UNL     1       0.686   3.639   1.264  0.00  0.00    +0.029 C 
ENDBRANCH  18  20
ENDBRANCH   1  16
TORSDOF 4
