REMARK  Name = ZINC26805443
REMARK  10 active torsions:
REMARK  status: ('A' for Active; 'I' for Inactive)
REMARK    1  A    between atoms: C_1  and  C_2
REMARK    2  A    between atoms: C_7  and  C_8
REMARK    3  A    between atoms: N_10  and  C_11
REMARK    4  A    between atoms: C_11  and  C_22
REMARK    5  A    between atoms: C_12  and  C_13
REMARK    6  A    between atoms: C_17  and  N_19
REMARK    7  A    between atoms: N_24  and  C_25
REMARK    8  A    between atoms: C_26  and  C_38
REMARK    9  A    between atoms: N_27  and  C_37
REMARK   10  A    between atoms: N_28  and  C_31
REMARK                            x       y       z     vdW  Elec       q    Type
REMARK                         _______ _______ _______ _____ _____    ______ ____
ROOT
ATOM      1  C   UNL     1      -0.413   4.602   0.391  0.00  0.00    +0.097 C 
ATOM      2  C   UNL     1       0.411   3.598   0.012  0.00  0.00    +0.036 C 
ENDROOT
BRANCH   2   3
ATOM      3  C   UNL     1      -0.140   2.265  -0.280  0.00  0.00    -0.021 A 
ATOM      4  C   UNL     1      -1.489   2.121  -0.622  0.00  0.00    +0.008 A 
ATOM      5  C   UNL     1      -1.996   0.870  -0.900  0.00  0.00    +0.003 A 
ATOM      6  C   UNL     1      -1.177  -0.244  -0.830  0.00  0.00    +0.033 A 
ATOM      7  C   UNL     1       0.159  -0.110  -0.492  0.00  0.00    +0.127 A 
ATOM      8  C   UNL     1       0.682   1.136  -0.217  0.00  0.00    +0.040 A 
BRANCH   7   9
ATOM      9  N   UNL     1       1.027  -1.307  -0.427  0.00  0.00    +0.056 N 
ATOM     10  O   UNL     1       0.567  -2.408  -0.670  0.00  0.00    -0.126 OA
ATOM     11  O   UNL     1       2.203  -1.191  -0.129  0.00  0.00    -0.126 OA
ENDBRANCH   7   9
ENDBRANCH   2   3
BRANCH   1  14
ATOM     12  C   UNL     1      -2.718   5.020  -0.020  0.00  0.00    +0.249 C 
ATOM     13  O   UNL     1      -2.409   5.920  -0.776  0.00  0.00    -0.270 OA
ATOM     14  N   UNL     1      -1.762   4.341   0.645  0.00  0.00    -0.277 N 
ATOM     15  H   UNL     1      -2.044   3.581   1.389  0.00  0.00    +0.155 HD
BRANCH  12  22
ATOM     16  C   UNL     1      -4.748   6.412  -1.540  0.00  0.00    +0.044 C 
ATOM     17  C   UNL     1      -5.129   5.334  -0.558  0.00  0.00    -0.038 A 
ATOM     18  C   UNL     1      -6.456   5.002  -0.377  0.00  0.00    +0.004 A 
ATOM     19  C   UNL     1      -6.808   4.013   0.523  0.00  0.00    +0.000 A 
ATOM     20  C   UNL     1      -5.833   3.349   1.248  0.00  0.00    +0.001 A 
ATOM     21  C   UNL     1      -4.503   3.668   1.072  0.00  0.00    +0.013 A 
ATOM     22  C   UNL     1      -4.141   4.669   0.169  0.00  0.00    +0.040 A 
ENDBRANCH  12  22
ENDBRANCH   1  14
BRANCH   1  23
ATOM     23  C   UNL     1       0.111   5.968   0.535  0.00  0.00    +0.263 C 
ATOM     24  O   UNL     1      -0.630   6.871   0.875  0.00  0.00    -0.268 OA
ATOM     25  N   UNL     1       1.412   6.220   0.289  0.00  0.00    -0.275 N 
ATOM     26  H   UNL     1       2.064   5.421  -0.093  0.00  0.00    +0.155 HD
BRANCH  25  27
ATOM     27  C   UNL     1       1.936   7.506   0.521  0.00  0.00    +0.122 A 
ATOM     28  C   UNL     1       2.558   8.294  -0.385  0.00  0.00    +0.059 A 
ATOM     29  N   UNL     1       2.917   9.466   0.228  0.00  0.00    -0.282 N 
ATOM     30  N   UNL     1       2.519   9.423   1.569  0.00  0.00    -0.216 N 
ATOM     31  C   UNL     1       1.914   8.237   1.789  0.00  0.00    +0.293 A 
ATOM     32  O   UNL     1       1.439   7.849   2.841  0.00  0.00    -0.264 OA
ATOM     33  C   UNL     1       3.611  10.583  -0.416  0.00  0.00    +0.171 C 
ATOM     34  C   UNL     1       2.813   7.943  -1.828  0.00  0.00    +0.067 C 
BRANCH  30  35
ATOM     35  C   UNL     1       2.716  10.432   2.517  0.00  0.00    +0.067 A 
ATOM     36  C   UNL     1       3.835  11.251   2.439  0.00  0.00    +0.028 A 
ATOM     37  C   UNL     1       4.023  12.251   3.373  0.00  0.00    +0.002 A 
ATOM     38  C   UNL     1       3.104  12.430   4.392  0.00  0.00    +0.000 A 
ATOM     39  C   UNL     1       1.992  11.612   4.475  0.00  0.00    +0.002 A 
ATOM     40  C   UNL     1       1.795  10.615   3.540  0.00  0.00    +0.028 A 
ENDBRANCH  30  35
ENDBRANCH  25  27
ENDBRANCH   1  23
TORSDOF 7
