REMARK  Name = ZINC63375706
REMARK  6 active torsions:
REMARK  status: ('A' for Active; 'I' for Inactive)
REMARK    1  A    between atoms: C_1  and  O_2
REMARK    2  A    between atoms: O_2  and  C_3
REMARK    3  A    between atoms: C_10  and  C_18
REMARK    4  A    between atoms: C_20  and  O_35
REMARK    5  A    between atoms: N_22  and  C_28
REMARK    6  A    between atoms: C_28  and  C_29
REMARK                            x       y       z     vdW  Elec       q    Type
REMARK                         _______ _______ _______ _____ _____    ______ ____
ROOT
ATOM      1  C   UNL     1       2.591  -5.069   5.980  0.00  0.00    +0.141 C 
ATOM      2  C   UNL     1       1.871  -5.950   7.003  0.00  0.00    +0.218 C 
ATOM      3  N   UNL     1       0.820  -5.174   7.663  0.00  0.00    -0.282 N 
ATOM      4  C   UNL     1       0.992  -3.870   7.936  0.00  0.00    +0.141 C 
ATOM      5  S   UNL     1      -0.203  -3.041   8.838  0.00  0.00    -0.018 S 
ATOM      6  N   UNL     1       2.079  -3.202   7.517  0.00  0.00    -0.267 N 
ATOM      7  C   UNL     1       2.919  -3.740   6.612  0.00  0.00    +0.227 C 
ATOM      8  O   UNL     1       3.938  -3.158   6.307  0.00  0.00    -0.275 OA
ATOM      9  H   UNL     1       2.263  -2.318   7.872  0.00  0.00    +0.157 HD
ENDROOT
BRANCH   1  16
ATOM     10  C   UNL     1       0.626  -0.619   1.042  0.00  0.00    +0.121 A 
ATOM     11  C   UNL     1       1.202   0.173   2.051  0.00  0.00    +0.047 A 
ATOM     12  C   UNL     1       1.842  -0.360   3.113  0.00  0.00    +0.029 A 
ATOM     13  C   UNL     1       1.956  -1.815   3.243  0.00  0.00    +0.043 A 
ATOM     14  N   UNL     1       2.496  -2.572   4.170  0.00  0.00    -0.376 N 
ATOM     15  C   UNL     1       2.400  -3.964   3.742  0.00  0.00    +0.124 C 
ATOM     16  C   UNL     1       1.685  -4.848   4.768  0.00  0.00    +0.096 C 
ATOM     17  N   UNL     1       1.381  -6.140   4.133  0.00  0.00    -0.310 NA
ATOM     18  C   UNL     1       0.393  -6.037   3.054  0.00  0.00    +0.085 C 
ATOM     19  C   UNL     1       0.968  -5.207   1.891  0.00  0.00    +0.048 C 
ATOM     20  C   UNL     1       1.537  -3.941   2.490  0.00  0.00    -0.036 C 
ATOM     21  C   UNL     1       1.340  -2.654   2.183  0.00  0.00    +0.003 A 
ATOM     22  C   UNL     1       0.666  -1.971   1.072  0.00  0.00    +0.055 A 
ATOM     23  H   UNL     1       2.223  -6.591   3.809  0.00  0.00    +0.122 HD
ATOM     24  H   UNL     1       2.892  -2.260   4.998  0.00  0.00    +0.160 HD
BRANCH  10  26
ATOM     25  C   UNL     1      -0.017   1.425   0.010  0.00  0.00    +0.277 C 
ATOM     26  O   UNL     1       0.002  -0.004   0.002  0.00  0.00    -0.495 OA
ENDBRANCH  10  26
ENDBRANCH   1  16
BRANCH   2  27
ATOM     27  O   UNL     1       1.288  -7.073   6.338  0.00  0.00    -0.373 OA
ATOM     28  H   UNL     1       0.814  -7.676   6.927  0.00  0.00    +0.212 HD
ENDBRANCH   2  27
BRANCH   3  29
ATOM     29  C   UNL     1      -0.438  -5.829   8.031  0.00  0.00    +0.144 C 
BRANCH  29  30
ATOM     30  C   UNL     1      -0.323  -6.391   9.425  0.00  0.00    -0.030 A 
ATOM     31  C   UNL     1       0.141  -7.679   9.614  0.00  0.00    +0.005 A 
ATOM     32  C   UNL     1       0.246  -8.195  10.892  0.00  0.00    +0.000 A 
ATOM     33  C   UNL     1      -0.111  -7.422  11.981  0.00  0.00    +0.000 A 
ATOM     34  C   UNL     1      -0.574  -6.134  11.792  0.00  0.00    +0.000 A 
ATOM     35  C   UNL     1      -0.676  -5.617  10.514  0.00  0.00    +0.005 A 
ENDBRANCH  29  30
ENDBRANCH   3  29
TORSDOF 5
