REMARK  Name = ZINC57608856
REMARK  11 active torsions:
REMARK  status: ('A' for Active; 'I' for Inactive)
REMARK    1  A    between atoms: C_1  and  C_2
REMARK    2  A    between atoms: C_2  and  O_3
REMARK    3  A    between atoms: O_3  and  C_4
REMARK    4  A    between atoms: C_11  and  C_16
REMARK    5  A    between atoms: C_16  and  C_18
REMARK    6  A    between atoms: C_16  and  N_29
REMARK    7  A    between atoms: N_22  and  C_23
REMARK    8  A    between atoms: N_29  and  C_30
REMARK    9  A    between atoms: N_29  and  C_36
REMARK   10  A    between atoms: C_30  and  C_31
REMARK   11  A    between atoms: C_36  and  C_37
REMARK                            x       y       z     vdW  Elec       q    Type
REMARK                         _______ _______ _______ _____ _____    ______ ____
ROOT
ATOM      1  C   UNL     1       2.713  -7.250   5.422  0.00  0.00    +0.163 C 
ENDROOT
BRANCH   1   9
ATOM      2  C   UNL     1       2.598  -3.725   0.325  0.00  0.00    +0.121 A 
ATOM      3  C   UNL     1       2.659  -4.777  -0.587  0.00  0.00    +0.047 A 
ATOM      4  C   UNL     1       2.718  -6.081  -0.149  0.00  0.00    +0.030 A 
ATOM      5  C   UNL     1       2.716  -6.358   1.214  0.00  0.00    +0.049 A 
ATOM      6  C   UNL     1       2.653  -5.298   2.138  0.00  0.00    +0.002 A 
ATOM      7  C   UNL     1       2.600  -3.977   1.681  0.00  0.00    +0.055 A 
ATOM      8  C   UNL     1       2.652  -5.604   3.570  0.00  0.00    +0.021 A 
ATOM      9  C   UNL     1       2.712  -6.902   3.956  0.00  0.00    +0.042 A 
ATOM     10  C   UNL     1       2.773  -7.929   2.989  0.00  0.00    +0.254 A 
ATOM     11  O   UNL     1       2.826  -9.089   3.358  0.00  0.00    -0.268 OA
ATOM     12  N   UNL     1       2.774  -7.659   1.672  0.00  0.00    -0.322 N 
ATOM     13  H   UNL     1       2.817  -8.388   1.035  0.00  0.00    +0.169 HD
BRANCH   2  14
ATOM     14  O   UNL     1       2.540  -2.443  -0.125  0.00  0.00    -0.492 OA
BRANCH  14  16
ATOM     15  C   UNL     1       2.473  -0.756  -1.854  0.00  0.00    +0.048 C 
ATOM     16  C   UNL     1       2.541  -2.252  -1.542  0.00  0.00    +0.225 C 
ENDBRANCH  14  16
ENDBRANCH   2  14
ENDBRANCH   1   9
BRANCH   1  17
ATOM     17  C   UNL     1       3.959  -8.031   5.752  0.00  0.00    +0.173 A 
ATOM     18  N   UNL     1       4.190  -9.291   5.473  0.00  0.00    -0.111 NA
ATOM     19  N   UNL     1       5.363  -9.588   5.916  0.00  0.00    -0.023 NA
ATOM     20  N   UNL     1       5.885  -8.550   6.471  0.00  0.00    -0.044 NA
ATOM     21  N   UNL     1       5.053  -7.569   6.386  0.00  0.00    -0.224 N 
BRANCH  21  22
ATOM     22  C   UNL     1       5.258  -6.207   6.886  0.00  0.00    +0.111 C 
ATOM     23  C   UNL     1       6.516  -5.614   6.251  0.00  0.00    +0.027 C 
ATOM     24  C   UNL     1       6.731  -4.192   6.774  0.00  0.00    +0.002 C 
ATOM     25  C   UNL     1       6.896  -4.228   8.295  0.00  0.00    +0.000 C 
ATOM     26  C   UNL     1       5.637  -4.821   8.931  0.00  0.00    +0.002 C 
ATOM     27  C   UNL     1       5.423  -6.243   8.407  0.00  0.00    +0.027 C 
ENDBRANCH  21  22
ENDBRANCH   1  17
BRANCH   1  28
ATOM     28  N   UNL     1       1.529  -8.063   5.733  0.00  0.00    -0.279 NA
BRANCH  28  29
ATOM     29  C   UNL     1       1.470  -8.380   7.166  0.00  0.00    +0.159 C 
BRANCH  29  30
ATOM     30  C   UNL     1       2.411  -9.518   7.468  0.00  0.00    +0.119 A 
ATOM     31  C   UNL     1       3.564  -9.424   8.155  0.00  0.00    +0.046 A 
ATOM     32  C   UNL     1       4.120 -10.723   8.200  0.00  0.00    +0.041 A 
ATOM     33  C   UNL     1       3.274 -11.533   7.539  0.00  0.00    +0.195 A 
ATOM     34  O   UNL     1       2.238 -10.798   7.103  0.00  0.00    -0.467 OA
ENDBRANCH  29  30
ENDBRANCH  28  29
BRANCH  28  35
ATOM     35  C   UNL     1       0.299  -7.392   5.291  0.00  0.00    +0.117 C 
BRANCH  35  36
ATOM     36  C   UNL     1       0.032  -7.731   3.824  0.00  0.00    +0.132 C 
ATOM     37  C   UNL     1      -1.347  -7.180   3.401  0.00  0.00    +0.035 C 
ATOM     38  C   UNL     1      -1.891  -8.316   2.491  0.00  0.00    +0.031 C 
ATOM     39  C   UNL     1      -1.296  -9.563   3.191  0.00  0.00    +0.160 C 
ATOM     40  O   UNL     1       0.004  -9.153   3.651  0.00  0.00    -0.375 OA
ENDBRANCH  35  36
ENDBRANCH  28  35
ENDBRANCH   1  28
TORSDOF 10
