REMARK  Name = ZINC38893953
REMARK  9 active torsions:
REMARK  status: ('A' for Active; 'I' for Inactive)
REMARK    1  A    between atoms: C_3  and  C_6
REMARK    2  A    between atoms: C_6  and  S_7
REMARK    3  A    between atoms: S_7  and  C_8
REMARK    4  A    between atoms: C_8  and  C_9
REMARK    5  A    between atoms: C_9  and  N_10
REMARK    6  A    between atoms: C_11  and  C_13
REMARK    7  A    between atoms: N_18  and  C_20
REMARK    8  A    between atoms: C_20  and  C_21
REMARK    9  A    between atoms: C_23  and  C_26
REMARK                            x       y       z     vdW  Elec       q    Type
REMARK                         _______ _______ _______ _____ _____    ______ ____
ROOT
ATOM      1  C   UNL     1      10.430   0.448   3.642  0.00  0.00    +0.058 C 
ATOM      2  C   UNL     1      10.892   1.693   2.878  0.00  0.00    +0.009 C 
ATOM      3  C   UNL     1      12.420   1.688   2.791  0.00  0.00    -0.018 C 
ATOM      4  C   UNL     1      13.006   1.623   4.203  0.00  0.00    -0.078 C 
ATOM      5  N   UNL     1      12.549   0.399   4.870  0.00  0.00    +0.386 N 
ATOM      6  C   UNL     1      11.089   0.428   5.022  0.00  0.00    -0.065 C 
ATOM      7  H   UNL     1      12.812  -0.403   4.317  0.00  0.00    -0.081 HD
ENDROOT
BRANCH   1   9
ATOM      8  N   UNL     1       8.139   0.506   2.710  0.00  0.00    -0.314 N 
ATOM      9  C   UNL     1       8.931   0.482   3.800  0.00  0.00    +0.214 C 
ATOM     10  O   UNL     1       8.439   0.488   4.908  0.00  0.00    -0.276 OA
ATOM     11  H   UNL     1       8.533   0.501   1.824  0.00  0.00    +0.149 HD
BRANCH   8  12
ATOM     12  C   UNL     1       6.682   0.539   2.865  0.00  0.00    +0.115 C 
BRANCH  12  13
ATOM     13  C   UNL     1       6.024   0.561   1.484  0.00  0.00    +0.088 C 
BRANCH  13  14
ATOM     14  S   UNL     1       4.220   0.602   1.675  0.00  0.00    -0.151 S 
BRANCH  14  15
ATOM     15  C   UNL     1       3.599   0.625  -0.029  0.00  0.00    +0.143 C 
BRANCH  15  18
ATOM     16  C   UNL     1      -0.016   1.341   0.009  0.00  0.00    +0.041 A 
ATOM     17  C   UNL     1       1.331   1.769  -0.001  0.00  0.00    +0.045 A 
ATOM     18  C   UNL     1       2.092   0.660  -0.014  0.00  0.00    +0.115 A 
ATOM     19  O   UNL     1       1.282  -0.411  -0.012  0.00  0.00    -0.467 OA
ATOM     20  C   UNL     1       0.002  -0.004   0.002  0.00  0.00    +0.195 A 
ENDBRANCH  15  18
ENDBRANCH  14  15
ENDBRANCH  13  14
ENDBRANCH  12  13
ENDBRANCH   8  12
ENDBRANCH   1   9
BRANCH   5  21
ATOM     21  C   UNL     1      13.176   0.302   6.196  0.00  0.00    +0.022 C 
BRANCH  21  22
ATOM     22  C   UNL     1      14.665   0.138   6.036  0.00  0.00    +0.211 A 
ATOM     23  N   UNL     1      15.536   1.105   5.982  0.00  0.00    -0.193 NA
ATOM     24  C   UNL     1      16.775   0.601   5.836  0.00  0.00    +0.202 A 
ATOM     25  N   UNL     1      16.693  -0.706   5.797  0.00  0.00    -0.056 NA
ATOM     26  O   UNL     1      15.317  -1.028   5.933  0.00  0.00    -0.340 OA
BRANCH  24  27
ATOM     27  C   UNL     1      18.025   1.394   5.736  0.00  0.00    +0.023 A 
ATOM     28  C   UNL     1      17.977   2.785   5.797  0.00  0.00    +0.014 A 
ATOM     29  C   UNL     1      19.142   3.518   5.704  0.00  0.00    +0.039 A 
ATOM     30  C   UNL     1      20.358   2.873   5.550  0.00  0.00    +0.123 A 
ATOM     31  C   UNL     1      20.411   1.490   5.488  0.00  0.00    +0.039 A 
ATOM     32  C   UNL     1      19.251   0.749   5.586  0.00  0.00    +0.014 A 
ATOM     33  F   UNL     1      21.497   3.595   5.460  0.00  0.00    -0.205 F 
ENDBRANCH  24  27
ENDBRANCH  21  22
ENDBRANCH   5  21
TORSDOF 9
