REMARK  Name = ZINC36308369
REMARK  17 active torsions:
REMARK  status: ('A' for Active; 'I' for Inactive)
REMARK    1  A    between atoms: C_1  and  C_2
REMARK    2  A    between atoms: C_3  and  C_20
REMARK    3  A    between atoms: C_4  and  O_13
REMARK    4  A    between atoms: N_5  and  C_7
REMARK    5  A    between atoms: O_13  and  C_14
REMARK    6  A    between atoms: C_20  and  N_21
REMARK    7  A    between atoms: N_21  and  C_22
REMARK    8  A    between atoms: N_21  and  C_28
REMARK    9  A    between atoms: C_22  and  C_23
REMARK   10  A    between atoms: C_28  and  C_29
REMARK   11  A    between atoms: C_29  and  C_31
REMARK   12  A    between atoms: C_29  and  O_37
REMARK   13  A    between atoms: C_31  and  O_32
REMARK   14  A    between atoms: O_32  and  C_33
REMARK   15  A    between atoms: C_33  and  C_34
REMARK   16  A    between atoms: C_33  and  C_35
REMARK   17  A    between atoms: C_33  and  C_36
REMARK                            x       y       z     vdW  Elec       q    Type
REMARK                         _______ _______ _______ _____ _____    ______ ____
ROOT
ATOM      1  C   UNL     1       0.705  -3.410  -2.130  0.00  0.00    +0.068 C 
ATOM      2  C   UNL     1      -0.243  -2.897  -3.183  0.00  0.00    +0.065 A 
ATOM      3  C   UNL     1      -0.631  -1.565  -3.354  0.00  0.00    +0.021 A 
ATOM      4  C   UNL     1      -1.491  -1.512  -4.406  0.00  0.00    +0.225 A 
ATOM      5  N   UNL     1      -1.636  -2.779  -4.880  0.00  0.00    -0.200 N 
ATOM      6  N   UNL     1      -0.837  -3.622  -4.097  0.00  0.00    -0.168 NA
ENDROOT
BRANCH   5   7
ATOM      7  C   UNL     1      -2.436  -3.170  -5.962  0.00  0.00    +0.069 A 
ATOM      8  C   UNL     1      -3.716  -2.651  -6.103  0.00  0.00    +0.028 A 
ATOM      9  C   UNL     1      -4.503  -3.038  -7.170  0.00  0.00    +0.002 A 
ATOM     10  C   UNL     1      -4.017  -3.942  -8.097  0.00  0.00    +0.000 A 
ATOM     11  C   UNL     1      -2.743  -4.460  -7.959  0.00  0.00    +0.002 A 
ATOM     12  C   UNL     1      -1.949  -4.072  -6.897  0.00  0.00    +0.028 A 
ENDBRANCH   5   7
BRANCH   4  13
ATOM     13  O   UNL     1      -2.096  -0.399  -4.894  0.00  0.00    -0.438 OA
BRANCH  13  14
ATOM     14  C   UNL     1      -3.269  -0.011  -4.330  0.00  0.00    +0.130 A 
ATOM     15  C   UNL     1      -3.761  -0.681  -3.219  0.00  0.00    +0.046 A 
ATOM     16  C   UNL     1      -4.955  -0.285  -2.647  0.00  0.00    +0.004 A 
ATOM     17  C   UNL     1      -5.660   0.778  -3.182  0.00  0.00    +0.000 A 
ATOM     18  C   UNL     1      -5.172   1.447  -4.289  0.00  0.00    +0.004 A 
ATOM     19  C   UNL     1      -3.976   1.059  -4.861  0.00  0.00    +0.046 A 
ENDBRANCH  13  14
ENDBRANCH   4  13
BRANCH   3  20
ATOM     20  C   UNL     1      -0.178  -0.395  -2.520  0.00  0.00    -0.035 C 
BRANCH  20  21
ATOM     21  N   UNL     1       1.119   0.086  -3.015  0.00  0.00    +0.389 N 
ATOM     22  H   UNL     1       1.774  -0.680  -3.041  0.00  0.00    -0.081 HD
BRANCH  21  23
ATOM     23  C   UNL     1       1.627   1.134  -2.119  0.00  0.00    -0.003 C 
BRANCH  23  24
ATOM     24  C   UNL     1       1.925   0.539  -0.767  0.00  0.00    +0.089 A 
ATOM     25  C   UNL     1       3.115   0.061  -0.363  0.00  0.00    +0.042 A 
ATOM     26  C   UNL     1       2.944  -0.397   0.963  0.00  0.00    +0.041 A 
ATOM     27  C   UNL     1       1.659  -0.172   1.290  0.00  0.00    +0.195 A 
ATOM     28  O   UNL     1       1.048   0.400   0.240  0.00  0.00    -0.470 OA
ENDBRANCH  23  24
ENDBRANCH  21  23
BRANCH  21  29
ATOM     29  C   UNL     1       0.953   0.636  -4.367  0.00  0.00    -0.044 C 
BRANCH  29  30
ATOM     30  C   UNL     1       2.321   1.023  -4.932  0.00  0.00    +0.124 C 
BRANCH  30  31
ATOM     31  O   UNL     1       3.118  -0.152  -5.096  0.00  0.00    -0.391 OA
ATOM     32  H   UNL     1       2.736  -0.806  -5.698  0.00  0.00    +0.210 HD
ENDBRANCH  30  31
BRANCH  30  33
ATOM     33  C   UNL     1       2.139   1.709  -6.287  0.00  0.00    +0.189 C 
BRANCH  33  34
ATOM     34  O   UNL     1       3.404   2.174  -6.760  0.00  0.00    -0.372 OA
BRANCH  34  35
ATOM     35  C   UNL     1       3.345   2.833  -8.026  0.00  0.00    +0.061 C 
ATOM     36  C   UNL     1       2.426   4.053  -7.923  0.00  0.00    +0.041 C 
ATOM     37  C   UNL     1       4.749   3.286  -8.432  0.00  0.00    +0.041 C 
ATOM     38  C   UNL     1       2.796   1.868  -9.079  0.00  0.00    +0.041 C 
ENDBRANCH  34  35
ENDBRANCH  33  34
ENDBRANCH  30  33
ENDBRANCH  29  30
ENDBRANCH  21  29
ENDBRANCH  20  21
ENDBRANCH   3  20
TORSDOF 13
