REMARK  Name = ZINC09594108
REMARK  7 active torsions:
REMARK  status: ('A' for Active; 'I' for Inactive)
REMARK    1  A    between atoms: C_1  and  O_2
REMARK    2  A    between atoms: O_2  and  C_3
REMARK    3  A    between atoms: C_8  and  O_9
REMARK    4  A    between atoms: O_9  and  C_10
REMARK    5  A    between atoms: C_14  and  C_15
REMARK    6  A    between atoms: C_14  and  N_51
REMARK    7  A    between atoms: C_21  and  C_26
REMARK                            x       y       z     vdW  Elec       q    Type
REMARK                         _______ _______ _______ _____ _____    ______ ____
ROOT
ATOM      1  C   UNL     1      -0.393   9.310   1.165  0.00  0.00    -0.003 C 
ENDROOT
BRANCH   1  11
ATOM      2  C   UNL     1      -0.787   2.893   1.346  0.00  0.00    +0.162 A 
ATOM      3  C   UNL     1      -0.256   3.751   0.400  0.00  0.00    +0.053 A 
ATOM      4  C   UNL     1      -0.364   5.125   0.560  0.00  0.00    -0.044 A 
ATOM      5  C   UNL     1      -0.999   5.641   1.669  0.00  0.00    -0.057 A 
ATOM      6  C   UNL     1      -1.529   4.784   2.623  0.00  0.00    +0.051 A 
ATOM      7  C   UNL     1      -1.426   3.413   2.468  0.00  0.00    +0.162 A 
ATOM      8  C   UNL     1      -1.142   7.126   1.884  0.00  0.00    -0.042 C 
ATOM      9  C   UNL     1      -0.334   7.433  -0.366  0.00  0.00    -0.073 C 
ATOM     10  C   UNL     1       0.232   6.018  -0.498  0.00  0.00    +0.017 C 
ATOM     11  N   UNL     1      -0.177   7.851   1.042  0.00  0.00    +0.387 N 
ATOM     12  H   UNL     1       0.775   7.627   1.354  0.00  0.00    -0.081 HD
BRANCH   2  14
ATOM     13  C   UNL     1      -0.013   1.086   0.008  0.00  0.00    +0.277 C 
ATOM     14  O   UNL     1      -0.682   1.547   1.184  0.00  0.00    -0.491 OA
ENDBRANCH   2  14
BRANCH   7  15
ATOM     15  O   UNL     1      -1.946   2.579   3.407  0.00  0.00    -0.491 OA
ATOM     16  C   UNL     1      -2.587   3.185   4.530  0.00  0.00    +0.277 C 
ENDBRANCH   7  15
ENDBRANCH   1  11
BRANCH   1  17
ATOM     17  C   UNL     1      -1.742   9.688   0.610  0.00  0.00    +0.094 A 
ATOM     18  N   UNL     1      -2.134  10.987   0.633  0.00  0.00    -0.312 N 
ATOM     19  H   UNL     1      -1.540  11.656   1.008  0.00  0.00    +0.170 HD
ATOM     20  C   UNL     1      -3.329  11.366   0.143  0.00  0.00    +0.260 A 
ATOM     21  O   UNL     1      -3.664  12.538   0.167  0.00  0.00    -0.267 OA
ATOM     22  C   UNL     1      -4.202  10.372  -0.403  0.00  0.00    +0.080 A 
ATOM     23  C   UNL     1      -5.531  10.530  -0.982  0.00  0.00    +0.010 A 
ATOM     24  C   UNL     1      -6.176   9.427  -1.441  0.00  0.00    +0.057 A 
ATOM     25  S   UNL     1      -5.022   8.109  -1.115  0.00  0.00    -0.076 S 
ATOM     26  C   UNL     1      -3.714   9.055  -0.380  0.00  0.00    +0.116 A 
ATOM     27  N   UNL     1      -2.517   8.758   0.118  0.00  0.00    -0.229 NA
BRANCH  23  28
ATOM     28  C   UNL     1      -6.163  11.863  -1.069  0.00  0.00    +0.021 A 
ATOM     29  C   UNL     1      -6.744  12.474  -2.148  0.00  0.00    +0.016 A 
ATOM     30  C   UNL     1      -7.278  13.735  -1.986  0.00  0.00    +0.008 A 
ATOM     31  C   UNL     1      -7.202  14.335  -0.771  0.00  0.00    +0.046 A 
ATOM     32  S   UNL     1      -6.360  13.099   0.204  0.00  0.00    -0.097 S 
ENDBRANCH  23  28
ENDBRANCH   1  17
TORSDOF 5
