REMARK  Name = ZINC05182212
REMARK  6 active torsions:
REMARK  status: ('A' for Active; 'I' for Inactive)
REMARK    1  A    between atoms: C_6  and  O_7
REMARK    2  A    between atoms: O_7  and  C_8
REMARK    3  A    between atoms: C_8  and  C_9
REMARK    4  A    between atoms: C_9  and  C_10
REMARK    5  A    between atoms: C_10  and  C_11
REMARK    6  A    between atoms: C_11  and  N_12
REMARK                            x       y       z     vdW  Elec       q    Type
REMARK                         _______ _______ _______ _____ _____    ______ ____
ROOT
ATOM      1  N   UNL     1      -3.681  -6.325   0.005  0.00  0.00    -0.210 N 
ATOM      2  C   UNL     1      -3.631  -6.996   1.171  0.00  0.00    +0.279 A 
ATOM      3  O   UNL     1      -3.666  -6.398   2.233  0.00  0.00    -0.265 OA
ATOM      4  C   UNL     1      -3.535  -8.428   1.141  0.00  0.00    +0.079 A 
ATOM      5  C   UNL     1      -3.467  -9.351   2.272  0.00  0.00    -0.023 A 
ATOM      6  C   UNL     1      -3.380 -10.668   1.983  0.00  0.00    -0.004 A 
ATOM      7  S   UNL     1      -3.386 -10.750   0.213  0.00  0.00    -0.071 S 
ATOM      8  C   UNL     1      -3.502  -9.013  -0.134  0.00  0.00    +0.138 A 
ATOM      9  N   UNL     1      -3.555  -8.293  -1.250  0.00  0.00    -0.123 NA
ATOM     10  N   UNL     1      -3.647  -7.008  -1.215  0.00  0.00    -0.062 NA
ATOM     11  C   UNL     1      -3.297 -11.806   2.954  0.00  0.00    +0.043 C 
ATOM     12  C   UNL     1      -2.949 -11.237   4.337  0.00  0.00    +0.005 C 
ATOM     13  C   UNL     1      -3.867 -10.045   4.623  0.00  0.00    +0.005 C 
ATOM     14  C   UNL     1      -3.491  -8.870   3.720  0.00  0.00    +0.037 C 
ENDROOT
BRANCH   1  15
ATOM     15  C   UNL     1      -3.779  -4.863   0.013  0.00  0.00    +0.149 C 
BRANCH  15  16
ATOM     16  C   UNL     1      -2.373  -4.258   0.003  0.00  0.00    +0.027 C 
BRANCH  16  17
ATOM     17  C   UNL     1      -2.475  -2.731   0.012  0.00  0.00    +0.043 C 
BRANCH  17  18
ATOM     18  C   UNL     1      -1.070  -2.126   0.001  0.00  0.00    +0.229 C 
BRANCH  18  19
ATOM     19  O   UNL     1      -1.165  -0.701   0.010  0.00  0.00    -0.492 OA
BRANCH  19  25
ATOM     20  C   UNL     1      -0.017   1.383   0.010  0.00  0.00    +0.047 A 
ATOM     21  C   UNL     1       1.171   2.089   0.002  0.00  0.00    +0.023 A 
ATOM     22  C   UNL     1       2.378   1.414  -0.013  0.00  0.00    +0.041 A 
ATOM     23  C   UNL     1       2.399   0.030  -0.021  0.00  0.00    +0.023 A 
ATOM     24  C   UNL     1       1.214  -0.679  -0.014  0.00  0.00    +0.047 A 
ATOM     25  C   UNL     1       0.002  -0.004   0.002  0.00  0.00    +0.121 A 
ATOM     26 CL   UNL     1       3.869   2.303  -0.024  0.00  0.00    -0.084 Cl
ENDBRANCH  19  25
ENDBRANCH  18  19
ENDBRANCH  17  18
ENDBRANCH  16  17
ENDBRANCH  15  16
ENDBRANCH   1  15
TORSDOF 6
