REMARK  Name = ZINC13129044
REMARK  5 active torsions:
REMARK  status: ('A' for Active; 'I' for Inactive)
REMARK    1  A    between atoms: C_7  and  C_11
REMARK    2  A    between atoms: C_11  and  C_13
REMARK    3  A    between atoms: C_13  and  S_14
REMARK    4  A    between atoms: S_14  and  C_15
REMARK    5  A    between atoms: N_25  and  C_26
REMARK                            x       y       z     vdW  Elec       q    Type
REMARK                         _______ _______ _______ _____ _____    ______ ____
ROOT
ATOM      1  C   UNL     1      -1.213   2.060   0.019  0.00  0.00    +0.177 A 
ATOM      2  N   UNL     1      -1.305   3.367   0.033  0.00  0.00    -0.223 NA
ATOM      3  C   UNL     1      -0.209   4.153   0.026  0.00  0.00    +0.079 A 
ATOM      4  C   UNL     1      -0.308   5.547   0.035  0.00  0.00    +0.028 A 
ATOM      5  C   UNL     1       0.828   6.306   0.027  0.00  0.00    +0.002 A 
ATOM      6  C   UNL     1       2.084   5.712   0.012  0.00  0.00    +0.001 A 
ATOM      7  C   UNL     1       2.213   4.350   0.004  0.00  0.00    +0.015 A 
ATOM      8  C   UNL     1       1.070   3.552   0.011  0.00  0.00    +0.065 A 
ATOM      9  C   UNL     1       1.148   2.085   0.002  0.00  0.00    +0.267 A 
ATOM     10  O   UNL     1       2.221   1.510  -0.011  0.00  0.00    -0.267 OA
ATOM     11  N   UNL     1      -0.017   1.397   0.010  0.00  0.00    -0.254 N 
ENDROOT
BRANCH  11  12
ATOM     12  C   UNL     1       0.002  -0.004   0.002  0.00  0.00    +0.070 A 
ATOM     13  C   UNL     1       0.029  -0.706   1.200  0.00  0.00    +0.028 A 
ATOM     14  C   UNL     1       0.043  -2.087   1.189  0.00  0.00    +0.002 A 
ATOM     15  C   UNL     1       0.041  -2.771  -0.013  0.00  0.00    +0.002 A 
ATOM     16  C   UNL     1       0.019  -2.076  -1.208  0.00  0.00    +0.022 A 
ATOM     17  C   UNL     1       0.000  -0.694  -1.204  0.00  0.00    +0.065 A 
ATOM     18 CL   UNL     1      -0.026   0.179  -2.704  0.00  0.00    -0.081 Cl
ENDBRANCH  11  12
BRANCH   1  19
ATOM     19  S   UNL     1      -2.699   1.113   0.020  0.00  0.00    -0.079 S 
BRANCH  19  20
ATOM     20  C   UNL     1      -3.922   2.447   0.034  0.00  0.00    +0.157 C 
BRANCH  20  21
ATOM     21  C   UNL     1      -5.309   1.857   0.036  0.00  0.00    +0.175 C 
ATOM     22  O   UNL     1      -5.456   0.652   0.030  0.00  0.00    -0.291 OA
BRANCH  21  29
ATOM     23  C   UNL     1      -9.887   1.026   0.052  0.00  0.00    +0.001 A 
ATOM     24  C   UNL     1     -10.624   2.201   0.062  0.00  0.00    +0.002 A 
ATOM     25  C   UNL     1      -9.992   3.425   0.067  0.00  0.00    +0.026 A 
ATOM     26  C   UNL     1      -8.602   3.490   0.061  0.00  0.00    +0.047 A 
ATOM     27  C   UNL     1      -7.859   2.300   0.051  0.00  0.00    +0.010 A 
ATOM     28  C   UNL     1      -8.510   1.069   0.046  0.00  0.00    +0.011 A 
ATOM     29  C   UNL     1      -6.441   2.710   0.047  0.00  0.00    +0.043 A 
ATOM     30  C   UNL     1      -6.440   4.088   0.061  0.00  0.00    +0.095 A 
ATOM     31  N   UNL     1      -7.708   4.542   0.063  0.00  0.00    -0.360 N 
ATOM     32  H   UNL     1      -7.959   5.479   0.069  0.00  0.00    +0.165 HD
ENDBRANCH  21  29
ENDBRANCH  20  21
ENDBRANCH  19  20
ENDBRANCH   1  19
TORSDOF 5
