REMARK  Name = ZINC01882668
REMARK  9 active torsions:
REMARK  status: ('A' for Active; 'I' for Inactive)
REMARK    1  A    between atoms: C_2  and  C_3
REMARK    2  A    between atoms: C_2  and  N_15
REMARK    3  A    between atoms: C_6  and  C_9
REMARK    4  A    between atoms: N_15  and  N_16
REMARK    5  A    between atoms: C_17  and  C_19
REMARK    6  A    between atoms: C_19  and  S_20
REMARK    7  A    between atoms: S_20  and  C_21
REMARK    8  A    between atoms: C_24  and  C_32
REMARK    9  A    between atoms: N_25  and  C_26
REMARK                            x       y       z     vdW  Elec       q    Type
REMARK                         _______ _______ _______ _____ _____    ______ ____
ROOT
ATOM      1  N   UNL     1       2.424   0.032  -0.021  0.00  0.00    -0.236 N 
ATOM      2  C   UNL     1       3.600  -0.626  -0.036  0.00  0.00    +0.239 C 
ATOM      3  O   UNL     1       3.616  -1.839  -0.042  0.00  0.00    -0.273 OA
ATOM      4  H   UNL     1       2.410   1.002  -0.016  0.00  0.00    +0.173 HD
ENDROOT
BRANCH   1   5
ATOM      5  N   UNL     1       1.220  -0.685  -0.013  0.00  0.00    -0.264 N 
ATOM      6  H   UNL     1       1.233  -1.655  -0.019  0.00  0.00    +0.170 HD
BRANCH   5   8
ATOM      7  C   UNL     1      -0.016   1.330   0.009  0.00  0.00    +0.035 C 
ATOM      8  C   UNL     1       0.002  -0.004   0.002  0.00  0.00    +0.044 C 
BRANCH   8   9
ATOM      9  C   UNL     1      -1.270  -0.762   0.010  0.00  0.00    -0.003 A 
ATOM     10  C   UNL     1      -1.251  -2.157   0.008  0.00  0.00    +0.010 A 
ATOM     11  C   UNL     1      -2.434  -2.861   0.016  0.00  0.00    +0.009 A 
ATOM     12  C   UNL     1      -3.651  -2.180   0.025  0.00  0.00    -0.018 A 
ATOM     13  C   UNL     1      -3.671  -0.786   0.026  0.00  0.00    +0.009 A 
ATOM     14  C   UNL     1      -2.488  -0.081   0.025  0.00  0.00    +0.010 A 
BRANCH  12  15
ATOM     15  C   UNL     1      -4.926  -2.939   0.032  0.00  0.00    -0.018 A 
ATOM     16  C   UNL     1      -4.910  -4.333   0.036  0.00  0.00    +0.008 A 
ATOM     17  C   UNL     1      -6.098  -5.034   0.044  0.00  0.00    +0.001 A 
ATOM     18  C   UNL     1      -7.304  -4.356   0.047  0.00  0.00    +0.000 A 
ATOM     19  C   UNL     1      -7.326  -2.973   0.043  0.00  0.00    +0.001 A 
ATOM     20  C   UNL     1      -6.143  -2.261   0.041  0.00  0.00    +0.008 A 
ENDBRANCH  12  15
ENDBRANCH   8   9
ENDBRANCH   5   8
ENDBRANCH   1   5
BRANCH   2  21
ATOM     21  C   UNL     1       4.894   0.145  -0.044  0.00  0.00    +0.174 C 
BRANCH  21  22
ATOM     22  S   UNL     1       6.289  -1.015  -0.063  0.00  0.00    -0.076 S 
BRANCH  22  23
ATOM     23  C   UNL     1       7.710   0.027  -0.071  0.00  0.00    +0.197 A 
ATOM     24  N   UNL     1       7.713   1.341  -0.059  0.00  0.00    -0.122 NA
ATOM     25  N   UNL     1       8.921   1.781  -0.069  0.00  0.00    -0.128 NA
ATOM     26  C   UNL     1       9.765   0.775  -0.090  0.00  0.00    +0.169 A 
ATOM     27  N   UNL     1       9.016  -0.381  -0.086  0.00  0.00    -0.270 N 
BRANCH  26  28
ATOM     28  C   UNL     1      11.240   0.867  -0.108  0.00  0.00    +0.020 A 
ATOM     29  C   UNL     1      12.007  -0.249  -0.447  0.00  0.00    +0.012 A 
ATOM     30  C   UNL     1      13.383  -0.158  -0.462  0.00  0.00    +0.016 A 
ATOM     31  C   UNL     1      14.004   1.038  -0.142  0.00  0.00    +0.018 A 
ATOM     32  C   UNL     1      13.249   2.148   0.196  0.00  0.00    +0.016 A 
ATOM     33  C   UNL     1      11.872   2.071   0.208  0.00  0.00    +0.012 A 
ATOM     34 BR   UNL     1      15.891   1.155  -0.165  0.00  0.00    -0.050 Br
ENDBRANCH  26  28
BRANCH  27  35
ATOM     35  C   UNL     1       9.492  -1.700  -0.098  0.00  0.00    +0.051 A 
ATOM     36  C   UNL     1      10.211  -2.189   0.985  0.00  0.00    +0.026 A 
ATOM     37  C   UNL     1      10.678  -3.489   0.970  0.00  0.00    +0.002 A 
ATOM     38  C   UNL     1      10.432  -4.302  -0.121  0.00  0.00    +0.000 A 
ATOM     39  C   UNL     1       9.716  -3.817  -1.200  0.00  0.00    +0.002 A 
ATOM     40  C   UNL     1       9.240  -2.520  -1.189  0.00  0.00    +0.026 A 
ENDBRANCH  27  35
ENDBRANCH  22  23
ENDBRANCH  21  22
ENDBRANCH   2  21
TORSDOF 9
