REMARK  Name = ZINC64044490
REMARK  10 active torsions:
REMARK  status: ('A' for Active; 'I' for Inactive)
REMARK    1  A    between atoms: C_1  and  O_2
REMARK    2  A    between atoms: O_2  and  C_3
REMARK    3  A    between atoms: C_10  and  C_18
REMARK    4  A    between atoms: C_20  and  O_38
REMARK    5  A    between atoms: C_22  and  O_37
REMARK    6  A    between atoms: N_24  and  C_27
REMARK    7  A    between atoms: C_29  and  O_35
REMARK    8  A    between atoms: C_32  and  O_33
REMARK    9  A    between atoms: O_33  and  C_34
REMARK   10  A    between atoms: O_35  and  C_36
REMARK                            x       y       z     vdW  Elec       q    Type
REMARK                         _______ _______ _______ _____ _____    ______ ____
ROOT
ATOM      1  C   UNL     1      -4.637  -4.200  -2.354  0.00  0.00    +0.179 C 
ATOM      2  C   UNL     1      -5.445  -2.936  -2.409  0.00  0.00    +0.200 C 
ATOM      3  N   UNL     1      -6.543  -2.842  -3.053  0.00  0.00    -0.204 NA
ATOM      4  C   UNL     1      -7.145  -3.931  -3.804  0.00  0.00    +0.339 C 
ATOM      5  N   UNL     1      -6.178  -4.966  -4.141  0.00  0.00    -0.222 N 
ATOM      6  C   UNL     1      -5.026  -5.114  -3.482  0.00  0.00    +0.237 C 
ATOM      7  O   UNL     1      -4.275  -6.010  -3.805  0.00  0.00    -0.274 OA
ENDROOT
BRANCH   1  14
ATOM      8  C   UNL     1      -0.509  -1.295  -0.207  0.00  0.00    +0.121 A 
ATOM      9  C   UNL     1      -1.543  -0.352  -0.080  0.00  0.00    +0.047 A 
ATOM     10  C   UNL     1      -2.841  -0.708   0.024  0.00  0.00    +0.029 A 
ATOM     11  C   UNL     1      -3.213  -2.125   0.007  0.00  0.00    +0.043 A 
ATOM     12  N   UNL     1      -4.379  -2.726   0.068  0.00  0.00    -0.376 N 
ATOM     13  C   UNL     1      -4.154  -4.168   0.101  0.00  0.00    +0.124 C 
ATOM     14  C   UNL     1      -4.890  -4.905  -1.021  0.00  0.00    +0.101 C 
ATOM     15  N   UNL     1      -4.378  -6.283  -1.083  0.00  0.00    -0.310 NA
ATOM     16  C   UNL     1      -2.978  -6.361  -1.512  0.00  0.00    +0.085 C 
ATOM     17  C   UNL     1      -2.066  -5.700  -0.462  0.00  0.00    +0.048 C 
ATOM     18  C   UNL     1      -2.665  -4.348  -0.146  0.00  0.00    -0.036 C 
ATOM     19  C   UNL     1      -2.123  -3.124  -0.136  0.00  0.00    +0.003 A 
ATOM     20  C   UNL     1      -0.746  -2.628  -0.243  0.00  0.00    +0.055 A 
ATOM     21  H   UNL     1      -4.513  -6.759  -0.203  0.00  0.00    +0.122 HD
ATOM     22  H   UNL     1      -5.244  -2.286   0.087  0.00  0.00    +0.160 HD
BRANCH   8  24
ATOM     23  C   UNL     1       0.978   0.559  -0.259  0.00  0.00    +0.277 C 
ATOM     24  O   UNL     1       0.773  -0.854  -0.301  0.00  0.00    -0.495 OA
ENDBRANCH   8  24
ENDBRANCH   1  14
BRANCH   5  25
ATOM     25  C   UNL     1      -6.470  -5.841  -5.195  0.00  0.00    +0.086 A 
ATOM     26  C   UNL     1      -6.075  -5.528  -6.487  0.00  0.00    +0.073 A 
ATOM     27  C   UNL     1      -6.364  -6.396  -7.529  0.00  0.00    +0.122 A 
ATOM     28  C   UNL     1      -7.048  -7.577  -7.279  0.00  0.00    +0.049 A 
ATOM     29  C   UNL     1      -7.443  -7.891  -5.992  0.00  0.00    +0.051 A 
ATOM     30  C   UNL     1      -7.151  -7.030  -4.947  0.00  0.00    +0.142 A 
BRANCH  30  31
ATOM     31  O   UNL     1      -7.535  -7.343  -3.680  0.00  0.00    -0.493 OA
ATOM     32  C   UNL     1      -8.230  -8.579  -3.498  0.00  0.00    +0.277 C 
ENDBRANCH  30  31
BRANCH  27  33
ATOM     33  O   UNL     1      -5.978  -6.090  -8.796  0.00  0.00    -0.495 OA
ATOM     34  C   UNL     1      -6.309  -7.030  -9.820  0.00  0.00    +0.277 C 
ENDBRANCH  27  33
ENDBRANCH   5  25
BRANCH   4  35
ATOM     35  O   UNL     1      -8.190  -4.512  -3.021  0.00  0.00    -0.356 OA
ATOM     36  H   UNL     1      -8.897  -3.894  -2.788  0.00  0.00    +0.214 HD
ENDBRANCH   4  35
BRANCH   2  37
ATOM     37  O   UNL     1      -4.991  -1.852  -1.747  0.00  0.00    -0.495 OA
ATOM     38  H   UNL     1      -5.562  -1.075  -1.826  0.00  0.00    +0.293 HD
ENDBRANCH   2  37
TORSDOF 7
