REMARK  Name = ZINC24938155
REMARK  7 active torsions:
REMARK  status: ('A' for Active; 'I' for Inactive)
REMARK    1  A    between atoms: C_3  and  N_11
REMARK    2  A    between atoms: C_4  and  N_8
REMARK    3  A    between atoms: C_17  and  C_19
REMARK    4  A    between atoms: C_19  and  C_20
REMARK    5  A    between atoms: C_20  and  C_21
REMARK    6  A    between atoms: C_21  and  C_22
REMARK    7  A    between atoms: C_22  and  C_23
REMARK                            x       y       z     vdW  Elec       q    Type
REMARK                         _______ _______ _______ _____ _____    ______ ____
ROOT
ATOM      1  N   UNL     1      -2.426   1.041   0.020  0.00  0.00    -0.325 N 
ATOM      2  C   UNL     1      -2.569   0.255   1.252  0.00  0.00    +0.124 C 
ATOM      3  C   UNL     1      -3.970  -0.365   1.299  0.00  0.00    +0.126 C 
ATOM      4  N   UNL     1      -4.190  -1.115   0.053  0.00  0.00    -0.298 N 
ATOM      5  C   UNL     1      -3.934  -0.434  -1.225  0.00  0.00    +0.126 C 
ATOM      6  C   UNL     1      -2.535   0.189  -1.172  0.00  0.00    +0.124 C 
ATOM      7  C   UNL     1      -4.616  -2.394   0.082  0.00  0.00    +0.216 C 
ATOM      8  O   UNL     1      -4.792  -2.998  -0.955  0.00  0.00    -0.276 OA
ENDROOT
BRANCH   1  11
ATOM      9  C   UNL     1       1.174   1.783   0.000  0.00  0.00    +0.022 A 
ATOM     10  C   UNL     1      -0.013   1.076   0.008  0.00  0.00    +0.027 A 
ATOM     11  C   UNL     1      -1.224   1.754   0.017  0.00  0.00    +0.060 A 
ATOM     12  C   UNL     1      -1.239   3.143   0.030  0.00  0.00    +0.148 A 
ATOM     13  C   UNL     1      -0.050   3.846   0.023  0.00  0.00    +0.054 A 
ATOM     14  C   UNL     1       1.156   3.167   0.007  0.00  0.00    +0.043 A 
ATOM     15 CL   UNL     1       2.649   4.053  -0.002  0.00  0.00    -0.083 Cl
BRANCH  12  16
ATOM     16  N   UNL     1      -2.529   3.870   0.045  0.00  0.00    +0.058 N 
ATOM     17  O   UNL     1      -2.541   5.088   0.052  0.00  0.00    -0.126 OA
ATOM     18  O   UNL     1      -3.577   3.250   0.052  0.00  0.00    -0.126 OA
ENDBRANCH  12  16
ENDBRANCH   1  11
BRANCH   7  19
ATOM     19  C   UNL     1      -4.872  -3.073   1.403  0.00  0.00    +0.096 C 
BRANCH  19  20
ATOM     20  C   UNL     1      -5.343  -4.508   1.155  0.00  0.00    +0.009 C 
BRANCH  20  21
ATOM     21  C   UNL     1      -5.604  -5.197   2.496  0.00  0.00    +0.002 C 
BRANCH  21  22
ATOM     22  C   UNL     1      -6.074  -6.632   2.248  0.00  0.00    +0.016 C 
BRANCH  22  23
ATOM     23  C   UNL     1      -6.335  -7.322   3.589  0.00  0.00    +0.069 C 
ATOM     24  C   UNL     1      -6.930  -8.731   3.381  0.00  0.00    +0.108 C 
ATOM     25  C   UNL     1      -6.379  -9.781   4.351  0.00  0.00    +0.105 C 
ATOM     26  C   UNL     1      -5.338  -9.222   5.344  0.00  0.00    +0.093 C 
ATOM     27  S   UNL     1      -4.751  -7.719   4.449  0.00  0.00    -0.154 S 
ATOM     28  N   UNL     1      -5.728 -10.768   3.475  0.00  0.00    -0.294 N 
ATOM     29  C   UNL     1      -5.864 -10.378   2.200  0.00  0.00    +0.300 C 
ATOM     30  O   UNL     1      -5.418 -11.011   1.262  0.00  0.00    -0.253 OA
ATOM     31  N   UNL     1      -6.536  -9.228   2.054  0.00  0.00    -0.294 N 
ATOM     32  H   UNL     1      -5.236 -11.650   3.912  0.00  0.00    +0.151 HD
ATOM     33  H   UNL     1      -6.806  -8.661   1.151  0.00  0.00    +0.151 HD
ENDBRANCH  22  23
ENDBRANCH  21  22
ENDBRANCH  20  21
ENDBRANCH  19  20
ENDBRANCH   7  19
TORSDOF 7
