REMARK  Name = ZINC09528546
REMARK  5 active torsions:
REMARK  status: ('A' for Active; 'I' for Inactive)
REMARK    1  A    between atoms: C_1  and  C_2
REMARK    2  A    between atoms: C_16  and  S_17
REMARK    3  A    between atoms: S_17  and  C_18
REMARK    4  A    between atoms: C_18  and  C_19
REMARK    5  A    between atoms: N_21  and  C_22
REMARK                            x       y       z     vdW  Elec       q    Type
REMARK                         _______ _______ _______ _____ _____    ______ ____
ROOT
ATOM      1  C   UNL     1      -0.781   1.560  -1.166  0.00  0.00    +0.042 C 
ATOM      2  C   UNL     1       0.004   1.033   0.038  0.00  0.00    +0.191 C 
ATOM      3  C   UNL     1      -0.584   1.559   1.330  0.00  0.00    +0.251 C 
ATOM      4  O   UNL     1      -1.704   1.373   1.756  0.00  0.00    -0.272 OA
ATOM      5  N   UNL     1       0.403   2.281   1.908  0.00  0.00    -0.200 N 
ATOM      6  C   UNL     1       1.539   2.261   1.118  0.00  0.00    +0.139 C 
ATOM      7  N   UNL     1       1.375   1.562   0.030  0.00  0.00    -0.255 NA
ATOM      8  C   UNL     1       2.719   3.006   1.609  0.00  0.00    +0.041 A 
ATOM      9  C   UNL     1       3.906   3.044   0.885  0.00  0.00    +0.013 A 
ATOM     10  C   UNL     1       4.982   3.752   1.380  0.00  0.00    +0.001 A 
ATOM     11  C   UNL     1       4.886   4.421   2.592  0.00  0.00    +0.002 A 
ATOM     12  C   UNL     1       3.719   4.394   3.323  0.00  0.00    +0.028 A 
ATOM     13  C   UNL     1       2.616   3.684   2.840  0.00  0.00    +0.077 A 
ATOM     14  N   UNL     1       1.451   3.636   3.533  0.00  0.00    -0.225 NA
ATOM     15  C   UNL     1       0.411   2.978   3.099  0.00  0.00    +0.169 C 
ENDROOT
BRANCH  15  16
ATOM     16  S   UNL     1      -1.054   2.981   4.079  0.00  0.00    -0.080 S 
BRANCH  16  17
ATOM     17  C   UNL     1      -0.502   4.005   5.465  0.00  0.00    +0.173 C 
BRANCH  17  18
ATOM     18  C   UNL     1      -1.624   4.151   6.461  0.00  0.00    +0.228 C 
ATOM     19  O   UNL     1      -2.692   3.614   6.253  0.00  0.00    -0.275 OA
ATOM     20  N   UNL     1      -1.441   4.876   7.581  0.00  0.00    -0.283 N 
ATOM     21  H   UNL     1      -0.568   5.251   7.779  0.00  0.00    +0.155 HD
BRANCH  20  22
ATOM     22  C   UNL     1      -2.511   5.089   8.461  0.00  0.00    +0.069 A 
ATOM     23  C   UNL     1      -3.465   4.099   8.647  0.00  0.00    +0.029 A 
ATOM     24  C   UNL     1      -4.517   4.309   9.518  0.00  0.00    +0.040 A 
ATOM     25  C   UNL     1      -4.626   5.510  10.198  0.00  0.00    +0.126 A 
ATOM     26  C   UNL     1      -3.678   6.502  10.012  0.00  0.00    +0.078 A 
ATOM     27  C   UNL     1      -2.621   6.295   9.145  0.00  0.00    +0.147 A 
ATOM     28  F   UNL     1      -1.696   7.263   8.963  0.00  0.00    -0.203 F 
ATOM     29  F   UNL     1      -5.658   5.714  11.046  0.00  0.00    -0.205 F 
ENDBRANCH  20  22
ENDBRANCH  17  18
ENDBRANCH  16  17
ENDBRANCH  15  16
TORSDOF 4
