REMARK  Name = ZINC12693896
REMARK  6 active torsions:
REMARK  status: ('A' for Active; 'I' for Inactive)
REMARK    1  A    between atoms: C_1  and  N_2
REMARK    2  A    between atoms: C_6  and  C_8
REMARK    3  A    between atoms: C_8  and  O_9
REMARK    4  A    between atoms: O_9  and  C_10
REMARK    5  A    between atoms: C_10  and  C_12
REMARK    6  A    between atoms: C_25  and  C_26
REMARK                            x       y       z     vdW  Elec       q    Type
REMARK                         _______ _______ _______ _____ _____    ______ ____
ROOT
ATOM      1  C   UNL     1      -1.420   1.763   0.000  0.00  0.00    +0.073 A 
ATOM      2  C   UNL     1      -2.073   2.177  -1.242  0.00  0.00    +0.015 A 
ATOM      3  C   UNL     1      -1.542   1.851  -2.494  0.00  0.00    +0.011 A 
ATOM      4  C   UNL     1      -2.185   2.259  -3.625  0.00  0.00    +0.001 A 
ATOM      5  C   UNL     1      -3.364   2.997  -3.549  0.00  0.00    +0.002 A 
ATOM      6  C   UNL     1      -3.915   3.320  -2.347  0.00  0.00    +0.028 A 
ATOM      7  C   UNL     1      -3.276   2.922  -1.157  0.00  0.00    +0.072 A 
ATOM      8  N   UNL     1      -3.780   3.240   0.033  0.00  0.00    -0.247 NA
ATOM      9  C   UNL     1      -3.208   2.884   1.179  0.00  0.00    +0.072 A 
ATOM     10  C   UNL     1      -2.018   2.138   1.195  0.00  0.00    -0.007 A 
ATOM     11  C   UNL     1      -1.598   1.878   2.620  0.00  0.00    +0.043 C 
ATOM     12  C   UNL     1      -2.657   2.542   3.510  0.00  0.00    +0.042 C 
ATOM     13  C   UNL     1      -3.651   3.163   2.559  0.00  0.00    -0.021 C 
ATOM     14  C   UNL     1      -4.751   3.851   2.909  0.00  0.00    +0.013 C 
ENDROOT
BRANCH  14  15
ATOM     15  C   UNL     1      -5.145   3.940   4.326  0.00  0.00    -0.025 A 
ATOM     16  C   UNL     1      -6.371   4.510   4.680  0.00  0.00    +0.009 A 
ATOM     17  C   UNL     1      -6.736   4.585   6.007  0.00  0.00    +0.020 A 
ATOM     18  C   UNL     1      -5.885   4.107   6.990  0.00  0.00    +0.041 A 
ATOM     19  C   UNL     1      -4.666   3.545   6.647  0.00  0.00    +0.020 A 
ATOM     20  C   UNL     1      -4.291   3.459   5.323  0.00  0.00    +0.009 A 
ATOM     21 CL   UNL     1      -6.349   4.212   8.660  0.00  0.00    -0.084 Cl
ENDBRANCH  14  15
BRANCH   1  22
ATOM     22  C   UNL     1      -0.168   0.978  -0.017  0.00  0.00    +0.341 C 
ATOM     23  O   UNL     1      -0.211  -0.235  -0.023  0.00  0.00    -0.245 OA
BRANCH  22  24
ATOM     24  O   UNL     1       1.022   1.610  -0.032  0.00  0.00    -0.452 OA
BRANCH  24  25
ATOM     25  C   UNL     1       2.211   0.776  -0.054  0.00  0.00    +0.328 C 
BRANCH  25  31
ATOM     26  C   UNL     1       8.180   2.165  -0.138  0.00  0.00    +0.129 C 
ATOM     27  N   UNL     1       6.987   1.314  -0.124  0.00  0.00    -0.302 N 
ATOM     28  C   UNL     1       5.761   1.874  -0.102  0.00  0.00    +0.306 C 
ATOM     29  O   UNL     1       5.645   3.083  -0.094  0.00  0.00    -0.252 OA
ATOM     30  N   UNL     1       4.664   1.091  -0.090  0.00  0.00    -0.237 N 
ATOM     31  C   UNL     1       3.438   1.651  -0.068  0.00  0.00    +0.258 C 
ATOM     32  O   UNL     1       3.322   2.857  -0.060  0.00  0.00    -0.272 OA
ATOM     33  H   UNL     1       7.080   0.349  -0.131  0.00  0.00    +0.150 HD
ATOM     34  H   UNL     1       4.756   0.126  -0.097  0.00  0.00    +0.159 HD
ENDBRANCH  25  31
ENDBRANCH  24  25
ENDBRANCH  22  24
ENDBRANCH   1  22
TORSDOF 5
