REMARK  Name = ZINC04704173
REMARK  6 active torsions:
REMARK  status: ('A' for Active; 'I' for Inactive)
REMARK    1  A    between atoms: C_2  and  C_3
REMARK    2  A    between atoms: C_3  and  N_4
REMARK    3  A    between atoms: C_5  and  C_19
REMARK    4  A    between atoms: N_9  and  C_12
REMARK    5  A    between atoms: C_19  and  C_20
REMARK    6  A    between atoms: N_22  and  C_23
REMARK                            x       y       z     vdW  Elec       q    Type
REMARK                         _______ _______ _______ _____ _____    ______ ____
ROOT
ATOM      1  N   UNL     1       0.664  -2.732   1.641  0.00  0.00    -0.269 N 
ATOM      2  C   UNL     1       1.047  -2.368   3.017  0.00  0.00    +0.173 C 
ATOM      3  C   UNL     1       0.207  -3.291   3.877  0.00  0.00    +0.248 C 
ATOM      4  O   UNL     1       0.189  -3.348   5.087  0.00  0.00    -0.273 OA
ATOM      5  N   UNL     1      -0.516  -4.034   3.015  0.00  0.00    -0.193 N 
ATOM      6  C   UNL     1      -0.255  -3.708   1.744  0.00  0.00    +0.317 C 
ATOM      7  O   UNL     1      -0.788  -4.237   0.788  0.00  0.00    -0.252 OA
ENDROOT
BRANCH   5   8
ATOM      8  C   UNL     1      -1.431  -5.023   3.404  0.00  0.00    +0.046 A 
ATOM      9  C   UNL     1      -2.035  -5.826   2.446  0.00  0.00    +0.027 A 
ATOM     10  C   UNL     1      -2.936  -6.800   2.830  0.00  0.00    +0.040 A 
ATOM     11  C   UNL     1      -3.237  -6.976   4.170  0.00  0.00    +0.124 A 
ATOM     12  C   UNL     1      -2.636  -6.175   5.127  0.00  0.00    +0.040 A 
ATOM     13  C   UNL     1      -1.730  -5.204   4.747  0.00  0.00    +0.027 A 
ATOM     14  F   UNL     1      -4.118  -7.929   4.544  0.00  0.00    -0.205 F 
ENDBRANCH   5   8
BRANCH   1  15
ATOM     15  C   UNL     1       1.180  -2.141   0.404  0.00  0.00    +0.137 C 
BRANCH  15  17
ATOM     16  C   UNL     1       0.961   0.241  -0.084  0.00  0.00    +0.005 C 
ATOM     17  C   UNL     1       0.370  -0.919   0.054  0.00  0.00    -0.016 C 
ENDBRANCH  15  17
ENDBRANCH   1  15
BRANCH   2  18
ATOM     18  C   UNL     1       0.706  -0.903   3.301  0.00  0.00    +0.128 C 
BRANCH  18  19
ATOM     19  C   UNL     1       1.247  -0.515   4.652  0.00  0.00    +0.219 C 
ATOM     20  O   UNL     1       1.942  -1.291   5.274  0.00  0.00    -0.275 OA
ATOM     21  N   UNL     1       0.958   0.695   5.171  0.00  0.00    -0.285 N 
ATOM     22  H   UNL     1       0.336   1.283   4.715  0.00  0.00    +0.155 HD
BRANCH  21  23
ATOM     23  C   UNL     1       1.556   1.103   6.370  0.00  0.00    +0.033 A 
ATOM     24  C   UNL     1       2.873   0.760   6.642  0.00  0.00    +0.025 A 
ATOM     25  C   UNL     1       3.460   1.164   7.825  0.00  0.00    +0.022 A 
ATOM     26  C   UNL     1       2.736   1.911   8.739  0.00  0.00    +0.041 A 
ATOM     27  C   UNL     1       1.423   2.254   8.469  0.00  0.00    +0.022 A 
ATOM     28  C   UNL     1       0.833   1.858   7.285  0.00  0.00    +0.025 A 
ATOM     29 CL   UNL     1       3.477   2.417  10.225  0.00  0.00    -0.084 Cl
ENDBRANCH  21  23
ENDBRANCH  18  19
ENDBRANCH   2  18
TORSDOF 6
