REMARK  Name = ZINC67223713
REMARK  4 active torsions:
REMARK  status: ('A' for Active; 'I' for Inactive)
REMARK    1  A    between atoms: C_3  and  C_10
REMARK    2  A    between atoms: C_5  and  N_7
REMARK    3  A    between atoms: C_10  and  N_11
REMARK    4  A    between atoms: N_11  and  C_12
REMARK                            x       y       z     vdW  Elec       q    Type
REMARK                         _______ _______ _______ _____ _____    ______ ____
ROOT
ATOM      1  N   UNL     1       4.106   2.426   1.360  0.00  0.00    +0.386 N 
ATOM      2  H   UNL     1       3.754   2.478   0.416  0.00  0.00    -0.085 HD
ATOM      3  H   UNL     1       3.418   2.797   1.997  0.00  0.00    -0.085 HD
ENDROOT
BRANCH   1   4
ATOM      4  C   UNL     1       5.343   3.212   1.464  0.00  0.00    -0.034 C 
ATOM      5  C   UNL     1       5.806   3.242   2.922  0.00  0.00    +0.030 C 
ATOM      6  C   UNL     1       6.913   4.296   3.055  0.00  0.00    +0.228 C 
ATOM      7  O   UNL     1       6.347   5.579   2.781  0.00  0.00    -0.492 OA
ATOM      8  C   UNL     1       5.597   5.714   1.656  0.00  0.00    +0.122 A 
ATOM      9  C   UNL     1       5.086   4.618   0.985  0.00  0.00    -0.019 A 
ATOM     10  C   UNL     1       4.322   4.804  -0.155  0.00  0.00    +0.020 A 
ATOM     11  C   UNL     1       4.069   6.079  -0.625  0.00  0.00    +0.018 A 
ATOM     12  C   UNL     1       4.581   7.176   0.044  0.00  0.00    +0.019 A 
ATOM     13  C   UNL     1       5.343   6.996   1.179  0.00  0.00    +0.047 A 
ATOM     14 BR   UNL     1       3.024   6.324  -2.182  0.00  0.00    -0.050 Br
ENDBRANCH   1   4
BRANCH   1  15
ATOM     15  C   UNL     1       4.386   1.025   1.702  0.00  0.00    -0.046 C 
BRANCH  15  18
ATOM     16  C   UNL     1       1.795  -1.153   0.029  0.00  0.00    +0.002 A 
ATOM     17  C   UNL     1       2.929  -0.391   0.240  0.00  0.00    +0.002 A 
ATOM     18  C   UNL     1       3.149   0.195   1.472  0.00  0.00    -0.062 A 
ATOM     19  C   UNL     1       2.235   0.020   2.494  0.00  0.00    +0.034 A 
ATOM     20  C   UNL     1       1.100  -0.741   2.283  0.00  0.00    +0.126 A 
ATOM     21  C   UNL     1       0.881  -1.328   1.051  0.00  0.00    +0.033 A 
BRANCH  20  22
ATOM     22  N   UNL     1       0.121  -0.929   3.378  0.00  0.00    +0.056 N 
ATOM     23  O   UNL     1       0.314  -0.417   4.456  0.00  0.00    -0.126 OA
ATOM     24  O   UNL     1      -0.871  -1.594   3.193  0.00  0.00    -0.126 OA
ENDBRANCH  20  22
ENDBRANCH  15  18
ENDBRANCH   1  15
TORSDOF 4
