REMARK  Name = ZINC12432810
REMARK  7 active torsions:
REMARK  status: ('A' for Active; 'I' for Inactive)
REMARK    1  A    between atoms: C_1  and  C_2
REMARK    2  A    between atoms: C_5  and  C_8
REMARK    3  A    between atoms: N_10  and  C_11
REMARK    4  A    between atoms: N_10  and  C_26
REMARK    5  A    between atoms: C_11  and  C_12
REMARK    6  A    between atoms: C_17  and  N_68
REMARK    7  A    between atoms: C_26  and  C_27
REMARK                            x       y       z     vdW  Elec       q    Type
REMARK                         _______ _______ _______ _____ _____    ______ ____
ROOT
ATOM      1  C   UNL     1      -2.411   4.503  -5.424  0.00  0.00    +0.111 C 
ENDROOT
BRANCH   1   2
ATOM      2  C   UNL     1      -2.278   3.717  -4.118  0.00  0.00    +0.003 C 
ATOM      3  C   UNL     1      -3.317   4.219  -3.110  0.00  0.00    -0.014 C 
ATOM      4  C   UNL     1      -3.218   3.390  -1.828  0.00  0.00    -0.078 C 
ATOM      5  C   UNL     1      -2.442   1.458  -3.068  0.00  0.00    -0.078 C 
ATOM      6  C   UNL     1      -2.518   2.229  -4.388  0.00  0.00    -0.014 C 
ATOM      7  N   UNL     1      -3.482   1.972  -2.152  0.00  0.00    +0.382 N 
ATOM      8  H   UNL     1      -4.397   1.900  -2.613  0.00  0.00    -0.081 HD
BRANCH   7   9
ATOM      9  C   UNL     1      -3.506   1.167  -0.913  0.00  0.00    -0.060 C 
ATOM     10  C   UNL     1      -4.025  -0.255  -1.213  0.00  0.00    +0.020 C 
ATOM     11  C   UNL     1      -4.843  -0.643  -0.000  0.00  0.00    -0.046 A 
ATOM     12  C   UNL     1      -5.277  -1.885   0.429  0.00  0.00    +0.004 A 
ATOM     13  C   UNL     1      -6.024  -1.999   1.585  0.00  0.00    +0.000 A 
ATOM     14  C   UNL     1      -6.340  -0.869   2.317  0.00  0.00    +0.000 A 
ATOM     15  C   UNL     1      -5.908   0.371   1.889  0.00  0.00    +0.004 A 
ATOM     16  C   UNL     1      -5.159   0.487   0.731  0.00  0.00    -0.046 A 
ATOM     17  C   UNL     1      -4.574   1.711   0.059  0.00  0.00    +0.020 C 
ENDBRANCH   7   9
ENDBRANCH   1   2
BRANCH   1  20
ATOM     18  C   UNL     1      -0.225   4.854  -6.441  0.00  0.00    +0.247 C 
ATOM     19  O   UNL     1       0.710   4.465  -7.113  0.00  0.00    -0.270 OA
ATOM     20  N   UNL     1      -1.342   4.107  -6.343  0.00  0.00    -0.295 N 
BRANCH  18  25
ATOM     21  C   UNL     1       0.117   9.891  -3.678  0.00  0.00    +0.044 C 
ATOM     22  C   UNL     1       0.027   8.572  -4.402  0.00  0.00    -0.050 A 
ATOM     23  C   UNL     1       0.732   8.382  -5.577  0.00  0.00    +0.004 A 
ATOM     24  C   UNL     1       0.655   7.176  -6.244  0.00  0.00    +0.013 A 
ATOM     25  C   UNL     1      -0.137   6.148  -5.731  0.00  0.00    +0.037 A 
ATOM     26  C   UNL     1      -0.851   6.349  -4.549  0.00  0.00    +0.013 A 
ATOM     27  C   UNL     1      -0.761   7.557  -3.889  0.00  0.00    +0.004 A 
ENDBRANCH  18  25
BRANCH  20  28
ATOM     28  C   UNL     1      -1.488   2.897  -7.157  0.00  0.00    +0.139 C 
BRANCH  28  29
ATOM     29  C   UNL     1      -2.017   3.275  -8.542  0.00  0.00    +0.136 C 
ATOM     30  C   UNL     1      -2.296   2.005  -9.376  0.00  0.00    +0.035 C 
ATOM     31  C   UNL     1      -1.877   2.397 -10.810  0.00  0.00    +0.031 C 
ATOM     32  C   UNL     1      -1.393   3.857 -10.674  0.00  0.00    +0.160 C 
ATOM     33  O   UNL     1      -1.008   3.991  -9.288  0.00  0.00    -0.375 OA
ENDBRANCH  28  29
ENDBRANCH  20  28
ENDBRANCH   1  20
TORSDOF 6
