REMARK  Name = ZINC16035754
REMARK  8 active torsions:
REMARK  status: ('A' for Active; 'I' for Inactive)
REMARK    1  A    between atoms: C_9  and  C_12
REMARK    2  A    between atoms: C_12  and  N_13
REMARK    3  A    between atoms: N_13  and  C_14
REMARK    4  A    between atoms: C_17  and  S_23
REMARK    5  A    between atoms: C_19  and  N_20
REMARK    6  A    between atoms: S_23  and  N_26
REMARK    7  A    between atoms: N_26  and  C_27
REMARK    8  A    between atoms: C_31  and  C_33
REMARK                            x       y       z     vdW  Elec       q    Type
REMARK                         _______ _______ _______ _____ _____    ______ ____
ROOT
ATOM      1  C   UNL     1       7.387  -2.225  -0.406  0.00  0.00    +0.058 A 
ATOM      2  C   UNL     1       7.676  -3.217   0.523  0.00  0.00    +0.027 A 
ATOM      3  C   UNL     1       8.919  -3.820   0.524  0.00  0.00    +0.031 A 
ATOM      4  C   UNL     1       9.876  -3.436  -0.399  0.00  0.00    +0.113 A 
ATOM      5  C   UNL     1       9.591  -2.449  -1.324  0.00  0.00    +0.063 A 
ATOM      6  C   UNL     1       8.348  -1.847  -1.334  0.00  0.00    +0.149 A 
ENDROOT
BRANCH   6   7
ATOM      7  N   UNL     1       8.043  -0.795  -2.329  0.00  0.00    +0.058 N 
ATOM      8  O   UNL     1       6.941  -0.731  -2.823  0.00  0.00    -0.126 OA
ATOM      9  O   UNL     1       8.895   0.002  -2.648  0.00  0.00    -0.126 OA
ENDBRANCH   6   7
BRANCH   4  10
ATOM     10  S   UNL     1      11.460  -4.207  -0.394  0.00  0.00    +0.092 S 
ATOM     11  O   UNL     1      12.359  -3.291  -1.003  0.00  0.00    -0.148 OA
ATOM     12  O   UNL     1      11.661  -4.714   0.918  0.00  0.00    -0.148 OA
BRANCH  10  13
ATOM     13  N   UNL     1      11.369  -5.519  -1.400  0.00  0.00    -0.098 NA
BRANCH  13  14
ATOM     14  C   UNL     1      12.489  -6.330  -1.594  0.00  0.00    +0.075 A 
ATOM     15  C   UNL     1      13.680  -6.040  -0.939  0.00  0.00    +0.027 A 
ATOM     16  C   UNL     1      14.786  -6.844  -1.132  0.00  0.00    +0.002 A 
ATOM     17  C   UNL     1      14.710  -7.937  -1.976  0.00  0.00    +0.012 A 
ATOM     18  C   UNL     1      13.527  -8.228  -2.630  0.00  0.00    +0.057 A 
ATOM     19  C   UNL     1      12.415  -7.431  -2.437  0.00  0.00    +0.039 A 
BRANCH  18  20
ATOM     20  C   UNL     1      13.448  -9.418  -3.551  0.00  0.00    +0.417 C 
ATOM     21  F   UNL     1      14.688 -10.067  -3.580  0.00  0.00    -0.166 F 
ATOM     22  F   UNL     1      12.470 -10.303  -3.086  0.00  0.00    -0.166 F 
ATOM     23  F   UNL     1      13.116  -8.990  -4.840  0.00  0.00    -0.166 F 
ENDBRANCH  18  20
ENDBRANCH  13  14
ENDBRANCH  10  13
ENDBRANCH   4  10
BRANCH   1  24
ATOM     24  N   UNL     1       6.131  -1.615  -0.410  0.00  0.00    -0.338 N 
ATOM     25  H   UNL     1       5.958  -0.865  -1.001  0.00  0.00    +0.146 HD
BRANCH  24  26
ATOM     26  C   UNL     1       5.075  -2.106   0.479  0.00  0.00    +0.149 C 
BRANCH  26  35
ATOM     27  C   UNL     1       0.822   2.595   1.094  0.00  0.00    +0.004 A 
ATOM     28  C   UNL     1       2.082   3.125   0.890  0.00  0.00    +0.004 A 
ATOM     29  C   UNL     1       3.169   2.287   0.727  0.00  0.00    +0.049 A 
ATOM     30  C   UNL     1       2.997   0.911   0.767  0.00  0.00    +0.163 A 
ATOM     31  C   UNL     1       1.729   0.379   0.969  0.00  0.00    +0.162 A 
ATOM     32  C   UNL     1       0.644   1.226   1.134  0.00  0.00    +0.049 A 
ATOM     33  O   UNL     1       1.537  -0.969   1.004  0.00  0.00    -0.485 OA
ATOM     34  C   UNL     1       2.700  -1.780   1.207  0.00  0.00    +0.275 C 
ATOM     35  C   UNL     1       3.810  -1.269   0.278  0.00  0.00    +0.228 C 
ATOM     36  O   UNL     1       4.077   0.098   0.608  0.00  0.00    -0.480 OA
ENDBRANCH  26  35
ENDBRANCH  24  26
ENDBRANCH   1  24
TORSDOF 8
