REMARK  Name = ZINC04642538
REMARK  8 active torsions:
REMARK  status: ('A' for Active; 'I' for Inactive)
REMARK    1  A    between atoms: C_1  and  C_2
REMARK    2  A    between atoms: C_2  and  C_3
REMARK    3  A    between atoms: C_3  and  C_4
REMARK    4  A    between atoms: C_3  and  C_5
REMARK    5  A    between atoms: C_3  and  C_6
REMARK    6  A    between atoms: C_14  and  N_23
REMARK    7  A    between atoms: N_23  and  S_24
REMARK    8  A    between atoms: S_24  and  C_27
REMARK                            x       y       z     vdW  Elec       q    Type
REMARK                         _______ _______ _______ _____ _____    ______ ____
ROOT
ATOM      1  C   UNL     1       1.858   1.381  -0.308  0.00  0.00    -0.000 C 
ATOM      2  C   UNL     1       1.138   1.897   0.942  0.00  0.00    +0.012 C 
ATOM      3  C   UNL     1      -0.281   1.320   0.992  0.00  0.00    +0.075 C 
ATOM      4  C   UNL     1      -0.198  -0.176   0.798  0.00  0.00    +0.110 A 
ATOM      5  C   UNL     1       0.882  -0.801   0.296  0.00  0.00    +0.002 A 
ATOM      6  C   UNL     1       0.568  -2.228   0.270  0.00  0.00    +0.026 A 
ATOM      7  C   UNL     1       1.270  -3.377  -0.134  0.00  0.00    +0.037 A 
ATOM      8  C   UNL     1       0.701  -4.609  -0.037  0.00  0.00    +0.057 A 
ATOM      9  C   UNL     1      -0.612  -4.747   0.473  0.00  0.00    +0.008 A 
ATOM     10  C   UNL     1      -1.215  -6.009   0.577  0.00  0.00    +0.010 A 
ATOM     11  C   UNL     1      -2.480  -6.116   1.071  0.00  0.00    +0.001 A 
ATOM     12  C   UNL     1      -3.187  -4.988   1.477  0.00  0.00    +0.001 A 
ATOM     13  C   UNL     1      -2.633  -3.747   1.389  0.00  0.00    +0.012 A 
ATOM     14  C   UNL     1      -1.331  -3.599   0.884  0.00  0.00    +0.027 A 
ATOM     15  C   UNL     1      -0.730  -2.328   0.780  0.00  0.00    +0.143 A 
ATOM     16  O   UNL     1      -1.147  -1.081   1.082  0.00  0.00    -0.459 OA
ATOM     17  C   UNL     1       2.149  -0.116  -0.142  0.00  0.00    +0.043 C 
ENDROOT
BRANCH   1  18
ATOM     18  C   UNL     1       3.174   2.140  -0.490  0.00  0.00    -0.032 C 
ATOM     19  C   UNL     1       4.060   1.927   0.739  0.00  0.00    +0.011 C 
ATOM     20  C   UNL     1       3.894   1.620  -1.735  0.00  0.00    +0.011 C 
BRANCH  18  22
ATOM     21  C   UNL     1       4.198   4.392  -0.838  0.00  0.00    +0.004 C 
ATOM     22  C   UNL     1       2.882   3.633  -0.655  0.00  0.00    +0.003 C 
ENDBRANCH  18  22
ENDBRANCH   1  18
BRANCH   8  23
ATOM     23  N   UNL     1       1.414  -5.740  -0.443  0.00  0.00    -0.215 N 
ATOM     24  H   UNL     1       0.950  -6.481  -0.864  0.00  0.00    +0.174 HD
BRANCH  23  25
ATOM     25  S   UNL     1       3.050  -5.818  -0.203  0.00  0.00    +0.079 S 
ATOM     26  O   UNL     1       3.455  -7.125  -0.585  0.00  0.00    -0.149 OA
ATOM     27  O   UNL     1       3.602  -4.647  -0.791  0.00  0.00    -0.149 OA
BRANCH  25  28
ATOM     28  C   UNL     1       3.330  -5.690   1.532  0.00  0.00    +0.146 A 
ATOM     29  C   UNL     1       3.403  -6.676   2.459  0.00  0.00    +0.036 A 
ATOM     30  C   UNL     1       3.634  -6.338   3.780  0.00  0.00    +0.010 A 
ATOM     31  C   UNL     1       3.780  -5.031   4.108  0.00  0.00    +0.047 A 
ATOM     32  S   UNL     1       3.598  -4.230   2.523  0.00  0.00    -0.077 S 
ENDBRANCH  25  28
ENDBRANCH  23  25
ENDBRANCH   8  23
TORSDOF 5
