REMARK  Name = ZINC51588028
REMARK  10 active torsions:
REMARK  status: ('A' for Active; 'I' for Inactive)
REMARK    1  A    between atoms: C_1  and  C_2
REMARK    2  A    between atoms: C_2  and  C_3
REMARK    3  A    between atoms: C_3  and  N_4
REMARK    4  A    between atoms: C_5  and  C_7
REMARK    5  A    between atoms: N_16  and  C_17
REMARK    6  A    between atoms: C_20  and  N_23
REMARK    7  A    between atoms: C_24  and  C_26
REMARK    8  A    between atoms: C_26  and  C_27
REMARK    9  A    between atoms: C_27  and  C_28
REMARK   10  A    between atoms: C_27  and  C_29
REMARK                            x       y       z     vdW  Elec       q    Type
REMARK                         _______ _______ _______ _____ _____    ______ ____
ROOT
ATOM      1  C   UNL     1      -2.307  -3.869  -1.847  0.00  0.00    +0.092 C 
ATOM      2  C   UNL     1      -3.579  -4.164  -1.048  0.00  0.00    +0.016 C 
ATOM      3  C   UNL     1      -3.397  -5.462  -0.258  0.00  0.00    +0.020 C 
ATOM      4  C   UNL     1      -3.160  -6.620  -1.233  0.00  0.00    +0.109 C 
ATOM      5  N   UNL     1      -2.027  -6.280  -2.104  0.00  0.00    -0.285 N 
ATOM      6  C   UNL     1      -2.057  -5.009  -2.840  0.00  0.00    +0.122 C 
ATOM      7  C   UNL     1      -0.978  -7.118  -2.225  0.00  0.00    +0.306 C 
ATOM      8  O   UNL     1      -0.090  -6.870  -3.018  0.00  0.00    -0.252 OA
ATOM      9  N   UNL     1      -0.914  -8.231  -1.468  0.00  0.00    -0.269 N 
ATOM     10  H   UNL     1      -1.667  -8.481  -0.909  0.00  0.00    +0.156 HD
ENDROOT
BRANCH   9  11
ATOM     11  C   UNL     1       0.239  -9.025  -1.486  0.00  0.00    +0.035 A 
ATOM     12  C   UNL     1       1.486  -8.436  -1.652  0.00  0.00    +0.025 A 
ATOM     13  C   UNL     1       2.623  -9.219  -1.671  0.00  0.00    +0.025 A 
ATOM     14  C   UNL     1       2.520 -10.597  -1.524  0.00  0.00    +0.033 A 
ATOM     15  C   UNL     1       1.273 -11.186  -1.358  0.00  0.00    +0.025 A 
ATOM     16  C   UNL     1       0.137 -10.402  -1.334  0.00  0.00    +0.025 A 
BRANCH  14  17
ATOM     17  N   UNL     1       3.673 -11.391  -1.544  0.00  0.00    -0.285 N 
ATOM     18  C   UNL     1       4.827 -10.918  -1.032  0.00  0.00    +0.217 C 
ATOM     19  O   UNL     1       4.842  -9.849  -0.459  0.00  0.00    -0.275 OA
ATOM     20  H   UNL     1       3.642 -12.282  -1.926  0.00  0.00    +0.155 HD
BRANCH  18  21
ATOM     21  C   UNL     1       6.097 -11.717  -1.171  0.00  0.00    +0.099 C 
BRANCH  21  22
ATOM     22  C   UNL     1       7.250 -10.961  -0.509  0.00  0.00    -0.008 C 
ATOM     23  C   UNL     1       8.511 -11.826  -0.540  0.00  0.00    +0.008 C 
ATOM     24  C   UNL     1       7.507  -9.657  -1.266  0.00  0.00    +0.008 C 
ENDBRANCH  21  22
ENDBRANCH  18  21
ENDBRANCH  14  17
ENDBRANCH   9  11
BRANCH   1  26
ATOM     25  N   UNL     1      -1.476  -2.113  -3.377  0.00  0.00    -0.315 N 
ATOM     26  C   UNL     1      -2.475  -2.574  -2.599  0.00  0.00    +0.218 C 
ATOM     27  O   UNL     1      -3.509  -1.947  -2.504  0.00  0.00    -0.275 OA
ATOM     28  H   UNL     1      -0.649  -2.614  -3.453  0.00  0.00    +0.149 HD
BRANCH  25  29
ATOM     29  C   UNL     1      -1.639  -0.854  -4.108  0.00  0.00    +0.104 C 
BRANCH  29  31
ATOM     30  C   UNL     1      -0.538   0.755  -5.672  0.00  0.00    +0.005 C 
ATOM     31  C   UNL     1      -0.368  -0.560  -4.908  0.00  0.00    +0.015 C 
ENDBRANCH  29  31
ENDBRANCH  25  29
ENDBRANCH   1  26
TORSDOF 7
