REMARK  Name = ZINC20850023
REMARK  11 active torsions:
REMARK  status: ('A' for Active; 'I' for Inactive)
REMARK    1  A    between atoms: C_1  and  C_2
REMARK    2  A    between atoms: C_2  and  C_38
REMARK    3  A    between atoms: C_6  and  C_25
REMARK    4  A    between atoms: C_11  and  S_13
REMARK    5  A    between atoms: S_13  and  C_14
REMARK    6  A    between atoms: C_14  and  C_15
REMARK    7  A    between atoms: C_18  and  N_21
REMARK    8  A    between atoms: C_28  and  O_33
REMARK    9  A    between atoms: C_29  and  O_31
REMARK   10  A    between atoms: O_31  and  C_32
REMARK   11  A    between atoms: O_33  and  C_34
REMARK                            x       y       z     vdW  Elec       q    Type
REMARK                         _______ _______ _______ _____ _____    ______ ____
ROOT
ATOM      1  C   UNL     1     -12.350   9.569   0.158  0.00  0.00    +0.011 C 
ATOM      2  C   UNL     1     -13.074   8.241  -0.073  0.00  0.00    -0.023 C 
ATOM      3  C   UNL     1     -12.095   7.213  -0.643  0.00  0.00    +0.058 C 
ATOM      4  C   UNL     1     -10.975   6.976   0.342  0.00  0.00    +0.020 C 
ATOM      5  C   UNL     1     -11.185   7.085   1.671  0.00  0.00    +0.041 C 
ATOM      6  C   UNL     1     -10.084   6.850   2.682  0.00  0.00    +0.176 C 
ATOM      7  N   UNL     1      -8.946   6.206   2.040  0.00  0.00    -0.220 N 
ATOM      8  C   UNL     1      -8.797   6.122   0.695  0.00  0.00    +0.219 A 
ATOM      9  N   UNL     1      -7.677   5.498   0.448  0.00  0.00    -0.187 NA
ATOM     10  C   UNL     1      -7.086   5.165   1.605  0.00  0.00    +0.211 A 
ATOM     11  N   UNL     1      -7.837   5.576   2.604  0.00  0.00    -0.141 NA
ATOM     12  N   UNL     1      -9.744   6.642  -0.171  0.00  0.00    -0.287 N 
ATOM     13  C   UNL     1     -12.453   7.428   2.175  0.00  0.00    +0.164 C 
ATOM     14  O   UNL     1     -12.615   7.499   3.378  0.00  0.00    -0.292 OA
ATOM     15  C   UNL     1     -13.611   7.708   1.259  0.00  0.00    +0.086 C 
ATOM     16  C   UNL     1     -14.232   8.448  -1.051  0.00  0.00    +0.011 C 
ATOM     17  H   UNL     1      -9.536   6.791  -1.241  0.00  0.00    +0.155 HD
ENDROOT
BRANCH   6  18
ATOM     18  C   UNL     1      -9.649   8.171   3.263  0.00  0.00    -0.015 A 
ATOM     19  C   UNL     1      -9.124   9.148   2.438  0.00  0.00    +0.010 A 
ATOM     20  C   UNL     1      -8.729  10.363   2.966  0.00  0.00    +0.050 A 
ATOM     21  C   UNL     1      -8.847  10.599   4.326  0.00  0.00    +0.162 A 
ATOM     22  C   UNL     1      -9.370   9.613   5.158  0.00  0.00    +0.162 A 
ATOM     23  C   UNL     1      -9.769   8.399   4.621  0.00  0.00    +0.055 A 
BRANCH  22  24
ATOM     24  O   UNL     1      -9.487   9.839   6.493  0.00  0.00    -0.491 OA
ATOM     25  C   UNL     1     -10.031   8.782   7.285  0.00  0.00    +0.277 C 
ENDBRANCH  22  24
BRANCH  21  26
ATOM     26  O   UNL     1      -8.453  11.791   4.848  0.00  0.00    -0.491 OA
ATOM     27  C   UNL     1      -7.926  12.757   3.935  0.00  0.00    +0.277 C 
ENDBRANCH  21  26
ENDBRANCH   6  18
BRANCH  10  28
ATOM     28  S   UNL     1      -5.554   4.308   1.762  0.00  0.00    -0.080 S 
BRANCH  28  29
ATOM     29  C   UNL     1      -5.034   4.022   0.048  0.00  0.00    +0.112 C 
BRANCH  29  30
ATOM     30  C   UNL     1      -3.719   3.286   0.038  0.00  0.00    -0.037 A 
ATOM     31  C   UNL     1      -3.700   1.904   0.030  0.00  0.00    +0.007 A 
ATOM     32  C   UNL     1      -2.494   1.229   0.021  0.00  0.00    +0.033 A 
ATOM     33  C   UNL     1      -1.306   1.936   0.019  0.00  0.00    +0.126 A 
ATOM     34  C   UNL     1      -1.325   3.319   0.032  0.00  0.00    +0.033 A 
ATOM     35  C   UNL     1      -2.531   3.993   0.036  0.00  0.00    +0.007 A 
BRANCH  33  36
ATOM     36  N   UNL     1      -0.014   1.214   0.009  0.00  0.00    +0.056 N 
ATOM     37  O   UNL     1       0.002  -0.004   0.002  0.00  0.00    -0.126 OA
ATOM     38  O   UNL     1       1.032   1.837   0.002  0.00  0.00    -0.126 OA
ENDBRANCH  33  36
ENDBRANCH  29  30
ENDBRANCH  28  29
ENDBRANCH  10  28
TORSDOF 7
