REMARK  Name = ZINC40322040
REMARK  7 active torsions:
REMARK  status: ('A' for Active; 'I' for Inactive)
REMARK    1  A    between atoms: C_6  and  C_7
REMARK    2  A    between atoms: C_7  and  C_9
REMARK    3  A    between atoms: C_7  and  N_28
REMARK    4  A    between atoms: C_9  and  N_10
REMARK    5  A    between atoms: C_11  and  C_13
REMARK    6  A    between atoms: C_16  and  S_18
REMARK    7  A    between atoms: S_18  and  C_21
REMARK                            x       y       z     vdW  Elec       q    Type
REMARK                         _______ _______ _______ _____ _____    ______ ____
ROOT
ATOM      1  N   UNL     1      -2.867  -2.037  -1.357  0.00  0.00    -0.310 N 
ATOM      2  C   UNL     1      -3.370  -2.541  -2.502  0.00  0.00    +0.279 C 
ATOM      3  O   UNL     1      -2.893  -2.212  -3.572  0.00  0.00    -0.267 OA
ATOM      4  H   UNL     1      -3.248  -2.299  -0.504  0.00  0.00    +0.149 HD
ENDROOT
BRANCH   2   5
ATOM      5  C   UNL     1      -4.492  -3.484  -2.457  0.00  0.00    +0.192 A 
ATOM      6  C   UNL     1      -5.090  -4.070  -3.535  0.00  0.00    +0.056 A 
ATOM      7  C   UNL     1      -6.110  -4.893  -3.033  0.00  0.00    +0.070 A 
ATOM      8  C   UNL     1      -6.090  -4.775  -1.687  0.00  0.00    +0.246 A 
ATOM      9  O   UNL     1      -5.111  -3.928  -1.344  0.00  0.00    -0.433 OA
BRANCH   8  10
ATOM     10  S   UNL     1      -7.171  -5.601  -0.568  0.00  0.00    +0.058 S 
ATOM     11  O   UNL     1      -7.205  -4.819   0.617  0.00  0.00    -0.161 OA
ATOM     12  O   UNL     1      -8.345  -5.925  -1.301  0.00  0.00    -0.161 OA
BRANCH  10  13
ATOM     13  C   UNL     1      -6.407  -7.131  -0.140  0.00  0.00    +0.097 A 
ATOM     14  C   UNL     1      -6.652  -8.261  -0.898  0.00  0.00    +0.029 A 
ATOM     15  C   UNL     1      -6.053  -9.461  -0.562  0.00  0.00    +0.022 A 
ATOM     16  C   UNL     1      -5.209  -9.530   0.532  0.00  0.00    +0.041 A 
ATOM     17  C   UNL     1      -4.965  -8.399   1.290  0.00  0.00    +0.022 A 
ATOM     18  C   UNL     1      -5.560  -7.198   0.950  0.00  0.00    +0.029 A 
ATOM     19 CL   UNL     1      -4.457 -11.037   0.954  0.00  0.00    -0.084 Cl
ENDBRANCH  10  13
ENDBRANCH   8  10
ENDBRANCH   2   5
BRANCH   1  20
ATOM     20  C   UNL     1      -1.746  -1.095  -1.401  0.00  0.00    +0.094 C 
BRANCH  20  21
ATOM     21  C   UNL     1      -1.457  -0.580   0.011  0.00  0.00    -0.020 C 
BRANCH  21  27
ATOM     22  C   UNL     1      -3.552  -0.336   1.358  0.00  0.00    +0.003 A 
ATOM     23  C   UNL     1      -4.627   0.408   1.807  0.00  0.00    +0.020 A 
ATOM     24  C   UNL     1      -4.779   1.720   1.397  0.00  0.00    +0.041 A 
ATOM     25  C   UNL     1      -3.855   2.288   0.538  0.00  0.00    +0.020 A 
ATOM     26  C   UNL     1      -2.780   1.543   0.089  0.00  0.00    +0.003 A 
ATOM     27  C   UNL     1      -2.629   0.231   0.499  0.00  0.00    -0.059 A 
ATOM     28 CL   UNL     1      -6.129   2.655   1.960  0.00  0.00    -0.084 Cl
ENDBRANCH  21  27
BRANCH  21  29
ATOM     29  N   UNL     1      -0.254   0.263  -0.013  0.00  0.00    +0.385 N 
ATOM     30  C   UNL     1       0.050   0.760   1.353  0.00  0.00    -0.078 C 
ATOM     31  C   UNL     1       1.556   1.113   1.276  0.00  0.00    -0.020 C 
ATOM     32  C   UNL     1       2.128  -0.007   0.376  0.00  0.00    -0.020 C 
ATOM     33  C   UNL     1       0.921  -0.538  -0.421  0.00  0.00    -0.078 C 
ATOM     34  H   UNL     1      -0.384   1.038  -0.645  0.00  0.00    -0.081 HD
ENDBRANCH  21  29
ENDBRANCH  20  21
ENDBRANCH   1  20
TORSDOF 7
