REMARK  Name = ZINC09088683
REMARK  11 active torsions:
REMARK  status: ('A' for Active; 'I' for Inactive)
REMARK    1  A    between atoms: C_1  and  C_2
REMARK    2  A    between atoms: C_2  and  C_3
REMARK    3  A    between atoms: C_3  and  C_4
REMARK    4  A    between atoms: C_4  and  O_5
REMARK    5  A    between atoms: O_5  and  C_6
REMARK    6  A    between atoms: C_6  and  C_8
REMARK    7  A    between atoms: C_9  and  N_33
REMARK    8  A    between atoms: N_20  and  C_23
REMARK    9  A    between atoms: C_23  and  C_24
REMARK   10  A    between atoms: C_29  and  C_31
REMARK   11  A    between atoms: C_29  and  C_32
REMARK                            x       y       z     vdW  Elec       q    Type
REMARK                         _______ _______ _______ _____ _____    ______ ____
ROOT
ATOM      1  C   UNL     1      -4.119   3.041  -2.054  0.00  0.00    +0.117 C 
ATOM      2  C   UNL     1      -4.750   2.679  -0.905  0.00  0.00    +0.195 C 
ATOM      3  O   UNL     1      -4.190   1.816  -0.045  0.00  0.00    -0.446 OA
ATOM      4  C   UNL     1      -2.859   1.615  -0.058  0.00  0.00    +0.116 C 
ATOM      5  C   UNL     1      -2.116   1.913  -1.140  0.00  0.00    +0.057 C 
ATOM      6  C   UNL     1      -2.766   2.478  -2.377  0.00  0.00    +0.141 C 
ATOM      7  C   UNL     1      -2.859   1.438  -3.450  0.00  0.00    -0.002 A 
ATOM      8  C   UNL     1      -3.520   0.229  -3.495  0.00  0.00    +0.007 A 
ATOM      9  C   UNL     1      -3.400  -0.511  -4.666  0.00  0.00    +0.000 A 
ATOM     10  C   UNL     1      -2.652  -0.055  -5.732  0.00  0.00    +0.002 A 
ATOM     11  C   UNL     1      -1.984   1.159  -5.694  0.00  0.00    +0.024 A 
ATOM     12  C   UNL     1      -2.096   1.913  -4.524  0.00  0.00    +0.041 A 
ATOM     13  N   UNL     1      -1.543   3.143  -4.215  0.00  0.00    -0.266 N 
ATOM     14  C   UNL     1      -1.883   3.553  -2.975  0.00  0.00    +0.240 C 
ATOM     15  O   UNL     1      -1.545   4.588  -2.440  0.00  0.00    -0.274 OA
ATOM     16  C   UNL     1      -0.723   1.709  -1.150  0.00  0.00    +0.165 C 
ATOM     17  O   UNL     1      -0.089   1.971  -2.153  0.00  0.00    -0.292 OA
ATOM     18  C   UNL     1      -0.004   1.173   0.058  0.00  0.00    +0.086 C 
ATOM     19  C   UNL     1      -0.785   1.566   1.317  0.00  0.00    -0.021 C 
ATOM     20  C   UNL     1      -2.217   1.036   1.181  0.00  0.00    +0.081 C 
ATOM     21  C   UNL     1      -0.119   0.949   2.548  0.00  0.00    +0.012 C 
ATOM     22  C   UNL     1      -0.812   3.090   1.451  0.00  0.00    +0.012 C 
ENDROOT
BRANCH   2  23
ATOM     23  N   UNL     1      -5.981   3.208  -0.620  0.00  0.00    -0.329 N 
ATOM     24  H   UNL     1      -6.433   3.763  -1.274  0.00  0.00    +0.145 HD
ATOM     25  H   UNL     1      -6.400   3.027   0.236  0.00  0.00    +0.145 HD
ENDBRANCH   2  23
BRANCH   1  26
ATOM     26  C   UNL     1      -4.734   3.941  -2.939  0.00  0.00    +0.342 C 
ATOM     27  O   UNL     1      -5.283   3.527  -3.944  0.00  0.00    -0.245 OA
BRANCH  26  28
ATOM     28  O   UNL     1      -4.716   5.265  -2.675  0.00  0.00    -0.461 OA
BRANCH  28  29
ATOM     29  C   UNL     1      -5.362   6.123  -3.618  0.00  0.00    +0.232 C 
BRANCH  29  30
ATOM     30  C   UNL     1      -5.239   7.575  -3.153  0.00  0.00    +0.041 C 
BRANCH  30  32
ATOM     31  C   UNL     1      -5.808   9.946  -3.699  0.00  0.00    +0.004 C 
ATOM     32  C   UNL     1      -5.930   8.494  -4.164  0.00  0.00    -0.000 C 
ENDBRANCH  30  32
ENDBRANCH  29  30
ENDBRANCH  28  29
ENDBRANCH  26  28
ENDBRANCH   1  26
BRANCH  13  33
ATOM     33  C   UNL     1      -0.689   3.909  -5.125  0.00  0.00    +0.140 C 
BRANCH  33  34
ATOM     34  C   UNL     1       0.751   3.522  -4.908  0.00  0.00    -0.015 C 
ATOM     35  C   UNL     1       1.477   3.106  -5.916  0.00  0.00    +0.005 C 
ENDBRANCH  33  34
ENDBRANCH  13  33
TORSDOF 8
