REMARK  Name = ZINC08892324
REMARK  5 active torsions:
REMARK  status: ('A' for Active; 'I' for Inactive)
REMARK    1  A    between atoms: C_1  and  C_2
REMARK    2  A    between atoms: C_3  and  C_25
REMARK    3  A    between atoms: C_4  and  C_17
REMARK    4  A    between atoms: C_6  and  C_9
REMARK    5  A    between atoms: C_25  and  C_27
REMARK                            x       y       z     vdW  Elec       q    Type
REMARK                         _______ _______ _______ _____ _____    ______ ____
ROOT
ATOM      1  C   UNL     1       3.412   1.846  -0.712  0.00  0.00    +0.061 C 
ATOM      2  C   UNL     1       1.941   1.598  -0.925  0.00  0.00    +0.018 C 
ATOM      3  C   UNL     1       1.462   1.452  -2.180  0.00  0.00    +0.089 C 
ATOM      4  C   UNL     1       0.004   1.193  -2.443  0.00  0.00    -0.020 C 
ATOM      5  C   UNL     1      -0.250   0.986  -0.050  0.00  0.00    +0.082 C 
ATOM      6  N   UNL     1       1.104   1.522   0.150  0.00  0.00    -0.303 NA
ATOM      7  N   UNL     1      -0.805   1.589  -1.278  0.00  0.00    +0.402 N 
ATOM      8  H   UNL     1      -1.771   1.267  -1.410  0.00  0.00    -0.081 HD
ATOM      9  H   UNL     1      -0.795   2.612  -1.190  0.00  0.00    -0.081 HD
ENDROOT
BRANCH   5  10
ATOM     10  C   UNL     1      -1.119   1.347   1.127  0.00  0.00    -0.022 A 
ATOM     11  C   UNL     1      -1.915   2.477   1.079  0.00  0.00    +0.006 A 
ATOM     12  C   UNL     1      -2.712   2.808   2.157  0.00  0.00    +0.020 A 
ATOM     13  C   UNL     1      -2.716   2.009   3.287  0.00  0.00    +0.042 A 
ATOM     14  C   UNL     1      -1.920   0.879   3.337  0.00  0.00    +0.040 A 
ATOM     15  C   UNL     1      -1.126   0.545   2.254  0.00  0.00    +0.046 A 
ATOM     16 CL   UNL     1      -0.132  -0.877   2.313  0.00  0.00    -0.083 Cl
ATOM     17 CL   UNL     1      -3.717   2.426   4.642  0.00  0.00    -0.083 Cl
ENDBRANCH   5  10
BRANCH   4  18
ATOM     18  C   UNL     1      -0.436   1.990  -3.645  0.00  0.00    -0.042 A 
ATOM     19  C   UNL     1      -0.958   3.259  -3.479  0.00  0.00    +0.005 A 
ATOM     20  C   UNL     1      -1.357   3.992  -4.580  0.00  0.00    +0.020 A 
ATOM     21  C   UNL     1      -1.243   3.452  -5.849  0.00  0.00    +0.042 A 
ATOM     22  C   UNL     1      -0.726   2.180  -6.015  0.00  0.00    +0.040 A 
ATOM     23  C   UNL     1      -0.322   1.448  -4.913  0.00  0.00    +0.044 A 
ATOM     24 CL   UNL     1       0.328  -0.148  -5.120  0.00  0.00    -0.083 Cl
ATOM     25 CL   UNL     1      -1.751   4.370  -7.232  0.00  0.00    -0.083 Cl
ENDBRANCH   4  18
BRANCH   3  26
ATOM     26  C   UNL     1       2.346   1.544  -3.265  0.00  0.00    +0.138 C 
ATOM     27  O   UNL     1       2.394   2.563  -3.925  0.00  0.00    -0.297 OA
ATOM     28  C   UNL     1       3.236   0.379  -3.612  0.00  0.00    +0.086 C 
ENDBRANCH   3  26
TORSDOF 3
