REMARK  Name = ZINC63172472
REMARK  8 active torsions:
REMARK  status: ('A' for Active; 'I' for Inactive)
REMARK    1  A    between atoms: C_1  and  O_2
REMARK    2  A    between atoms: O_2  and  C_3
REMARK    3  A    between atoms: C_10  and  C_18
REMARK    4  A    between atoms: C_21  and  O_33
REMARK    5  A    between atoms: C_22  and  C_24
REMARK    6  A    between atoms: C_24  and  O_25
REMARK    7  A    between atoms: O_25  and  C_26
REMARK    8  A    between atoms: O_33  and  C_34
REMARK                            x       y       z     vdW  Elec       q    Type
REMARK                         _______ _______ _______ _____ _____    ______ ____
ROOT
ATOM      1  C   UNL     1       0.513  -2.954   0.880  0.00  0.00    +0.121 A 
ATOM      2  C   UNL     1      -0.127  -1.747   0.552  0.00  0.00    +0.047 A 
ATOM      3  C   UNL     1      -1.440  -1.682   0.246  0.00  0.00    +0.029 A 
ATOM      4  C   UNL     1      -2.252  -2.901   0.251  0.00  0.00    +0.043 A 
ATOM      5  N   UNL     1      -3.529  -3.106   0.019  0.00  0.00    -0.376 N 
ATOM      6  C   UNL     1      -3.784  -4.541   0.073  0.00  0.00    +0.128 C 
ATOM      7  C   UNL     1      -4.875  -4.908   1.083  0.00  0.00    +0.111 C 
ATOM      8  N   UNL     1      -4.855  -6.367   1.277  0.00  0.00    -0.307 NA
ATOM      9  C   UNL     1      -3.635  -6.846   1.934  0.00  0.00    +0.086 C 
ATOM     10  C   UNL     1      -2.415  -6.601   1.027  0.00  0.00    +0.048 C 
ATOM     11  C   UNL     1      -2.487  -5.161   0.570  0.00  0.00    -0.035 C 
ATOM     12  C   UNL     1      -1.581  -4.178   0.607  0.00  0.00    +0.003 A 
ATOM     13  C   UNL     1      -0.146  -4.137   0.913  0.00  0.00    +0.055 A 
ATOM     14  H   UNL     1      -5.678  -6.677   1.771  0.00  0.00    +0.123 HD
ATOM     15  H   UNL     1      -4.190  -2.418  -0.158  0.00  0.00    +0.160 HD
ENDROOT
BRANCH   7  16
ATOM     16  C   UNL     1      -4.607  -4.217   2.394  0.00  0.00    -0.028 A 
ATOM     17  C   UNL     1      -3.371  -4.346   3.002  0.00  0.00    +0.009 A 
ATOM     18  C   UNL     1      -3.123  -3.713   4.205  0.00  0.00    +0.046 A 
ATOM     19  C   UNL     1      -4.114  -2.948   4.803  0.00  0.00    +0.126 A 
ATOM     20  C   UNL     1      -5.352  -2.820   4.191  0.00  0.00    +0.032 A 
ATOM     21  C   UNL     1      -5.594  -3.450   2.985  0.00  0.00    +0.015 A 
BRANCH  19  22
ATOM     22  O   UNL     1      -3.872  -2.325   5.986  0.00  0.00    -0.495 OA
ATOM     23  C   UNL     1      -2.575  -2.502   6.559  0.00  0.00    +0.277 C 
ENDBRANCH  19  22
BRANCH  20  24
ATOM     24  C   UNL     1      -6.431  -1.989   4.837  0.00  0.00    +0.268 C 
BRANCH  24  25
ATOM     25  O   UNL     1      -7.603  -2.012   4.020  0.00  0.00    -0.484 OA
BRANCH  25  26
ATOM     26  C   UNL     1      -8.678  -1.307   4.463  0.00  0.00    +0.156 A 
ATOM     27  C   UNL     1      -8.603  -0.603   5.656  0.00  0.00    +0.048 A 
ATOM     28  C   UNL     1      -9.697   0.113   6.104  0.00  0.00    +0.004 A 
ATOM     29  C   UNL     1     -10.865   0.128   5.366  0.00  0.00    +0.003 A 
ATOM     30  C   UNL     1     -10.944  -0.572   4.177  0.00  0.00    +0.042 A 
ATOM     31  C   UNL     1      -9.851  -1.285   3.719  0.00  0.00    +0.165 A 
ATOM     32  F   UNL     1      -9.925  -1.965   2.554  0.00  0.00    -0.202 F 
ENDBRANCH  25  26
ENDBRANCH  24  25
ENDBRANCH  20  24
ENDBRANCH   7  16
BRANCH   1  34
ATOM     33  C   UNL     1       2.497  -1.667   1.125  0.00  0.00    +0.277 C 
ATOM     34  O   UNL     1       1.841  -2.935   1.171  0.00  0.00    -0.495 OA
ENDBRANCH   1  34
TORSDOF 6
