REMARK  Name = ZINC65416989
REMARK  7 active torsions:
REMARK  status: ('A' for Active; 'I' for Inactive)
REMARK    1  A    between atoms: C_1  and  C_2
REMARK    2  A    between atoms: C_4  and  C_8
REMARK    3  A    between atoms: C_5  and  C_7
REMARK    4  A    between atoms: C_8  and  C_9
REMARK    5  A    between atoms: C_8  and  N_10
REMARK    6  A    between atoms: N_13  and  C_14
REMARK    7  A    between atoms: C_17  and  C_20
REMARK                            x       y       z     vdW  Elec       q    Type
REMARK                         _______ _______ _______ _____ _____    ______ ____
ROOT
ATOM      1  N   UNL     1      -2.755  -3.100  -0.580  0.00  0.00    -0.292 N 
ATOM      2  C   UNL     1      -3.472  -4.086  -1.155  0.00  0.00    +0.304 C 
ATOM      3  O   UNL     1      -3.026  -5.216  -1.197  0.00  0.00    -0.252 OA
ATOM      4  N   UNL     1      -4.682  -3.818  -1.684  0.00  0.00    -0.269 N 
ATOM      5  H   UNL     1      -3.110  -2.198  -0.547  0.00  0.00    +0.151 HD
ATOM      6  H   UNL     1      -5.067  -2.933  -1.591  0.00  0.00    +0.156 HD
ENDROOT
BRANCH   4   7
ATOM      7  C   UNL     1      -5.384  -4.819  -2.366  0.00  0.00    +0.035 A 
ATOM      8  C   UNL     1      -5.302  -6.138  -1.939  0.00  0.00    +0.024 A 
ATOM      9  C   UNL     1      -5.992  -7.126  -2.610  0.00  0.00    +0.012 A 
ATOM     10  C   UNL     1      -6.774  -6.799  -3.716  0.00  0.00    +0.003 A 
ATOM     11  C   UNL     1      -6.856  -5.475  -4.142  0.00  0.00    +0.012 A 
ATOM     12  C   UNL     1      -6.168  -4.490  -3.465  0.00  0.00    +0.024 A 
BRANCH  10  13
ATOM     13  C   UNL     1      -7.518  -7.860  -4.440  0.00  0.00    +0.102 A 
ATOM     14  C   UNL     1      -8.297  -7.601  -5.536  0.00  0.00    +0.097 A 
ATOM     15  S   UNL     1      -8.873  -9.129  -5.923  0.00  0.00    +0.029 S 
ATOM     16  N   UNL     1      -8.155  -9.992  -4.759  0.00  0.00    -0.110 NA
ATOM     17  N   UNL     1      -7.477  -9.133  -4.082  0.00  0.00    -0.141 NA
ENDBRANCH  10  13
ENDBRANCH   4   7
BRANCH   1  18
ATOM     18  C   UNL     1      -1.439  -3.390  -0.006  0.00  0.00    +0.105 C 
ATOM     19  C   UNL     1      -1.609  -3.902   1.426  0.00  0.00    +0.033 C 
BRANCH  18  23
ATOM     20  C   UNL     1      -0.037   1.507   0.047  0.00  0.00    +0.086 C 
ATOM     21  C   UNL     1      -0.011   0.000   0.029  0.00  0.00    +0.103 A 
ATOM     22  C   UNL     1      -1.089  -0.805   0.024  0.00  0.00    +0.050 A 
ATOM     23  C   UNL     1      -0.607  -2.134   0.005  0.00  0.00    +0.013 A 
ATOM     24  C   UNL     1       0.736  -2.062   0.000  0.00  0.00    +0.107 A 
ATOM     25  O   UNL     1       1.091  -0.766   0.009  0.00  0.00    -0.465 OA
ATOM     26  C   UNL     1       1.682  -3.235  -0.018  0.00  0.00    +0.086 C 
ENDBRANCH  18  23
ENDBRANCH   1  18
TORSDOF 4
