REMARK  Name = ZINC14501907
REMARK  7 active torsions:
REMARK  status: ('A' for Active; 'I' for Inactive)
REMARK    1  A    between atoms: C_1  and  C_2
REMARK    2  A    between atoms: C_2  and  O_3
REMARK    3  A    between atoms: O_3  and  C_4
REMARK    4  A    between atoms: C_7  and  C_10
REMARK    5  A    between atoms: C_11  and  C_31
REMARK    6  A    between atoms: C_16  and  C_18
REMARK    7  A    between atoms: C_18  and  N_19
REMARK                            x       y       z     vdW  Elec       q    Type
REMARK                         _______ _______ _______ _____ _____    ______ ____
ROOT
ATOM      1  C   UNL     1       1.143  -0.676  -0.013  0.00  0.00    +0.083 A 
ATOM      2  C   UNL     1       2.326   0.009  -0.020  0.00  0.00    +0.016 A 
ATOM      3  S   UNL     1       1.731   1.696  -0.005  0.00  0.00    -0.057 S 
ATOM      4  C   UNL     1      -0.016   1.316   0.009  0.00  0.00    +0.165 A 
ATOM      5  N   UNL     1       0.002  -0.004   0.002  0.00  0.00    -0.224 NA
ATOM      6  N   UNL     1      -1.104   2.180   0.019  0.00  0.00    -0.263 N 
ATOM      7  C   UNL     1      -0.905   3.513   0.026  0.00  0.00    +0.237 C 
ATOM      8  O   UNL     1       0.223   3.958   0.022  0.00  0.00    -0.274 OA
ATOM      9  C   UNL     1       3.740  -0.511  -0.036  0.00  0.00    +0.054 C 
ATOM     10  H   UNL     1      -2.006   1.825   0.022  0.00  0.00    +0.157 HD
ENDROOT
BRANCH   1  14
ATOM     11  C   UNL     1       1.129  -4.930  -0.034  0.00  0.00    +0.121 A 
ATOM     12  C   UNL     1       0.152  -4.237   0.669  0.00  0.00    +0.046 A 
ATOM     13  C   UNL     1       0.154  -2.858   0.678  0.00  0.00    +0.013 A 
ATOM     14  C   UNL     1       1.138  -2.160  -0.020  0.00  0.00    +0.001 A 
ATOM     15  C   UNL     1       2.114  -2.858  -0.729  0.00  0.00    +0.013 A 
ATOM     16  C   UNL     1       2.110  -4.237  -0.730  0.00  0.00    +0.046 A 
BRANCH  11  17
ATOM     17  O   UNL     1       1.124  -6.289  -0.041  0.00  0.00    -0.492 OA
BRANCH  17  19
ATOM     18  C   UNL     1       1.990  -8.454  -0.675  0.00  0.00    +0.048 C 
ATOM     19  C   UNL     1       2.158  -6.938  -0.784  0.00  0.00    +0.225 C 
ENDBRANCH  17  19
ENDBRANCH  11  17
ENDBRANCH   1  14
BRANCH   7  20
ATOM     20  C   UNL     1      -2.085   4.451   0.037  0.00  0.00    +0.214 C 
BRANCH  20  21
ATOM     21  N   UNL     1      -1.607   5.836   0.042  0.00  0.00    -0.215 N 
ATOM     22  C   UNL     1      -1.366   6.559  -1.071  0.00  0.00    +0.247 C 
ATOM     23  O   UNL     1      -1.498   6.201  -2.222  0.00  0.00    -0.273 OA
ATOM     24  C   UNL     1      -0.897   7.910  -0.582  0.00  0.00    +0.113 C 
ATOM     25  C   UNL     1      -1.851   9.005  -1.049  0.00  0.00    +0.035 C 
ATOM     26  C   UNL     1      -1.375  10.360  -0.519  0.00  0.00    +0.003 C 
ATOM     27  C   UNL     1       0.039  10.639  -1.033  0.00  0.00    +0.000 C 
ATOM     28  C   UNL     1       0.988   9.546  -0.536  0.00  0.00    +0.003 C 
ATOM     29  C   UNL     1       0.522   8.187  -1.065  0.00  0.00    +0.035 C 
ATOM     30  N   UNL     1      -0.929   7.790   0.881  0.00  0.00    -0.285 N 
ATOM     31  C   UNL     1      -1.362   6.543   1.152  0.00  0.00    +0.310 C 
ATOM     32  O   UNL     1      -1.511   6.109   2.277  0.00  0.00    -0.252 OA
ATOM     33  H   UNL     1      -0.689   8.474   1.526  0.00  0.00    +0.151 HD
ENDBRANCH  20  21
ENDBRANCH   7  20
TORSDOF 5
