REMARK  Name = ZINC62834236
REMARK  5 active torsions:
REMARK  status: ('A' for Active; 'I' for Inactive)
REMARK    1  A    between atoms: C_1  and  C_2
REMARK    2  A    between atoms: C_2  and  C_3
REMARK    3  A    between atoms: C_7  and  C_24
REMARK    4  A    between atoms: C_11  and  C_13
REMARK    5  A    between atoms: C_17  and  N_23
REMARK                            x       y       z     vdW  Elec       q    Type
REMARK                         _______ _______ _______ _____ _____    ______ ____
ROOT
ATOM      1  C   UNL     1       4.072   0.899  -0.155  0.00  0.00    +0.103 A 
ATOM      2  C   UNL     1       4.646   1.817   0.666  0.00  0.00    +0.041 A 
ATOM      3  C   UNL     1       6.028   1.862   0.363  0.00  0.00    +0.002 A 
ATOM      4  C   UNL     1       7.100   2.607   0.874  0.00  0.00    +0.032 A 
ATOM      5  C   UNL     1       8.367   2.423   0.359  0.00  0.00    +0.025 A 
ATOM      6  C   UNL     1       8.583   1.501  -0.665  0.00  0.00    +0.025 A 
ATOM      7  C   UNL     1       7.540   0.764  -1.176  0.00  0.00    +0.028 A 
ATOM      8  C   UNL     1       6.254   0.933  -0.671  0.00  0.00    +0.047 A 
ATOM      9  N   UNL     1       5.043   0.350  -0.970  0.00  0.00    -0.351 N 
ATOM     10  H   UNL     1       4.895  -0.332  -1.643  0.00  0.00    +0.166 HD
ENDROOT
BRANCH   1  17
ATOM     11  C   UNL     1       0.835  -0.998  -0.783  0.00  0.00    +0.102 C 
ATOM     12  C   UNL     1       0.547  -2.321  -0.066  0.00  0.00    +0.182 C 
ATOM     13  O   UNL     1       1.482  -3.309  -0.507  0.00  0.00    -0.373 OA
ATOM     14  C   UNL     1       2.845  -3.004  -0.198  0.00  0.00    +0.133 C 
ATOM     15  C   UNL     1       3.250  -1.715  -0.923  0.00  0.00    +0.139 C 
ATOM     16  N   UNL     1       2.260  -0.673  -0.607  0.00  0.00    -0.289 N 
ATOM     17  C   UNL     1       2.646   0.541  -0.169  0.00  0.00    +0.263 C 
ATOM     18  O   UNL     1       1.814   1.342   0.216  0.00  0.00    -0.268 OA
ATOM     19  C   UNL     1       3.743  -4.154  -0.659  0.00  0.00    +0.039 C 
BRANCH  11  21
ATOM     20  C   UNL     1      -1.505  -0.233  -0.354  0.00  0.00    +0.006 C 
ATOM     21  C   UNL     1      -0.025   0.114  -0.178  0.00  0.00    +0.021 C 
ENDBRANCH  11  21
ENDBRANCH   1  17
BRANCH   5  22
ATOM     22  N   UNL     1       9.439   3.165   0.867  0.00  0.00    -0.358 N 
ATOM     23  H   UNL     1       9.291   3.807   1.579  0.00  0.00    +0.142 HD
ATOM     24  H   UNL     1      10.331   3.038   0.506  0.00  0.00    +0.142 HD
ENDBRANCH   5  22
TORSDOF 3
