REMARK  Name = ZINC20486852
REMARK  7 active torsions:
REMARK  status: ('A' for Active; 'I' for Inactive)
REMARK    1  A    between atoms: C_4  and  C_7
REMARK    2  A    between atoms: C_7  and  N_8
REMARK    3  A    between atoms: C_18  and  S_19
REMARK    4  A    between atoms: S_19  and  C_20
REMARK    5  A    between atoms: C_20  and  C_21
REMARK    6  A    between atoms: N_23  and  C_24
REMARK    7  A    between atoms: C_29  and  C_30
REMARK                            x       y       z     vdW  Elec       q    Type
REMARK                         _______ _______ _______ _____ _____    ______ ____
ROOT
ATOM      1  N   UNL     1       2.333   1.485  -0.054  0.00  0.00    -0.282 N 
ATOM      2  C   UNL     1       2.476   0.139  -0.072  0.00  0.00    +0.283 A 
ATOM      3  O   UNL     1       3.576  -0.379  -0.092  0.00  0.00    -0.265 OA
ATOM      4  C   UNL     1       1.248  -0.675  -0.068  0.00  0.00    +0.172 A 
ATOM      5  C   UNL     1       0.004  -0.003  -0.045  0.00  0.00    +0.186 A 
ATOM      6  N   UNL     1      -1.124  -0.715  -0.040  0.00  0.00    -0.233 NA
ATOM      7  C   UNL     1      -1.064  -2.032  -0.057  0.00  0.00    +0.133 A 
ATOM      8  C   UNL     1       0.164  -2.687  -0.080  0.00  0.00    +0.131 A 
ATOM      9  N   UNL     1       1.289  -2.000  -0.085  0.00  0.00    -0.245 NA
ATOM     10  N   UNL     1      -0.015   1.342  -0.028  0.00  0.00    -0.202 NA
ATOM     11  C   UNL     1       1.090   2.048  -0.032  0.00  0.00    +0.175 A 
ENDROOT
BRANCH   1  12
ATOM     12  C   UNL     1       3.521   2.342  -0.058  0.00  0.00    +0.162 C 
BRANCH  12  16
ATOM     13  C   UNL     1       4.627   3.227  -4.088  0.00  0.00    +0.000 A 
ATOM     14  C   UNL     1       3.747   4.054  -3.415  0.00  0.00    +0.000 A 
ATOM     15  C   UNL     1       3.389   3.768  -2.111  0.00  0.00    +0.005 A 
ATOM     16  C   UNL     1       3.911   2.654  -1.479  0.00  0.00    -0.028 A 
ATOM     17  C   UNL     1       4.795   1.830  -2.150  0.00  0.00    +0.005 A 
ATOM     18  C   UNL     1       5.149   2.113  -3.456  0.00  0.00    +0.000 A 
ENDBRANCH  12  16
ENDBRANCH   1  12
BRANCH  11  19
ATOM     19  S   UNL     1       0.965   3.805  -0.009  0.00  0.00    -0.078 S 
BRANCH  19  20
ATOM     20  C   UNL     1      -0.835   3.991   0.015  0.00  0.00    +0.173 C 
BRANCH  20  21
ATOM     21  C   UNL     1      -1.188   5.456   0.037  0.00  0.00    +0.227 C 
ATOM     22  O   UNL     1      -0.309   6.292   0.037  0.00  0.00    -0.275 OA
ATOM     23  N   UNL     1      -2.481   5.838   0.057  0.00  0.00    -0.284 N 
ATOM     24  H   UNL     1      -3.278   5.084  -0.018  0.00  0.00    +0.155 HD
BRANCH  23  25
ATOM     25  C   UNL     1      -2.809   7.193   0.173  0.00  0.00    +0.045 A 
ATOM     26  C   UNL     1      -2.004   8.157  -0.421  0.00  0.00    +0.024 A 
ATOM     27  C   UNL     1      -2.333   9.493  -0.308  0.00  0.00    +0.002 A 
ATOM     28  C   UNL     1      -3.457   9.873   0.403  0.00  0.00    +0.001 A 
ATOM     29  C   UNL     1      -4.257   8.916   1.000  0.00  0.00    +0.014 A 
ATOM     30  C   UNL     1      -3.936   7.578   0.887  0.00  0.00    +0.076 A 
BRANCH  30  31
ATOM     31  C   UNL     1      -4.808   6.535   1.539  0.00  0.00    +0.419 C 
ATOM     32  F   UNL     1      -5.873   7.162   2.194  0.00  0.00    -0.166 F 
ATOM     33  F   UNL     1      -5.307   5.668   0.561  0.00  0.00    -0.166 F 
ATOM     34  F   UNL     1      -4.053   5.809   2.466  0.00  0.00    -0.166 F 
ENDBRANCH  30  31
ENDBRANCH  23  25
ENDBRANCH  20  21
ENDBRANCH  19  20
ENDBRANCH  11  19
TORSDOF 7
