REMARK  Name = ZINC20908461
REMARK  8 active torsions:
REMARK  status: ('A' for Active; 'I' for Inactive)
REMARK    1  A    between atoms: C_4  and  C_7
REMARK    2  A    between atoms: C_7  and  C_8
REMARK    3  A    between atoms: C_8  and  C_27
REMARK    4  A    between atoms: N_9  and  N_10
REMARK    5  A    between atoms: C_13  and  S_16
REMARK    6  A    between atoms: S_16  and  C_17
REMARK    7  A    between atoms: C_17  and  C_18
REMARK    8  A    between atoms: C_27  and  C_28
REMARK                            x       y       z     vdW  Elec       q    Type
REMARK                         _______ _______ _______ _____ _____    ______ ____
ROOT
ATOM      1  N   UNL     1      -0.011   0.967   0.019  0.00  0.00    -0.205 N 
ATOM      2  C   UNL     1       1.182   1.677   0.010  0.00  0.00    +0.232 A 
ATOM      3  N   UNL     1       2.438   1.138  -0.006  0.00  0.00    -0.186 NA
ATOM      4  C   UNL     1       3.338   2.165  -0.012  0.00  0.00    +0.211 A 
ATOM      5  N   UNL     1       2.667   3.292   0.001  0.00  0.00    -0.144 NA
ATOM      6  N   UNL     1       1.301   2.982   0.009  0.00  0.00    -0.245 N 
ATOM      7  H   UNL     1       0.004  -0.133   0.018  0.00  0.00    +0.177 HD
ATOM      8  H   UNL     1       0.402   3.617   0.015  0.00  0.00    +0.192 HD
ENDROOT
BRANCH   1  10
ATOM      9  C   UNL     1      -2.334   0.996   0.033  0.00  0.00    +0.045 C 
ATOM     10  N   UNL     1      -1.234   1.651   0.030  0.00  0.00    -0.188 NA
BRANCH   9  11
ATOM     11  C   UNL     1      -2.314  -0.511   0.026  0.00  0.00    +0.088 C 
BRANCH  11  15
ATOM     12  C   UNL     1      -2.270  -1.955   4.046  0.00  0.00    +0.000 A 
ATOM     13  C   UNL     1      -3.474  -1.738   3.402  0.00  0.00    +0.000 A 
ATOM     14  C   UNL     1      -3.488  -1.270   2.102  0.00  0.00    +0.004 A 
ATOM     15  C   UNL     1      -2.298  -1.021   1.444  0.00  0.00    -0.042 A 
ATOM     16  C   UNL     1      -1.094  -1.243   2.085  0.00  0.00    +0.004 A 
ATOM     17  C   UNL     1      -1.080  -1.706   3.388  0.00  0.00    +0.000 A 
ENDBRANCH  11  15
ENDBRANCH   9  11
BRANCH   9  18
ATOM     18  C   UNL     1      -3.649   1.731   0.045  0.00  0.00    +0.088 C 
BRANCH  18  19
ATOM     19  C   UNL     1      -4.388   1.459  -1.240  0.00  0.00    -0.042 A 
ATOM     20  C   UNL     1      -4.205   2.287  -2.332  0.00  0.00    +0.004 A 
ATOM     21  C   UNL     1      -4.879   2.034  -3.512  0.00  0.00    +0.000 A 
ATOM     22  C   UNL     1      -5.745   0.959  -3.596  0.00  0.00    +0.000 A 
ATOM     23  C   UNL     1      -5.933   0.135  -2.503  0.00  0.00    +0.000 A 
ATOM     24  C   UNL     1      -5.254   0.385  -1.325  0.00  0.00    +0.004 A 
ENDBRANCH  18  19
ENDBRANCH   9  18
ENDBRANCH   1  10
BRANCH   4  25
ATOM     25  S   UNL     1       5.093   2.005  -0.031  0.00  0.00    -0.075 S 
BRANCH  25  26
ATOM     26  C   UNL     1       5.690   3.717  -0.030  0.00  0.00    +0.173 C 
BRANCH  26  27
ATOM     27  C   UNL     1       7.197   3.724  -0.046  0.00  0.00    +0.229 C 
ATOM     28  O   UNL     1       7.808   2.676  -0.057  0.00  0.00    -0.275 OA
ATOM     29  N   UNL     1       7.866   4.894  -0.048  0.00  0.00    -0.270 N 
ATOM     30  C   UNL     1       9.257   4.901   0.044  0.00  0.00    +0.125 A 
ATOM     31  C   UNL     1       9.934   6.112   0.148  0.00  0.00    +0.044 A 
ATOM     32  C   UNL     1      11.314   6.105   0.238  0.00  0.00    +0.005 A 
ATOM     33  C   UNL     1      11.973   4.883   0.222  0.00  0.00    +0.020 A 
ATOM     34  C   UNL     1      11.237   3.720   0.117  0.00  0.00    +0.113 A 
ATOM     35  N   UNL     1       9.921   3.757   0.037  0.00  0.00    -0.240 NA
ATOM     36  H   UNL     1       7.314   5.843  -0.123  0.00  0.00    +0.156 HD
ENDBRANCH  26  27
ENDBRANCH  25  26
ENDBRANCH   4  25
TORSDOF 8
