REMARK  Name = ZINC12950830
REMARK  12 active torsions:
REMARK  status: ('A' for Active; 'I' for Inactive)
REMARK    1  A    between atoms: C_1  and  C_2
REMARK    2  A    between atoms: C_2  and  N_3
REMARK    3  A    between atoms: N_3  and  C_4
REMARK    4  A    between atoms: C_4  and  C_5
REMARK    5  A    between atoms: N_7  and  C_8
REMARK    6  A    between atoms: C_18  and  C_20
REMARK    7  A    between atoms: C_20  and  C_21
REMARK    8  A    between atoms: C_21  and  C_22
REMARK    9  A    between atoms: C_23  and  C_34
REMARK   10  A    between atoms: C_25  and  C_33
REMARK   11  A    between atoms: N_27  and  C_32
REMARK   12  A    between atoms: C_30  and  C_31
REMARK                            x       y       z     vdW  Elec       q    Type
REMARK                         _______ _______ _______ _____ _____    ______ ____
ROOT
ATOM      1  N   UNL     1       5.006  -4.060   0.190  0.00  0.00    -0.293 N 
ATOM      2  C   UNL     1       4.909  -4.803  -0.930  0.00  0.00    +0.216 C 
ATOM      3  O   UNL     1       5.068  -4.287  -2.016  0.00  0.00    -0.276 OA
ENDROOT
BRANCH   1   5
ATOM      4  C   UNL     1       3.335  -4.611   1.889  0.00  0.00    +0.024 C 
ATOM      5  C   UNL     1       4.814  -4.683   1.502  0.00  0.00    +0.105 C 
ENDBRANCH   1   5
BRANCH   1   6
ATOM      6  C   UNL     1       5.304  -2.628   0.095  0.00  0.00    +0.203 C 
BRANCH   6   7
ATOM      7  C   UNL     1       4.015  -1.853  -0.006  0.00  0.00    +0.235 C 
ATOM      8  O   UNL     1       2.953  -2.438   0.000  0.00  0.00    -0.274 OA
ATOM      9  N   UNL     1       4.044  -0.509  -0.103  0.00  0.00    -0.284 N 
ATOM     10  H   UNL     1       4.893  -0.045  -0.172  0.00  0.00    +0.155 HD
BRANCH   9  11
ATOM     11  C   UNL     1       2.846   0.219  -0.105  0.00  0.00    +0.037 A 
ATOM     12  C   UNL     1       2.791   1.466   0.502  0.00  0.00    +0.027 A 
ATOM     13  C   UNL     1       1.610   2.183   0.502  0.00  0.00    +0.051 A 
ATOM     14  C   UNL     1       0.478   1.661  -0.105  0.00  0.00    +0.162 A 
ATOM     15  C   UNL     1       0.531   0.414  -0.717  0.00  0.00    +0.164 A 
ATOM     16  C   UNL     1       1.716  -0.307  -0.715  0.00  0.00    +0.072 A 
ATOM     17  O   UNL     1      -0.568  -0.112  -1.325  0.00  0.00    -0.485 OA
ATOM     18  C   UNL     1      -1.831   0.468  -0.984  0.00  0.00    +0.270 C 
ATOM     19  C   UNL     1      -1.688   1.996  -1.030  0.00  0.00    +0.270 C 
ATOM     20  O   UNL     1      -0.680   2.379  -0.088  0.00  0.00    -0.485 OA
ENDBRANCH   9  11
ENDBRANCH   6   7
ENDBRANCH   1   6
BRANCH   2  21
ATOM     21  C   UNL     1       4.603  -6.276  -0.833  0.00  0.00    +0.101 C 
BRANCH  21  22
ATOM     22  C   UNL     1       4.548  -6.879  -2.238  0.00  0.00    +0.046 C 
BRANCH  22  23
ATOM     23  C   UNL     1       4.242  -8.351  -2.140  0.00  0.00    -0.022 A 
ATOM     24  C   UNL     1       2.943  -8.787  -2.153  0.00  0.00    -0.033 A 
ATOM     25  C   UNL     1       2.707 -10.164  -2.060  0.00  0.00    +0.045 A 
ATOM     26  C   UNL     1       1.506 -10.992  -2.041  0.00  0.00    +0.069 A 
ATOM     27  N   UNL     1       1.885 -12.234  -1.937  0.00  0.00    -0.174 NA
ATOM     28  N   UNL     1       3.280 -12.308  -1.883  0.00  0.00    -0.249 N 
ATOM     29  C   UNL     1       3.802 -11.045  -1.958  0.00  0.00    +0.159 A 
ATOM     30  N   UNL     1       5.039 -10.565  -1.951  0.00  0.00    -0.232 NA
ATOM     31  C   UNL     1       5.275  -9.274  -2.043  0.00  0.00    +0.044 A 
ATOM     32  C   UNL     1       6.700  -8.784  -2.037  0.00  0.00    +0.066 C 
ATOM     33  C   UNL     1       4.060 -13.543  -1.766  0.00  0.00    +0.174 C 
ATOM     34  C   UNL     1       0.085 -10.499  -2.126  0.00  0.00    +0.068 C 
ATOM     35  C   UNL     1       1.800  -7.811  -2.264  0.00  0.00    +0.045 C 
ENDBRANCH  22  23
ENDBRANCH  21  22
ENDBRANCH   2  21
TORSDOF 7
