REMARK  Name = ZINC38966571
REMARK  5 active torsions:
REMARK  status: ('A' for Active; 'I' for Inactive)
REMARK    1  A    between atoms: N_7  and  S_8
REMARK    2  A    between atoms: S_8  and  C_11
REMARK    3  A    between atoms: C_16  and  N_21
REMARK    4  A    between atoms: N_21  and  C_22
REMARK    5  A    between atoms: C_22  and  C_23
REMARK                            x       y       z     vdW  Elec       q    Type
REMARK                         _______ _______ _______ _____ _____    ______ ____
ROOT
ATOM      1  C   UNL     1      -0.016   1.347   0.009  0.00  0.00    +0.002 A 
ATOM      2  C   UNL     1       1.169   2.102   0.002  0.00  0.00    +0.002 A 
ATOM      3  C   UNL     1       2.395   1.536  -0.013  0.00  0.00    +0.028 A 
ATOM      4  C   UNL     1       2.534   0.125  -0.021  0.00  0.00    +0.064 A 
ATOM      5  N   UNL     1       3.732  -0.421  -0.035  0.00  0.00    -0.338 N 
ATOM      6  C   UNL     1       3.898  -1.753  -0.045  0.00  0.00    +0.167 C 
ATOM      7  N   UNL     1       5.092  -2.269  -0.058  0.00  0.00    -0.111 NA
ATOM      8  C   UNL     1       2.677  -2.645  -0.038  0.00  0.00    +0.218 C 
ATOM      9  N   UNL     1       1.355  -2.000  -0.022  0.00  0.00    -0.362 N 
ATOM     10  C   UNL     1       1.299  -0.697  -0.014  0.00  0.00    +0.060 A 
ATOM     11  C   UNL     1       0.002  -0.004   0.002  0.00  0.00    +0.027 A 
ATOM     12  H   UNL     1       0.544  -2.532  -0.018  0.00  0.00    +0.162 HD
ATOM     13  H   UNL     1       4.513   0.153  -0.039  0.00  0.00    +0.167 HD
ENDROOT
BRANCH   7  14
ATOM     14  S   UNL     1       6.421  -1.280  -0.064  0.00  0.00    +0.107 S 
ATOM     15  O   UNL     1       6.407  -0.589  -1.306  0.00  0.00    -0.146 OA
ATOM     16  O   UNL     1       6.429  -0.603   1.185  0.00  0.00    -0.146 OA
BRANCH  14  17
ATOM     17  C   UNL     1       7.843  -2.320  -0.083  0.00  0.00    +0.150 A 
ATOM     18  C   UNL     1       8.526  -2.813  -1.145  0.00  0.00    +0.037 A 
ATOM     19  C   UNL     1       9.627  -3.618  -0.919  0.00  0.00    +0.010 A 
ATOM     20  C   UNL     1       9.991  -3.891   0.358  0.00  0.00    +0.047 A 
ATOM     21  S   UNL     1       8.764  -2.991   1.292  0.00  0.00    -0.076 S 
ENDBRANCH  14  17
ENDBRANCH   7  14
BRANCH   8  22
ATOM     22  N   UNL     1       2.743  -3.503  -1.229  0.00  0.00    -0.287 NA
ATOM     23  H   UNL     1       2.136  -3.156  -1.958  0.00  0.00    +0.125 HD
BRANCH  22  24
ATOM     24  C   UNL     1       2.419  -4.896  -0.893  0.00  0.00    +0.118 C 
BRANCH  24  25
ATOM     25  C   UNL     1       2.496  -5.743  -2.137  0.00  0.00    -0.033 A 
ATOM     26  C   UNL     1       1.376  -5.911  -2.929  0.00  0.00    +0.006 A 
ATOM     27  C   UNL     1       1.446  -6.689  -4.070  0.00  0.00    +0.020 A 
ATOM     28  C   UNL     1       2.637  -7.298  -4.419  0.00  0.00    +0.041 A 
ATOM     29  C   UNL     1       3.759  -7.129  -3.626  0.00  0.00    +0.020 A 
ATOM     30  C   UNL     1       3.689  -6.348  -2.489  0.00  0.00    +0.006 A 
ATOM     31 CL   UNL     1       2.726  -8.275  -5.852  0.00  0.00    -0.084 Cl
ENDBRANCH  24  25
ENDBRANCH  22  24
ENDBRANCH   8  22
TORSDOF 5
