REMARK  Name = ZINC40322776
REMARK  15 active torsions:
REMARK  status: ('A' for Active; 'I' for Inactive)
REMARK    1  A    between atoms: C_1  and  C_2
REMARK    2  A    between atoms: C_2  and  N_3
REMARK    3  A    between atoms: N_3  and  C_4
REMARK    4  A    between atoms: N_3  and  C_6
REMARK    5  A    between atoms: C_4  and  C_5
REMARK    6  A    between atoms: C_6  and  C_8
REMARK    7  A    between atoms: C_6  and  C_27
REMARK    8  A    between atoms: C_8  and  N_9
REMARK    9  A    between atoms: C_10  and  C_12
REMARK   10  A    between atoms: C_15  and  S_17
REMARK   11  A    between atoms: S_17  and  C_20
REMARK   12  A    between atoms: C_23  and  C_26
REMARK   13  A    between atoms: C_30  and  O_33
REMARK   14  A    between atoms: O_33  and  C_34
REMARK   15  A    between atoms: C_34  and  C_35
REMARK                            x       y       z     vdW  Elec       q    Type
REMARK                         _______ _______ _______ _____ _____    ______ ____
ROOT
ATOM      1  N   UNL     1       0.275  -2.344  -1.794  0.00  0.00    -0.310 N 
ATOM      2  C   UNL     1       0.806  -3.341  -1.059  0.00  0.00    +0.279 C 
ATOM      3  O   UNL     1       1.717  -3.109  -0.287  0.00  0.00    -0.267 OA
ATOM      4  H   UNL     1      -0.498  -2.513  -2.354  0.00  0.00    +0.149 HD
ENDROOT
BRANCH   2   5
ATOM      5  C   UNL     1       0.284  -4.706  -1.190  0.00  0.00    +0.192 A 
ATOM      6  C   UNL     1       0.660  -5.783  -0.440  0.00  0.00    +0.056 A 
ATOM      7  C   UNL     1      -0.089  -6.877  -0.902  0.00  0.00    +0.070 A 
ATOM      8  C   UNL     1      -0.878  -6.425  -1.901  0.00  0.00    +0.246 A 
ATOM      9  O   UNL     1      -0.654  -5.115  -2.068  0.00  0.00    -0.433 OA
BRANCH   8  10
ATOM     10  S   UNL     1      -2.018  -7.397  -2.828  0.00  0.00    +0.058 S 
ATOM     11  O   UNL     1      -2.203  -6.732  -4.071  0.00  0.00    -0.161 OA
ATOM     12  O   UNL     1      -1.568  -8.742  -2.743  0.00  0.00    -0.161 OA
BRANCH  10  13
ATOM     13  C   UNL     1      -3.565  -7.330  -1.987  0.00  0.00    +0.097 A 
ATOM     14  C   UNL     1      -3.864  -8.266  -1.015  0.00  0.00    +0.028 A 
ATOM     15  C   UNL     1      -5.077  -8.213  -0.354  0.00  0.00    +0.005 A 
ATOM     16  C   UNL     1      -5.991  -7.224  -0.666  0.00  0.00    -0.050 A 
ATOM     17  C   UNL     1      -5.692  -6.287  -1.637  0.00  0.00    +0.005 A 
ATOM     18  C   UNL     1      -4.477  -6.337  -2.295  0.00  0.00    +0.028 A 
ATOM     19  C   UNL     1      -7.314  -7.167   0.053  0.00  0.00    +0.044 C 
ENDBRANCH  10  13
ENDBRANCH   8  10
ENDBRANCH   2   5
BRANCH   1  20
ATOM     20  C   UNL     1       0.866  -1.004  -1.746  0.00  0.00    +0.094 C 
BRANCH  20  21
ATOM     21  C   UNL     1      -0.002  -0.035  -2.550  0.00  0.00    -0.020 C 
BRANCH  21  22
ATOM     22  C   UNL     1       0.537   1.365  -2.401  0.00  0.00    -0.059 A 
ATOM     23  C   UNL     1       1.857   1.561  -2.038  0.00  0.00    +0.005 A 
ATOM     24  C   UNL     1       2.353   2.843  -1.900  0.00  0.00    +0.046 A 
ATOM     25  C   UNL     1       1.527   3.934  -2.127  0.00  0.00    +0.121 A 
ATOM     26  C   UNL     1       0.203   3.734  -2.492  0.00  0.00    +0.046 A 
ATOM     27  C   UNL     1      -0.287   2.450  -2.633  0.00  0.00    +0.005 A 
BRANCH  25  28
ATOM     28  O   UNL     1       2.013   5.195  -1.992  0.00  0.00    -0.492 OA
BRANCH  28  29
ATOM     29  C   UNL     1       1.105   6.271  -2.241  0.00  0.00    +0.225 C 
ATOM     30  C   UNL     1       1.827   7.604  -2.040  0.00  0.00    +0.048 C 
ENDBRANCH  28  29
ENDBRANCH  25  28
ENDBRANCH  21  22
BRANCH  21  31
ATOM     31  N   UNL     1      -1.383  -0.083  -2.051  0.00  0.00    +0.385 N 
ATOM     32  H   UNL     1      -1.590  -1.015  -1.726  0.00  0.00    -0.081 HD
BRANCH  31  34
ATOM     33  C   UNL     1      -0.515   0.544   0.152  0.00  0.00    -0.017 C 
ATOM     34  C   UNL     1      -1.536   0.868  -0.941  0.00  0.00    -0.081 C 
ENDBRANCH  31  34
BRANCH  31  35
ATOM     35  C   UNL     1      -2.308   0.275  -3.134  0.00  0.00    -0.081 C 
ATOM     36  C   UNL     1      -2.306  -0.829  -4.193  0.00  0.00    -0.017 C 
ENDBRANCH  31  35
ENDBRANCH  21  31
ENDBRANCH  20  21
ENDBRANCH   1  20
TORSDOF 11
