REMARK  Name = ZINC61593018
REMARK  6 active torsions:
REMARK  status: ('A' for Active; 'I' for Inactive)
REMARK    1  A    between atoms: C_1  and  C_2
REMARK    2  A    between atoms: C_2  and  C_4
REMARK    3  A    between atoms: C_2  and  S_14
REMARK    4  A    between atoms: C_4  and  C_6
REMARK    5  A    between atoms: S_14  and  C_15
REMARK    6  A    between atoms: N_21  and  C_22
REMARK                            x       y       z     vdW  Elec       q    Type
REMARK                         _______ _______ _______ _____ _____    ______ ____
ROOT
ATOM      1  C   UNL     1      -0.019   1.526   0.010  0.00  0.00    +0.028 C 
ATOM      2  C   UNL     1       0.002  -0.004   0.002  0.00  0.00    +0.122 C 
ENDROOT
BRANCH   2   3
ATOM      3  C   UNL     1      -1.412  -0.526   0.013  0.00  0.00    +0.177 C 
ATOM      4  O   UNL     1      -1.939  -0.827   1.062  0.00  0.00    -0.291 OA
BRANCH   3   5
ATOM      5  C   UNL     1      -2.152  -0.669  -1.249  0.00  0.00    +0.037 A 
ATOM      6  C   UNL     1      -1.545  -0.328  -2.463  0.00  0.00    +0.014 A 
ATOM      7  C   UNL     1      -2.244  -0.465  -3.642  0.00  0.00    +0.021 A 
ATOM      8  C   UNL     1      -3.547  -0.940  -3.629  0.00  0.00    +0.042 A 
ATOM      9  C   UNL     1      -4.155  -1.280  -2.432  0.00  0.00    +0.040 A 
ATOM     10  C   UNL     1      -3.466  -1.153  -1.243  0.00  0.00    +0.053 A 
ATOM     11 CL   UNL     1      -4.227  -1.587   0.255  0.00  0.00    -0.083 Cl
ATOM     12 CL   UNL     1      -4.420  -1.108  -5.120  0.00  0.00    -0.083 Cl
ENDBRANCH   3   5
ENDBRANCH   2   3
BRANCH   2  13
ATOM     13  S   UNL     1       0.879  -0.605   1.472  0.00  0.00    -0.075 S 
BRANCH  13  14
ATOM     14  C   UNL     1       2.533  -0.042   1.241  0.00  0.00    +0.192 A 
ATOM     15  N   UNL     1       2.965   0.650   0.227  0.00  0.00    -0.145 NA
ATOM     16  N   UNL     1       4.331   0.896   0.419  0.00  0.00    -0.226 N 
ATOM     17  H   UNL     1       4.915   1.390  -0.178  0.00  0.00    +0.194 HD
ATOM     18  C   UNL     1       4.684   0.321   1.587  0.00  0.00    +0.345 A 
ATOM     19  O   UNL     1       5.796   0.326   2.084  0.00  0.00    -0.245 OA
ATOM     20  N   UNL     1       3.582  -0.256   2.106  0.00  0.00    -0.274 N 
ATOM     21  C   UNL     1       3.514  -0.990   3.372  0.00  0.00    +0.156 C 
ENDBRANCH  13  14
ENDBRANCH   2  13
TORSDOF 4
