REMARK  Name = ZINC06408630
REMARK  10 active torsions:
REMARK  status: ('A' for Active; 'I' for Inactive)
REMARK    1  A    between atoms: C_1  and  C_2
REMARK    2  A    between atoms: C_9  and  C_14
REMARK    3  A    between atoms: C_14  and  C_16
REMARK    4  A    between atoms: C_14  and  N_76
REMARK    5  A    between atoms: N_20  and  C_21
REMARK    6  A    between atoms: C_27  and  C_28
REMARK    7  A    between atoms: C_27  and  N_76
REMARK    8  A    between atoms: C_28  and  C_29
REMARK    9  A    between atoms: C_35  and  C_36
REMARK   10  A    between atoms: C_35  and  N_76
REMARK                            x       y       z     vdW  Elec       q    Type
REMARK                         _______ _______ _______ _____ _____    ______ ____
ROOT
ATOM      1  C   UNL     1       5.633  -1.382  -1.298  0.00  0.00    +0.039 C 
ENDROOT
BRANCH   1  10
ATOM      2  C   UNL     1       9.712   4.787  -0.332  0.00  0.00    +0.044 C 
ATOM      3  C   UNL     1       8.688   3.797   0.162  0.00  0.00    -0.050 A 
ATOM      4  C   UNL     1       8.109   3.973   1.411  0.00  0.00    +0.005 A 
ATOM      5  C   UNL     1       7.171   3.080   1.883  0.00  0.00    +0.026 A 
ATOM      6  C   UNL     1       6.799   1.992   1.101  0.00  0.00    +0.049 A 
ATOM      7  C   UNL     1       7.388   1.817  -0.165  0.00  0.00    -0.001 A 
ATOM      8  C   UNL     1       8.338   2.736  -0.624  0.00  0.00    +0.013 A 
ATOM      9  C   UNL     1       6.994   0.665  -0.979  0.00  0.00    +0.017 A 
ATOM     10  C   UNL     1       6.064  -0.189  -0.484  0.00  0.00    +0.011 A 
ATOM     11  C   UNL     1       5.503   0.032   0.792  0.00  0.00    +0.251 A 
ATOM     12  O   UNL     1       4.672  -0.751   1.219  0.00  0.00    -0.268 OA
ATOM     13  N   UNL     1       5.862   1.084   1.548  0.00  0.00    -0.322 N 
ATOM     14  H   UNL     1       5.457   1.205   2.421  0.00  0.00    +0.169 HD
ENDBRANCH   1  10
BRANCH   1  15
ATOM     15  C   UNL     1       6.081  -2.647  -0.612  0.00  0.00    +0.143 A 
ATOM     16  N   UNL     1       5.548  -3.188   0.456  0.00  0.00    -0.115 NA
ATOM     17  N   UNL     1       6.211  -4.258   0.732  0.00  0.00    -0.023 NA
ATOM     18  N   UNL     1       7.153  -4.413  -0.132  0.00  0.00    -0.044 NA
ATOM     19  N   UNL     1       7.102  -3.442  -0.980  0.00  0.00    -0.227 N 
BRANCH  19  20
ATOM     20  C   UNL     1       7.991  -3.242  -2.127  0.00  0.00    +0.111 C 
ATOM     21  C   UNL     1       7.881  -4.439  -3.073  0.00  0.00    +0.027 C 
ATOM     22  C   UNL     1       8.810  -4.230  -4.271  0.00  0.00    +0.002 C 
ATOM     23  C   UNL     1      10.253  -4.099  -3.780  0.00  0.00    +0.000 C 
ATOM     24  C   UNL     1      10.363  -2.901  -2.834  0.00  0.00    +0.002 C 
ATOM     25  C   UNL     1       9.435  -3.110  -1.637  0.00  0.00    +0.027 C 
ENDBRANCH  19  20
ENDBRANCH   1  15
BRANCH   1  26
ATOM     26  N   UNL     1       4.158  -1.393  -1.399  0.00  0.00    +0.392 N 
ATOM     27  H   UNL     1       3.764  -1.660  -0.489  0.00  0.00    -0.080 HD
BRANCH  26  28
ATOM     28  C   UNL     1       3.667  -0.046  -1.759  0.00  0.00    -0.072 C 
BRANCH  28  29
ATOM     29  C   UNL     1       2.163   0.018  -1.483  0.00  0.00    +0.016 C 
BRANCH  29  30
ATOM     30  C   UNL     1       1.642   1.383  -1.851  0.00  0.00    -0.049 A 
ATOM     31  C   UNL     1       1.619   2.392  -0.906  0.00  0.00    +0.003 A 
ATOM     32  C   UNL     1       1.146   3.646  -1.245  0.00  0.00    +0.000 A 
ATOM     33  C   UNL     1       0.687   3.888  -2.526  0.00  0.00    +0.000 A 
ATOM     34  C   UNL     1       0.705   2.878  -3.470  0.00  0.00    +0.000 A 
ATOM     35  C   UNL     1       1.183   1.626  -3.132  0.00  0.00    +0.003 A 
ENDBRANCH  29  30
ENDBRANCH  28  29
ENDBRANCH  26  28
BRANCH  26  36
ATOM     36  C   UNL     1       3.728  -2.376  -2.415  0.00  0.00    -0.042 C 
BRANCH  36  37
ATOM     37  C   UNL     1       4.176  -1.946  -3.789  0.00  0.00    -0.064 A 
ATOM     38  C   UNL     1       5.427  -2.306  -4.253  0.00  0.00    +0.002 A 
ATOM     39  C   UNL     1       5.838  -1.912  -5.512  0.00  0.00    +0.000 A 
ATOM     40  C   UNL     1       4.997  -1.156  -6.308  0.00  0.00    +0.000 A 
ATOM     41  C   UNL     1       3.745  -0.796  -5.844  0.00  0.00    +0.000 A 
ATOM     42  C   UNL     1       3.335  -1.190  -4.585  0.00  0.00    +0.002 A 
ENDBRANCH  36  37
ENDBRANCH  26  36
ENDBRANCH   1  26
TORSDOF 9
