REMARK  Name = ZINC29655182
REMARK  7 active torsions:
REMARK  status: ('A' for Active; 'I' for Inactive)
REMARK    1  A    between atoms: C_1  and  C_2
REMARK    2  A    between atoms: N_5  and  C_8
REMARK    3  A    between atoms: C_8  and  C_10
REMARK    4  A    between atoms: C_8  and  C_27
REMARK    5  A    between atoms: C_10  and  N_11
REMARK    6  A    between atoms: N_14  and  C_15
REMARK    7  A    between atoms: C_15  and  C_16
REMARK                            x       y       z     vdW  Elec       q    Type
REMARK                         _______ _______ _______ _____ _____    ______ ____
ROOT
ATOM      1  N   UNL     1       0.106   1.942   2.296  0.00  0.00    -0.301 N 
ATOM      2  C   UNL     1      -0.241   2.719   3.341  0.00  0.00    +0.300 C 
ATOM      3  O   UNL     1      -1.137   3.533   3.222  0.00  0.00    -0.253 OA
ATOM      4  N   UNL     1       0.404   2.595   4.517  0.00  0.00    -0.296 N 
ATOM      5  H   UNL     1       0.916   1.205   2.404  0.00  0.00    +0.150 HD
ATOM      6  H   UNL     1       1.214   1.859   4.625  0.00  0.00    +0.150 HD
ENDROOT
BRANCH   1   7
ATOM      7  C   UNL     1      -0.596   2.077   1.017  0.00  0.00    +0.095 C 
BRANCH   7   8
ATOM      8  C   UNL     1      -0.013   1.086   0.008  0.00  0.00    -0.013 C 
BRANCH   8  13
ATOM      9  C   UNL     1       5.450   2.152  -1.292  0.00  0.00    +0.007 C 
ATOM     10  C   UNL     1       3.930   2.000  -1.371  0.00  0.00    -0.018 C 
ATOM     11  C   UNL     1       3.546   0.543  -1.096  0.00  0.00    -0.015 C 
ATOM     12  C   UNL     1       2.022   0.410  -1.117  0.00  0.00    -0.078 C 
ATOM     13  N   UNL     1       1.438   1.290  -0.096  0.00  0.00    +0.386 N 
ATOM     14  C   UNL     1       1.754   2.698  -0.365  0.00  0.00    -0.078 C 
ATOM     15  C   UNL     1       3.270   2.900  -0.322  0.00  0.00    -0.015 C 
ATOM     16  H   UNL     1       1.889   1.024   0.872  0.00  0.00    -0.081 HD
ENDBRANCH   8  13
BRANCH   8  17
ATOM     17  C   UNL     1      -0.649   1.308  -1.340  0.00  0.00    -0.022 A 
ATOM     18  C   UNL     1      -1.533   0.526  -2.006  0.00  0.00    +0.009 A 
ATOM     19  C   UNL     1      -1.991   0.937  -3.244  0.00  0.00    +0.008 A 
ATOM     20  C   UNL     1      -1.534   2.104  -3.760  0.00  0.00    +0.045 A 
ATOM     21  S   UNL     1      -0.427   2.667  -2.477  0.00  0.00    -0.103 S 
ENDBRANCH   8  17
ENDBRANCH   7   8
ENDBRANCH   1   7
BRANCH   4  22
ATOM     22  C   UNL     1       0.027   3.440   5.653  0.00  0.00    +0.153 C 
BRANCH  22  23
ATOM     23  C   UNL     1       0.908   3.100   6.856  0.00  0.00    +0.228 C 
ATOM     24  C   UNL     1       0.498   3.962   8.058  0.00  0.00    +0.275 C 
ATOM     25  O   UNL     1       1.331   3.609   9.168  0.00  0.00    -0.485 OA
ATOM     26  C   UNL     1       1.504   2.280   9.405  0.00  0.00    +0.162 A 
ATOM     27  C   UNL     1       1.984   1.865  10.638  0.00  0.00    +0.049 A 
ATOM     28  C   UNL     1       2.168   0.519  10.892  0.00  0.00    +0.004 A 
ATOM     29  C   UNL     1       1.876  -0.417   9.918  0.00  0.00    +0.004 A 
ATOM     30  C   UNL     1       1.396  -0.010   8.687  0.00  0.00    +0.049 A 
ATOM     31  C   UNL     1       1.208   1.339   8.426  0.00  0.00    +0.163 A 
ATOM     32  O   UNL     1       0.732   1.724   7.210  0.00  0.00    -0.480 OA
ENDBRANCH  22  23
ENDBRANCH   4  22
TORSDOF 6
