REMARK  Name = ZINC66367412
REMARK  11 active torsions:
REMARK  status: ('A' for Active; 'I' for Inactive)
REMARK    1  A    between atoms: C_1  and  C_2
REMARK    2  A    between atoms: C_2  and  C_3
REMARK    3  A    between atoms: C_3  and  C_5
REMARK    4  A    between atoms: C_3  and  N_8
REMARK    5  A    between atoms: C_5  and  C_6
REMARK    6  A    between atoms: C_5  and  C_7
REMARK    7  A    between atoms: N_11  and  C_12
REMARK    8  A    between atoms: C_12  and  C_13
REMARK    9  A    between atoms: N_15  and  C_16
REMARK   10  A    between atoms: C_16  and  C_17
REMARK   11  A    between atoms: C_16  and  C_18
REMARK                            x       y       z     vdW  Elec       q    Type
REMARK                         _______ _______ _______ _____ _____    ______ ____
ROOT
ATOM      1  N   UNL     1       2.125  -0.091  -1.209  0.00  0.00    -0.296 N 
ATOM      2  C   UNL     1       2.824   0.051  -2.353  0.00  0.00    +0.300 C 
ATOM      3  O   UNL     1       2.287  -0.157  -3.424  0.00  0.00    -0.253 OA
ATOM      4  N   UNL     1       4.118   0.425  -2.309  0.00  0.00    -0.291 N 
ATOM      5  H   UNL     1       2.553   0.075  -0.355  0.00  0.00    +0.151 HD
ATOM      6  H   UNL     1       4.546   0.592  -1.455  0.00  0.00    +0.151 HD
ENDROOT
BRANCH   1   7
ATOM      7  C   UNL     1       0.718  -0.497  -1.257  0.00  0.00    +0.077 C 
BRANCH   7   8
ATOM      8  C   UNL     1       0.630  -2.023  -1.329  0.00  0.00    +0.003 C 
ATOM      9  C   UNL     1      -0.839  -2.448  -1.378  0.00  0.00    +0.009 C 
ATOM     10  C   UNL     1       1.347  -2.517  -2.587  0.00  0.00    +0.009 C 
ENDBRANCH   7   8
BRANCH   7  12
ATOM     11  C   UNL     1      -0.019   1.526   0.010  0.00  0.00    +0.006 C 
ATOM     12  C   UNL     1       0.002  -0.004   0.002  0.00  0.00    +0.019 C 
ENDBRANCH   7  12
ENDBRANCH   1   7
BRANCH   4  13
ATOM     13  C   UNL     1       4.878   0.581  -3.552  0.00  0.00    +0.201 C 
BRANCH  13  14
ATOM     14  C   UNL     1       6.288   1.002  -3.229  0.00  0.00    +0.230 C 
ATOM     15  O   UNL     1       6.626   1.157  -2.075  0.00  0.00    -0.274 OA
ATOM     16  N   UNL     1       7.175   1.206  -4.223  0.00  0.00    -0.312 N 
ATOM     17  H   UNL     1       6.906   1.082  -5.147  0.00  0.00    +0.149 HD
BRANCH  16  18
ATOM     18  C   UNL     1       8.546   1.616  -3.909  0.00  0.00    +0.067 C 
ATOM     19  C   UNL     1       9.392   0.377  -3.607  0.00  0.00    +0.027 C 
ATOM     20  C   UNL     1       9.142   2.361  -5.105  0.00  0.00    +0.027 C 
ENDBRANCH  16  18
ENDBRANCH  13  14
ENDBRANCH   4  13
TORSDOF 6
