REMARK  Name = ZINC06752547
REMARK  9 active torsions:
REMARK  status: ('A' for Active; 'I' for Inactive)
REMARK    1  A    between atoms: C_1  and  C_2
REMARK    2  A    between atoms: C_2  and  C_3
REMARK    3  A    between atoms: C_3  and  C_4
REMARK    4  A    between atoms: C_4  and  C_5
REMARK    5  A    between atoms: C_5  and  N_6
REMARK    6  A    between atoms: C_14  and  C_15
REMARK    7  A    between atoms: N_20  and  C_22
REMARK    8  A    between atoms: C_27  and  C_28
REMARK    9  A    between atoms: C_28  and  C_29
REMARK                            x       y       z     vdW  Elec       q    Type
REMARK                         _______ _______ _______ _____ _____    ______ ____
ROOT
ATOM      1  N   UNL     1      -0.970  -1.135   0.417  0.00  0.00    -0.327 N 
ATOM      2  C   UNL     1      -0.001  -0.152   0.447  0.00  0.00    +0.069 A 
ATOM      3  C   UNL     1      -0.030   1.233   0.535  0.00  0.00    +0.028 A 
ATOM      4  C   UNL     1       1.153   1.942   0.541  0.00  0.00    +0.002 A 
ATOM      5  C   UNL     1       2.370   1.280   0.460  0.00  0.00    +0.002 A 
ATOM      6  C   UNL     1       2.418  -0.083   0.372  0.00  0.00    +0.030 A 
ATOM      7  C   UNL     1       1.232  -0.822   0.364  0.00  0.00    +0.089 A 
ATOM      8  N   UNL     1       0.957  -2.150   0.289  0.00  0.00    -0.232 NA
ATOM      9  C   UNL     1      -0.331  -2.332   0.320  0.00  0.00    +0.116 A 
ENDROOT
BRANCH   9  10
ATOM     10  C   UNL     1      -1.015  -3.673   0.259  0.00  0.00    +0.082 C 
ATOM     11  C   UNL     1      -0.499  -4.609   1.376  0.00  0.00    +0.109 C 
ATOM     12  C   UNL     1      -0.461  -5.975   0.725  0.00  0.00    +0.221 C 
ATOM     13  O   UNL     1      -0.382  -7.027   1.324  0.00  0.00    -0.275 OA
ATOM     14  N   UNL     1      -0.528  -5.853  -0.612  0.00  0.00    -0.270 N 
ATOM     15  C   UNL     1      -0.605  -4.444  -1.015  0.00  0.00    +0.125 C 
BRANCH  14  16
ATOM     16  C   UNL     1      -0.524  -6.931  -1.504  0.00  0.00    +0.039 A 
ATOM     17  C   UNL     1      -1.709  -7.592  -1.802  0.00  0.00    +0.024 A 
ATOM     18  C   UNL     1      -1.702  -8.655  -2.683  0.00  0.00    +0.002 A 
ATOM     19  C   UNL     1      -0.518  -9.062  -3.269  0.00  0.00    +0.000 A 
ATOM     20  C   UNL     1       0.663  -8.406  -2.975  0.00  0.00    +0.005 A 
ATOM     21  C   UNL     1       0.663  -7.339  -2.098  0.00  0.00    -0.026 A 
BRANCH  21  22
ATOM     22  C   UNL     1       1.950  -6.621  -1.782  0.00  0.00    +0.033 C 
ATOM     23  C   UNL     1       2.574  -7.224  -0.522  0.00  0.00    +0.009 C 
ENDBRANCH  21  22
ENDBRANCH  14  16
ENDBRANCH   9  10
BRANCH   1  24
ATOM     24  C   UNL     1      -2.419  -0.926   0.478  0.00  0.00    +0.123 C 
BRANCH  24  25
ATOM     25  C   UNL     1      -2.971  -0.762  -0.940  0.00  0.00    +0.022 C 
BRANCH  25  26
ATOM     26  C   UNL     1      -4.484  -0.545  -0.876  0.00  0.00    +0.001 C 
BRANCH  26  28
ATOM     27  C   UNL     1      -6.549  -0.164  -2.231  0.00  0.00    +0.004 C 
ATOM     28  C   UNL     1      -5.036  -0.381  -2.294  0.00  0.00    -0.003 C 
ENDBRANCH  26  28
ENDBRANCH  25  26
ENDBRANCH  24  25
ENDBRANCH   1  24
TORSDOF 7
