REMARK  Name = ZINC04776592
REMARK  5 active torsions:
REMARK  status: ('A' for Active; 'I' for Inactive)
REMARK    1  A    between atoms: C_1  and  C_2
REMARK    2  A    between atoms: C_2  and  C_11
REMARK    3  A    between atoms: C_3  and  C_9
REMARK    4  A    between atoms: C_3  and  O_10
REMARK    5  A    between atoms: N_4  and  N_8
REMARK                            x       y       z     vdW  Elec       q    Type
REMARK                         _______ _______ _______ _____ _____    ______ ____
ROOT
ATOM      1  C   UNL     1      -1.240   0.837   2.054  0.00  0.00    +0.066 C 
ATOM      2  C   UNL     1      -0.795   2.050   1.234  0.00  0.00    +0.183 C 
ATOM      3  C   UNL     1      -0.050   1.599  -0.037  0.00  0.00    +0.193 C 
ATOM      4  N   UNL     1      -0.874   2.125  -1.135  0.00  0.00    -0.170 N 
ATOM      5  C   UNL     1      -1.925   2.774  -0.616  0.00  0.00    +0.420 C 
ATOM      6  O   UNL     1      -2.776   3.311  -1.298  0.00  0.00    -0.225 OA
ATOM      7  O   UNL     1      -1.954   2.775   0.721  0.00  0.00    -0.434 OA
ATOM      8  C   UNL     1       0.023   0.072  -0.104  0.00  0.00    +0.069 C 
ENDROOT
BRANCH   2   9
ATOM      9  C   UNL     1       0.077   2.958   2.063  0.00  0.00    +0.000 A 
ATOM     10  C   UNL     1       1.193   2.452   2.702  0.00  0.00    +0.007 A 
ATOM     11  C   UNL     1       1.994   3.286   3.459  0.00  0.00    +0.000 A 
ATOM     12  C   UNL     1       1.675   4.625   3.583  0.00  0.00    +0.000 A 
ATOM     13  C   UNL     1       0.556   5.131   2.948  0.00  0.00    +0.000 A 
ATOM     14  C   UNL     1      -0.243   4.297   2.188  0.00  0.00    +0.007 A 
ENDBRANCH   2   9
BRANCH   4  15
ATOM     15  N   UNL     1      -0.611   1.976  -2.468  0.00  0.00    -0.246 NA
ATOM     16  H   UNL     1      -1.320   2.425  -3.029  0.00  0.00    +0.141 HD
ATOM     17  H   UNL     1       0.307   2.328  -2.696  0.00  0.00    +0.141 HD
ENDBRANCH   4  15
BRANCH   3  18
ATOM     18  O   UNL     1       1.262   2.165  -0.078  0.00  0.00    -0.367 OA
ATOM     19  H   UNL     1       1.763   1.938  -0.873  0.00  0.00    +0.212 HD
ENDBRANCH   3  18
TORSDOF 3
