REMARK  Name = ZINC04330363
REMARK  7 active torsions:
REMARK  status: ('A' for Active; 'I' for Inactive)
REMARK    1  A    between atoms: C_1  and  C_2
REMARK    2  A    between atoms: C_8  and  N_10
REMARK    3  A    between atoms: C_14  and  C_16
REMARK    4  A    between atoms: C_16  and  S_17
REMARK    5  A    between atoms: S_17  and  C_18
REMARK    6  A    between atoms: C_21  and  C_24
REMARK    7  A    between atoms: N_22  and  C_23
REMARK                            x       y       z     vdW  Elec       q    Type
REMARK                         _______ _______ _______ _____ _____    ______ ____
ROOT
ATOM      1  N   UNL     1       0.163  -0.115  -2.489  0.00  0.00    -0.296 N 
ATOM      2  C   UNL     1       0.322  -0.704  -3.691  0.00  0.00    +0.306 C 
ATOM      3  O   UNL     1       1.125  -1.606  -3.824  0.00  0.00    -0.252 OA
ATOM      4  N   UNL     1      -0.409  -0.291  -4.745  0.00  0.00    -0.239 N 
ATOM      5  C   UNL     1      -0.250  -0.880  -5.947  0.00  0.00    +0.231 C 
ATOM      6  O   UNL     1       0.551  -1.780  -6.080  0.00  0.00    -0.274 OA
ATOM      7  H   UNL     1      -0.478   0.605  -2.383  0.00  0.00    +0.151 HD
ATOM      8  H   UNL     1      -1.051   0.429  -4.639  0.00  0.00    +0.159 HD
ENDROOT
BRANCH   1  15
ATOM      9  C   UNL     1      -1.139  -0.950  -0.040  0.00  0.00    +0.009 C 
ATOM     10  C   UNL     1       0.214  -0.235  -0.047  0.00  0.00    +0.006 C 
ATOM     11  C   UNL     1      -0.008   1.276   0.046  0.00  0.00    +0.005 C 
ATOM     12  C   UNL     1       1.345   1.991   0.039  0.00  0.00    +0.000 C 
ATOM     13  C   UNL     1       2.089   1.663  -1.258  0.00  0.00    +0.002 C 
ATOM     14  C   UNL     1       2.310   0.152  -1.350  0.00  0.00    +0.022 C 
ATOM     15  C   UNL     1       0.958  -0.563  -1.343  0.00  0.00    +0.077 C 
ENDBRANCH   1  15
BRANCH   5  16
ATOM     16  C   UNL     1      -1.068  -0.419  -7.126  0.00  0.00    +0.173 C 
BRANCH  16  17
ATOM     17  S   UNL     1      -0.628  -1.396  -8.585  0.00  0.00    -0.077 S 
BRANCH  17  18
ATOM     18  C   UNL     1      -1.701  -0.667  -9.777  0.00  0.00    +0.192 A 
ATOM     19  N   UNL     1      -2.551   0.313  -9.565  0.00  0.00    -0.122 NA
ATOM     20  N   UNL     1      -3.175   0.599 -10.651  0.00  0.00    -0.128 NA
ATOM     21  C   UNL     1      -2.762  -0.180 -11.624  0.00  0.00    +0.165 A 
ATOM     22  N   UNL     1      -1.801  -1.012 -11.095  0.00  0.00    -0.305 N 
ATOM     23  C   UNL     1      -1.046  -2.051 -11.798  0.00  0.00    +0.153 C 
BRANCH  21  24
ATOM     24  C   UNL     1      -3.235  -0.164 -13.024  0.00  0.00    +0.019 A 
ATOM     25  C   UNL     1      -3.920   0.947 -13.519  0.00  0.00    +0.013 A 
ATOM     26  C   UNL     1      -4.356   0.959 -14.828  0.00  0.00    +0.021 A 
ATOM     27  C   UNL     1      -4.122  -0.133 -15.648  0.00  0.00    +0.041 A 
ATOM     28  C   UNL     1      -3.447  -1.240 -15.161  0.00  0.00    +0.021 A 
ATOM     29  C   UNL     1      -3.003  -1.261 -13.855  0.00  0.00    +0.013 A 
ATOM     30 CL   UNL     1      -4.679  -0.114 -17.292  0.00  0.00    -0.084 Cl
ENDBRANCH  21  24
ENDBRANCH  17  18
ENDBRANCH  16  17
ENDBRANCH   5  16
TORSDOF 5
