REMARK  Name = ZINC00681084
REMARK  7 active torsions:
REMARK  status: ('A' for Active; 'I' for Inactive)
REMARK    1  A    between atoms: C_3  and  O_13
REMARK    2  A    between atoms: C_6  and  C_7
REMARK    3  A    between atoms: N_8  and  N_9
REMARK    4  A    between atoms: N_9  and  C_10
REMARK    5  A    between atoms: C_10  and  N_12
REMARK    6  A    between atoms: O_13  and  C_14
REMARK    7  A    between atoms: C_14  and  C_15
REMARK                            x       y       z     vdW  Elec       q    Type
REMARK                         _______ _______ _______ _____ _____    ______ ____
ROOT
ATOM      1  C   UNL     1      -1.179  -2.091   0.002  0.00  0.00    +0.013 A 
ATOM      2  C   UNL     1      -1.192  -0.713   0.010  0.00  0.00    +0.046 A 
ATOM      3  C   UNL     1       0.002  -0.004   0.002  0.00  0.00    +0.121 A 
ATOM      4  C   UNL     1       1.215  -0.680  -0.019  0.00  0.00    +0.046 A 
ATOM      5  C   UNL     1       1.239  -2.058  -0.022  0.00  0.00    +0.013 A 
ATOM      6  C   UNL     1       0.040  -2.775  -0.014  0.00  0.00    -0.005 A 
ENDROOT
BRANCH   6   7
ATOM      7  C   UNL     1       0.060  -4.249  -0.022  0.00  0.00    +0.138 C 
ATOM      8  N   UNL     1       1.192  -4.883  -0.037  0.00  0.00    -0.188 NA
BRANCH   8   9
ATOM      9  N   UNL     1       1.211  -6.284  -0.045  0.00  0.00    -0.219 N 
ATOM     10  H   UNL     1       0.378  -6.780  -0.039  0.00  0.00    +0.176 HD
BRANCH   9  11
ATOM     11  C   UNL     1       2.387  -6.941  -0.060  0.00  0.00    +0.147 C 
ATOM     12  S   UNL     1       2.411  -8.653  -0.069  0.00  0.00    -0.017 S 
BRANCH  11  13
ATOM     13  N   UNL     1       3.545  -6.252  -0.068  0.00  0.00    -0.339 N 
ATOM     14  H   UNL     1       3.532  -5.282  -0.062  0.00  0.00    +0.144 HD
ATOM     15  H   UNL     1       4.392  -6.725  -0.079  0.00  0.00    +0.144 HD
ENDBRANCH  11  13
ENDBRANCH   9  11
ENDBRANCH   8   9
ENDBRANCH   6   7
BRANCH   3  16
ATOM     16  O   UNL     1      -0.016   1.354   0.009  0.00  0.00    -0.487 OA
BRANCH  16  17
ATOM     17  C   UNL     1       1.248   2.020   0.001  0.00  0.00    +0.266 C 
BRANCH  17  18
ATOM     18  C   UNL     1       1.030   3.511   0.011  0.00  0.00    +0.008 A 
ATOM     19  C   UNL     1      -0.254   4.022   0.026  0.00  0.00    +0.010 A 
ATOM     20  C   UNL     1      -0.455   5.390   0.036  0.00  0.00    +0.020 A 
ATOM     21  C   UNL     1       0.630   6.248   0.030  0.00  0.00    +0.042 A 
ATOM     22  C   UNL     1       1.916   5.738   0.015  0.00  0.00    +0.040 A 
ATOM     23  C   UNL     1       2.116   4.369   0.011  0.00  0.00    +0.049 A 
ATOM     24 CL   UNL     1       3.729   3.727  -0.001  0.00  0.00    -0.083 Cl
ATOM     25 CL   UNL     1       0.379   7.966   0.042  0.00  0.00    -0.083 Cl
ENDBRANCH  17  18
ENDBRANCH  16  17
ENDBRANCH   3  16
TORSDOF 7
