REMARK  Name = ZINC14217236
REMARK  4 active torsions:
REMARK  status: ('A' for Active; 'I' for Inactive)
REMARK    1  A    between atoms: N_10  and  C_11
REMARK    2  A    between atoms: C_11  and  C_12
REMARK    3  A    between atoms: N_14  and  C_15
REMARK    4  A    between atoms: C_16  and  C_25
REMARK                            x       y       z     vdW  Elec       q    Type
REMARK                         _______ _______ _______ _____ _____    ______ ____
ROOT
ATOM      1  C   UNL     1      -1.299  -2.051   0.154  0.00  0.00    +0.235 C 
ATOM      2  O   UNL     1      -0.229  -2.604   0.291  0.00  0.00    -0.274 OA
ATOM      3  N   UNL     1      -2.433  -2.778   0.104  0.00  0.00    -0.278 N 
ATOM      4  H   UNL     1      -3.289  -2.335  -0.005  0.00  0.00    +0.155 HD
ENDROOT
BRANCH   3   5
ATOM      5  C   UNL     1      -2.376  -4.161   0.209  0.00  0.00    +0.090 A 
ATOM      6  C   UNL     1      -3.420  -5.070   0.186  0.00  0.00    +0.084 A 
ATOM      7  C   UNL     1      -3.092  -6.483   0.310  0.00  0.00    -0.018 A 
ATOM      8  C   UNL     1      -1.776  -6.752   0.453  0.00  0.00    -0.004 A 
ATOM      9  S   UNL     1      -0.981  -5.168   0.409  0.00  0.00    -0.077 S 
ATOM     10  C   UNL     1      -1.128  -8.090   0.627  0.00  0.00    +0.043 C 
ATOM     11  C   UNL     1      -1.667  -9.055  -0.437  0.00  0.00    +0.005 C 
ATOM     12  C   UNL     1      -2.907  -9.746   0.122  0.00  0.00    +0.001 C 
ATOM     13  C   UNL     1      -3.664  -8.798   1.050  0.00  0.00    +0.005 C 
ATOM     14  C   UNL     1      -4.153  -7.576   0.280  0.00  0.00    +0.037 C 
BRANCH   6  15
ATOM     15  C   UNL     1      -4.777  -4.635   0.042  0.00  0.00    +0.102 C 
ATOM     16  N   UNL     1      -5.853  -4.290  -0.073  0.00  0.00    -0.191 NA
ENDBRANCH   6  15
ENDBRANCH   3   5
BRANCH   1  17
ATOM     17  C   UNL     1      -1.361  -0.549   0.040  0.00  0.00    +0.201 C 
BRANCH  17  27
ATOM     18  C   UNL     1       2.066  -1.702  -3.208  0.00  0.00    +0.000 A 
ATOM     19  C   UNL     1       0.708  -1.455  -3.293  0.00  0.00    +0.002 A 
ATOM     20  C   UNL     1       0.043  -0.895  -2.224  0.00  0.00    +0.023 A 
ATOM     21  C   UNL     1       0.731  -0.574  -1.052  0.00  0.00    +0.033 A 
ATOM     22  C   UNL     1       2.088  -0.828  -0.971  0.00  0.00    -0.026 A 
ATOM     23  C   UNL     1       2.751  -1.389  -2.051  0.00  0.00    +0.005 A 
ATOM     24  C   UNL     1       2.888  -0.516   0.269  0.00  0.00    +0.038 C 
ATOM     25  C   UNL     1       2.088   0.425   1.173  0.00  0.00    +0.024 C 
ATOM     26  C   UNL     1       0.664  -0.131   1.291  0.00  0.00    +0.106 C 
ATOM     27  N   UNL     1       0.002  -0.005  -0.009  0.00  0.00    -0.321 N 
ENDBRANCH  17  27
ENDBRANCH   1  17
TORSDOF 4
