REMARK  Name = ZINC13063942
REMARK  10 active torsions:
REMARK  status: ('A' for Active; 'I' for Inactive)
REMARK    1  A    between atoms: C_1  and  C_2
REMARK    2  A    between atoms: C_2  and  C_3
REMARK    3  A    between atoms: C_3  and  C_5
REMARK    4  A    between atoms: C_3  and  N_69
REMARK    5  A    between atoms: N_9  and  C_10
REMARK    6  A    between atoms: C_10  and  C_11
REMARK    7  A    between atoms: C_18  and  C_19
REMARK    8  A    between atoms: C_18  and  N_69
REMARK    9  A    between atoms: C_24  and  C_31
REMARK   10  A    between atoms: C_32  and  N_69
REMARK                            x       y       z     vdW  Elec       q    Type
REMARK                         _______ _______ _______ _____ _____    ______ ____
ROOT
ATOM      1  N   UNL     1       0.768   3.801   1.457  0.00  0.00    +0.391 N 
ATOM      2  H   UNL     1       1.549   3.368   1.964  0.00  0.00    -0.080 HD
ENDROOT
BRANCH   1   3
ATOM      3  C   UNL     1       0.715   5.239   1.796  0.00  0.00    -0.067 C 
ATOM      4  C   UNL     1      -0.304   5.961   0.912  0.00  0.00    -0.015 C 
ATOM      5  C   UNL     1      -0.336   7.446   1.280  0.00  0.00    -0.002 C 
ATOM      6  C   UNL     1       1.050   8.056   1.063  0.00  0.00    -0.000 C 
ATOM      7  C   UNL     1       2.069   7.333   1.947  0.00  0.00    -0.002 C 
ATOM      8  C   UNL     1       2.102   5.848   1.579  0.00  0.00    -0.015 C 
ENDBRANCH   1   3
BRANCH   1   9
ATOM      9  C   UNL     1      -0.492   3.141   1.859  0.00  0.00    +0.003 C 
BRANCH   9  10
ATOM     10  C   UNL     1      -0.914   3.656   3.210  0.00  0.00    +0.138 A 
ATOM     11  N   UNL     1      -0.142   3.843   4.253  0.00  0.00    -0.115 NA
ATOM     12  N   UNL     1      -0.873   4.293   5.214  0.00  0.00    -0.023 NA
ATOM     13  N   UNL     1      -2.091   4.399   4.811  0.00  0.00    -0.044 NA
ATOM     14  N   UNL     1      -2.156   4.021   3.579  0.00  0.00    -0.226 N 
BRANCH  14  15
ATOM     15  C   UNL     1      -3.357   3.991   2.740  0.00  0.00    +0.182 C 
BRANCH  15  16
ATOM     16  C   UNL     1      -4.033   2.651   2.878  0.00  0.00    -0.026 A 
ATOM     17  C   UNL     1      -3.697   1.618   2.023  0.00  0.00    +0.008 A 
ATOM     18  C   UNL     1      -4.313   0.387   2.152  0.00  0.00    +0.038 A 
ATOM     19  C   UNL     1      -5.274   0.193   3.131  0.00  0.00    +0.123 A 
ATOM     20  C   UNL     1      -5.612   1.231   3.982  0.00  0.00    +0.038 A 
ATOM     21  C   UNL     1      -4.991   2.459   3.855  0.00  0.00    +0.008 A 
ATOM     22  F   UNL     1      -5.879  -1.008   3.254  0.00  0.00    -0.205 F 
ENDBRANCH  15  16
ENDBRANCH  14  15
ENDBRANCH   9  10
BRANCH   9  24
ATOM     23  C   UNL     1       0.913   1.354   2.897  0.00  0.00    +0.002 C 
ATOM     24  C   UNL     1      -0.249   1.632   1.942  0.00  0.00    -0.011 C 
ENDBRANCH   9  24
ENDBRANCH   1   9
BRANCH   1  25
ATOM     25  C   UNL     1       0.986   3.632   0.005  0.00  0.00    -0.036 C 
BRANCH  25  26
ATOM     26  C   UNL     1       1.548   2.256  -0.242  0.00  0.00    +0.001 A 
ATOM     27  C   UNL     1       0.811   1.336  -0.913  0.00  0.00    +0.017 A 
ATOM     28  C   UNL     1       1.388   0.010  -1.141  0.00  0.00    -0.001 A 
ATOM     29  C   UNL     1       0.679  -0.979  -1.831  0.00  0.00    +0.010 A 
ATOM     30  C   UNL     1       1.243  -2.208  -2.022  0.00  0.00    +0.004 A 
ATOM     31  C   UNL     1       2.513  -2.486  -1.536  0.00  0.00    -0.048 A 
ATOM     32  C   UNL     1       3.231  -1.527  -0.854  0.00  0.00    +0.029 A 
ATOM     33  C   UNL     1       2.677  -0.268  -0.647  0.00  0.00    +0.049 A 
ATOM     34  N   UNL     1       3.371   0.709   0.033  0.00  0.00    -0.322 N 
ATOM     35  H   UNL     1       4.259   0.516   0.372  0.00  0.00    +0.169 HD
ATOM     36  C   UNL     1       2.836   1.926   0.233  0.00  0.00    +0.251 A 
ATOM     37  O   UNL     1       3.478   2.766   0.839  0.00  0.00    -0.268 OA
ATOM     38  C   UNL     1       3.115  -3.850  -1.759  0.00  0.00    +0.044 C 
ENDBRANCH  25  26
ENDBRANCH   1  25
TORSDOF 8
