REMARK  Name = ZINC13086332
REMARK  10 active torsions:
REMARK  status: ('A' for Active; 'I' for Inactive)
REMARK    1  A    between atoms: C_1  and  C_2
REMARK    2  A    between atoms: C_5  and  C_8
REMARK    3  A    between atoms: C_8  and  N_9
REMARK    4  A    between atoms: C_10  and  C_12
REMARK    5  A    between atoms: C_12  and  N_13
REMARK    6  A    between atoms: N_13  and  C_14
REMARK    7  A    between atoms: C_18  and  C_21
REMARK    8  A    between atoms: C_19  and  C_20
REMARK    9  A    between atoms: C_22  and  C_24
REMARK   10  A    between atoms: C_24  and  C_35
REMARK                            x       y       z     vdW  Elec       q    Type
REMARK                         _______ _______ _______ _____ _____    ______ ____
ROOT
ATOM      1  N   UNL     1       2.495  -8.278   0.266  0.00  0.00    -0.261 N 
ATOM      2  C   UNL     1       3.107  -8.837   1.328  0.00  0.00    +0.244 C 
ATOM      3  O   UNL     1       3.623  -9.930   1.225  0.00  0.00    -0.273 OA
ENDROOT
BRANCH   2   4
ATOM      4  C   UNL     1       3.148  -8.106   2.645  0.00  0.00    +0.122 C 
ATOM      5  C   UNL     1       1.743  -7.605   3.001  0.00  0.00    +0.133 C 
ATOM      6  C   UNL     1       1.855  -6.671   4.182  0.00  0.00    +0.240 C 
ATOM      7  O   UNL     1       0.971  -6.637   5.016  0.00  0.00    -0.274 OA
ATOM      8  N   UNL     1       2.914  -5.892   4.309  0.00  0.00    -0.165 NA
ATOM      9  C   UNL     1       3.911  -5.910   3.416  0.00  0.00    +0.119 C 
ATOM     10  N   UNL     1       4.043  -6.946   2.537  0.00  0.00    -0.279 N 
ATOM     11  C   UNL     1       4.999  -6.920   1.577  0.00  0.00    +0.077 C 
ATOM     12  C   UNL     1       5.900  -5.909   1.524  0.00  0.00    +0.015 C 
ATOM     13  C   UNL     1       5.840  -4.869   2.459  0.00  0.00    +0.004 C 
ATOM     14  C   UNL     1       4.850  -4.870   3.401  0.00  0.00    +0.041 C 
ATOM     15  C   UNL     1       3.656  -9.047   3.740  0.00  0.00    +0.042 C 
ENDBRANCH   2   4
BRANCH   1  16
ATOM     16  C   UNL     1       2.577  -8.889  -0.991  0.00  0.00    +0.040 A 
ATOM     17  C   UNL     1       1.693  -9.905  -1.329  0.00  0.00    +0.024 A 
ATOM     18  C   UNL     1       1.776 -10.507  -2.569  0.00  0.00    +0.002 A 
ATOM     19  C   UNL     1       2.738 -10.097  -3.474  0.00  0.00    +0.004 A 
ATOM     20  C   UNL     1       3.620  -9.086  -3.141  0.00  0.00    -0.046 A 
ATOM     21  C   UNL     1       3.538  -8.476  -1.904  0.00  0.00    -0.026 A 
ATOM     22  C   UNL     1       4.495  -7.369  -1.543  0.00  0.00    +0.046 C 
ATOM     23  C   UNL     1       4.667  -8.643  -4.130  0.00  0.00    +0.044 C 
ENDBRANCH   1  16
BRANCH   1  24
ATOM     24  C   UNL     1       1.745  -7.030   0.425  0.00  0.00    +0.209 C 
BRANCH  24  26
ATOM     25  N   UNL     1      -0.589  -6.351   0.883  0.00  0.00    -0.310 N 
ATOM     26  C   UNL     1       0.283  -7.343   0.617  0.00  0.00    +0.231 C 
ATOM     27  O   UNL     1      -0.108  -8.488   0.530  0.00  0.00    -0.274 OA
ATOM     28  H   UNL     1      -0.277  -5.435   0.952  0.00  0.00    +0.149 HD
BRANCH  25  29
ATOM     29  C   UNL     1      -2.010  -6.655   1.069  0.00  0.00    +0.139 C 
BRANCH  29  34
ATOM     30  C   UNL     1      -4.904  -1.774   2.159  0.00  0.00    +0.044 C 
ATOM     31  C   UNL     1      -4.149  -3.047   1.874  0.00  0.00    -0.050 A 
ATOM     32  C   UNL     1      -3.988  -3.478   0.571  0.00  0.00    +0.003 A 
ATOM     33  C   UNL     1      -3.296  -4.646   0.310  0.00  0.00    +0.005 A 
ATOM     34  C   UNL     1      -2.764  -5.382   1.353  0.00  0.00    -0.030 A 
ATOM     35  C   UNL     1      -2.924  -4.950   2.656  0.00  0.00    +0.005 A 
ATOM     36  C   UNL     1      -3.613  -3.780   2.917  0.00  0.00    +0.003 A 
ENDBRANCH  29  34
ENDBRANCH  25  29
ENDBRANCH  24  26
ENDBRANCH   1  24
TORSDOF 6
