REMARK  Name = ZINC07766316
REMARK  14 active torsions:
REMARK  status: ('A' for Active; 'I' for Inactive)
REMARK    1  A    between atoms: C_1  and  C_2
REMARK    2  A    between atoms: C_3  and  N_9
REMARK    3  A    between atoms: C_4  and  C_8
REMARK    4  A    between atoms: N_5  and  C_7
REMARK    5  A    between atoms: C_10  and  C_12
REMARK    6  A    between atoms: C_12  and  C_14
REMARK    7  A    between atoms: C_12  and  S_15
REMARK    8  A    between atoms: S_15  and  C_16
REMARK    9  A    between atoms: C_19  and  C_22
REMARK   10  A    between atoms: N_20  and  C_21
REMARK   11  A    between atoms: C_25  and  C_28
REMARK   12  A    between atoms: C_28  and  C_29
REMARK   13  A    between atoms: C_28  and  C_30
REMARK   14  A    between atoms: C_28  and  C_31
REMARK                            x       y       z     vdW  Elec       q    Type
REMARK                         _______ _______ _______ _____ _____    ______ ____
ROOT
ATOM      1  C   UNL     1       1.615   1.014  -2.424  0.00  0.00    +0.192 A 
ATOM      2  N   UNL     1       1.210  -0.226  -2.587  0.00  0.00    -0.122 NA
ATOM      3  N   UNL     1       1.895  -0.796  -3.513  0.00  0.00    -0.128 NA
ATOM      4  C   UNL     1       2.780   0.045  -3.998  0.00  0.00    +0.165 A 
ATOM      5  N   UNL     1       2.623   1.232  -3.319  0.00  0.00    -0.305 N 
ATOM      6  C   UNL     1       3.382   2.469  -3.514  0.00  0.00    +0.153 C 
ENDROOT
BRANCH   4   7
ATOM      7  C   UNL     1       3.755  -0.230  -5.074  0.00  0.00    +0.019 A 
ATOM      8  C   UNL     1       3.569  -1.318  -5.928  0.00  0.00    +0.012 A 
ATOM      9  C   UNL     1       4.480  -1.565  -6.934  0.00  0.00    +0.005 A 
ATOM     10  C   UNL     1       5.583  -0.744  -7.090  0.00  0.00    -0.042 A 
ATOM     11  C   UNL     1       5.776   0.333  -6.243  0.00  0.00    +0.005 A 
ATOM     12  C   UNL     1       4.870   0.595  -5.237  0.00  0.00    +0.012 A 
BRANCH  10  13
ATOM     13  C   UNL     1       6.577  -1.024  -8.187  0.00  0.00    -0.013 C 
ATOM     14  C   UNL     1       7.956  -1.277  -7.573  0.00  0.00    +0.015 C 
ATOM     15  C   UNL     1       6.135  -2.260  -8.974  0.00  0.00    +0.015 C 
ATOM     16  C   UNL     1       6.651   0.180  -9.128  0.00  0.00    +0.015 C 
ENDBRANCH  10  13
ENDBRANCH   4   7
BRANCH   1  17
ATOM     17  S   UNL     1       0.972   2.180  -1.271  0.00  0.00    -0.074 S 
BRANCH  17  18
ATOM     18  C   UNL     1      -0.304   1.169  -0.480  0.00  0.00    +0.137 C 
ATOM     19  C   UNL     1      -1.383   0.815  -1.505  0.00  0.00    +0.029 C 
BRANCH  18  21
ATOM     20  N   UNL     1      -1.502   1.284   1.682  0.00  0.00    -0.282 N 
ATOM     21  C   UNL     1      -0.925   1.941   0.656  0.00  0.00    +0.230 C 
ATOM     22  O   UNL     1      -0.905   3.154   0.647  0.00  0.00    -0.274 OA
ATOM     23  H   UNL     1      -1.445   0.317   1.732  0.00  0.00    +0.155 HD
BRANCH  20  26
ATOM     24  C   UNL     1      -0.378   3.799   3.136  0.00  0.00    +0.069 C 
ATOM     25  C   UNL     1      -1.714   3.136   3.355  0.00  0.00    +0.081 A 
ATOM     26  C   UNL     1      -2.187   2.001   2.680  0.00  0.00    +0.077 A 
ATOM     27  C   UNL     1      -3.427   1.721   3.158  0.00  0.00    +0.057 A 
ATOM     28  N   UNL     1      -3.719   2.646   4.108  0.00  0.00    -0.270 N 
ATOM     29  N   UNL     1      -2.629   3.520   4.207  0.00  0.00    -0.175 NA
ATOM     30  C   UNL     1      -4.957   2.720   4.888  0.00  0.00    +0.172 C 
ATOM     31  C   UNL     1      -4.316   0.588   2.715  0.00  0.00    +0.067 C 
ENDBRANCH  20  26
ENDBRANCH  18  21
ENDBRANCH  17  18
ENDBRANCH   1  17
TORSDOF 6
