REMARK  Name = ZINC13501116
REMARK  11 active torsions:
REMARK  status: ('A' for Active; 'I' for Inactive)
REMARK    1  A    between atoms: C_1  and  C_2
REMARK    2  A    between atoms: C_2  and  C_3
REMARK    3  A    between atoms: C_3  and  C_5
REMARK    4  A    between atoms: C_3  and  N_69
REMARK    5  A    between atoms: N_9  and  C_10
REMARK    6  A    between atoms: C_10  and  C_11
REMARK    7  A    between atoms: C_11  and  C_12
REMARK    8  A    between atoms: C_18  and  C_19
REMARK    9  A    between atoms: C_18  and  N_69
REMARK   10  A    between atoms: C_25  and  C_31
REMARK   11  A    between atoms: C_32  and  N_69
REMARK                            x       y       z     vdW  Elec       q    Type
REMARK                         _______ _______ _______ _____ _____    ______ ____
ROOT
ATOM      1  N   UNL     1       1.340  -2.374   5.192  0.00  0.00    +0.391 N 
ATOM      2  H   UNL     1       1.692  -2.911   4.391  0.00  0.00    -0.080 HD
ENDROOT
BRANCH   1   3
ATOM      3  C   UNL     1       2.155  -1.152   5.348  0.00  0.00    -0.067 C 
ATOM      4  C   UNL     1       2.329  -0.476   3.972  0.00  0.00    -0.015 C 
ATOM      5  C   UNL     1       3.786   0.053   3.991  0.00  0.00    -0.002 C 
ATOM      6  C   UNL     1       4.548  -1.069   4.738  0.00  0.00    -0.002 C 
ATOM      7  C   UNL     1       3.566  -1.528   5.835  0.00  0.00    -0.015 C 
ENDBRANCH   1   3
BRANCH   1   8
ATOM      8  C   UNL     1       1.441  -3.208   6.409  0.00  0.00    +0.003 C 
BRANCH   8   9
ATOM      9  C   UNL     1       0.861  -2.482   7.596  0.00  0.00    +0.138 A 
ATOM     10  N   UNL     1       0.017  -1.480   7.564  0.00  0.00    -0.115 NA
ATOM     11  N   UNL     1      -0.242  -1.139   8.780  0.00  0.00    -0.023 NA
ATOM     12  N   UNL     1       0.421  -1.893   9.585  0.00  0.00    -0.044 NA
ATOM     13  N   UNL     1       1.113  -2.734   8.894  0.00  0.00    -0.231 N 
BRANCH  13  14
ATOM     14  C   UNL     1       2.005  -3.770   9.422  0.00  0.00    +0.152 C 
BRANCH  14  15
ATOM     15  C   UNL     1       3.446  -3.257   9.405  0.00  0.00    +0.058 C 
BRANCH  15  16
ATOM     16  C   UNL     1       4.361  -4.312   9.972  0.00  0.00    -0.046 A 
ATOM     17  C   UNL     1       4.635  -4.334  11.327  0.00  0.00    +0.004 A 
ATOM     18  C   UNL     1       5.469  -5.305  11.848  0.00  0.00    +0.000 A 
ATOM     19  C   UNL     1       6.039  -6.248  11.013  0.00  0.00    +0.000 A 
ATOM     20  C   UNL     1       5.770  -6.223   9.657  0.00  0.00    +0.000 A 
ATOM     21  C   UNL     1       4.931  -5.255   9.137  0.00  0.00    +0.004 A 
ENDBRANCH  15  16
ENDBRANCH  14  15
ENDBRANCH  13  14
ENDBRANCH   8   9
BRANCH   8  23
ATOM     22  C   UNL     1       1.263  -5.249   4.979  0.00  0.00    +0.002 C 
ATOM     23  C   UNL     1       0.672  -4.511   6.182  0.00  0.00    -0.011 C 
ENDBRANCH   8  23
ENDBRANCH   1   8
BRANCH   1  24
ATOM     24  C   UNL     1      -0.072  -2.012   4.944  0.00  0.00    -0.036 C 
BRANCH  24  25
ATOM     25  C   UNL     1      -0.220  -1.612   3.499  0.00  0.00    +0.001 A 
ATOM     26  C   UNL     1      -0.246  -2.565   2.534  0.00  0.00    +0.017 A 
ATOM     27  C   UNL     1      -0.392  -2.144   1.139  0.00  0.00    -0.001 A 
ATOM     28  C   UNL     1      -0.425  -3.080   0.101  0.00  0.00    +0.010 A 
ATOM     29  C   UNL     1      -0.561  -2.655  -1.190  0.00  0.00    +0.001 A 
ATOM     30  C   UNL     1      -0.675  -1.302  -1.480  0.00  0.00    +0.005 A 
ATOM     31  C   UNL     1      -0.638  -0.361  -0.473  0.00  0.00    -0.026 A 
ATOM     32  C   UNL     1      -0.499  -0.771   0.849  0.00  0.00    +0.052 A 
ATOM     33  N   UNL     1      -0.465   0.148   1.876  0.00  0.00    -0.322 N 
ATOM     34  H   UNL     1      -0.540   1.094   1.674  0.00  0.00    +0.169 HD
ATOM     35  C   UNL     1      -0.332  -0.248   3.154  0.00  0.00    +0.251 A 
ATOM     36  O   UNL     1      -0.306   0.592   4.037  0.00  0.00    -0.268 OA
ATOM     37  C   UNL     1      -0.754   1.104  -0.803  0.00  0.00    +0.046 C 
ENDBRANCH  24  25
ENDBRANCH   1  24
TORSDOF 9
