REMARK  Name = ZINC10751655
REMARK  10 active torsions:
REMARK  status: ('A' for Active; 'I' for Inactive)
REMARK    1  A    between atoms: C_1  and  C_2
REMARK    2  A    between atoms: C_2  and  C_3
REMARK    3  A    between atoms: N_12  and  C_13
REMARK    4  A    between atoms: C_13  and  C_14
REMARK    5  A    between atoms: C_14  and  N_63
REMARK    6  A    between atoms: C_15  and  N_63
REMARK    7  A    between atoms: C_16  and  N_63
REMARK    8  A    between atoms: C_17  and  C_19
REMARK    9  A    between atoms: N_24  and  S_26
REMARK   10  A    between atoms: S_26  and  C_29
REMARK                            x       y       z     vdW  Elec       q    Type
REMARK                         _______ _______ _______ _____ _____    ______ ____
ROOT
ATOM      1  C   UNL     1      -0.297  10.730   7.085  0.00  0.00    -0.021 A 
ATOM      2  C   UNL     1      -0.063  11.549   8.159  0.00  0.00    +0.006 A 
ATOM      3  C   UNL     1       0.227  11.034   9.414  0.00  0.00    +0.001 A 
ATOM      4  C   UNL     1       0.282   9.663   9.588  0.00  0.00    +0.017 A 
ATOM      5  C   UNL     1       0.049   8.835   8.518  0.00  0.00    +0.041 A 
ATOM      6  C   UNL     1      -0.250   9.324   7.226  0.00  0.00    +0.083 A 
ATOM      7  N   UNL     1      -0.454   8.383   6.278  0.00  0.00    -0.224 NA
ATOM      8  C   UNL     1      -0.382   7.098   6.532  0.00  0.00    +0.168 A 
ATOM      9  S   UNL     1       0.007   7.076   8.277  0.00  0.00    -0.052 S 
ATOM     10  N   UNL     1      -0.566   6.030   5.670  0.00  0.00    -0.252 N 
ATOM     11  C   UNL     1      -0.863   6.253   4.374  0.00  0.00    +0.226 C 
ATOM     12  O   UNL     1      -0.878   7.386   3.942  0.00  0.00    -0.275 OA
ENDROOT
BRANCH  11  13
ATOM     13  C   UNL     1      -1.176   5.095   3.462  0.00  0.00    +0.091 C 
ATOM     14  C   UNL     1      -2.578   4.566   3.770  0.00  0.00    +0.015 C 
ATOM     15  C   UNL     1      -2.884   3.369   2.867  0.00  0.00    +0.018 C 
ATOM     16  C   UNL     1      -2.850   3.821   1.399  0.00  0.00    +0.109 C 
ATOM     17  N   UNL     1      -1.552   4.459   1.137  0.00  0.00    -0.175 NA
ATOM     18  C   UNL     1      -1.119   5.563   2.004  0.00  0.00    +0.122 C 
BRANCH  17  19
ATOM     19  S   UNL     1      -0.600   3.948  -0.118  0.00  0.00    +0.067 S 
ATOM     20  O   UNL     1       0.237   5.043  -0.464  0.00  0.00    -0.152 OA
ATOM     21  O   UNL     1      -1.464   3.323  -1.056  0.00  0.00    -0.152 OA
BRANCH  19  22
ATOM     22  C   UNL     1       0.457   2.686   0.511  0.00  0.00    +0.143 A 
ATOM     23  C   UNL     1       0.252   1.347   0.560  0.00  0.00    +0.036 A 
ATOM     24  C   UNL     1       1.230   0.538   1.108  0.00  0.00    +0.010 A 
ATOM     25  C   UNL     1       2.370   1.107   1.570  0.00  0.00    +0.047 A 
ATOM     26  S   UNL     1       2.079   2.838   1.242  0.00  0.00    -0.077 S 
ENDBRANCH  19  22
ENDBRANCH  17  19
ENDBRANCH  11  13
BRANCH   1  28
ATOM     27  C   UNL     1      -2.124  11.408   5.553  0.00  0.00    +0.009 C 
ATOM     28  C   UNL     1      -0.608  11.334   5.740  0.00  0.00    +0.034 C 
ENDBRANCH   1  28
BRANCH  10  29
ATOM     29  C   UNL     1      -0.438   4.657   6.165  0.00  0.00    +0.097 C 
BRANCH  29  30
ATOM     30  C   UNL     1       0.971   4.138   5.873  0.00  0.00    -0.060 C 
BRANCH  30  33
ATOM     31  C   UNL     1       2.349   2.148   5.903  0.00  0.00    -0.097 C 
ATOM     32  C   UNL     1       1.009   2.721   7.836  0.00  0.00    -0.097 C 
ATOM     33  N   UNL     1       1.077   2.747   6.360  0.00  0.00    +0.377 N 
ATOM     34  H   UNL     1       0.296   2.200   5.980  0.00  0.00    -0.083 HD
ENDBRANCH  30  33
ENDBRANCH  29  30
ENDBRANCH  10  29
TORSDOF 7
