REMARK  Name = ZINC43215780
REMARK  7 active torsions:
REMARK  status: ('A' for Active; 'I' for Inactive)
REMARK    1  A    between atoms: C_4  and  C_7
REMARK    2  A    between atoms: C_7  and  C_8
REMARK    3  A    between atoms: C_8  and  C_10
REMARK    4  A    between atoms: C_8  and  N_16
REMARK    5  A    between atoms: C_17  and  C_19
REMARK    6  A    between atoms: C_22  and  C_24
REMARK    7  A    between atoms: C_27  and  N_30
REMARK                            x       y       z     vdW  Elec       q    Type
REMARK                         _______ _______ _______ _____ _____    ______ ____
ROOT
ATOM      1  N   UNL     1       4.451   0.315   2.057  0.00  0.00    -0.303 N 
ATOM      2  C   UNL     1       4.378   0.412   3.400  0.00  0.00    +0.266 C 
ATOM      3  O   UNL     1       4.079  -0.562   4.064  0.00  0.00    -0.268 OA
ATOM      4  H   UNL     1       4.689   1.092   1.527  0.00  0.00    +0.150 HD
ENDROOT
BRANCH   2   5
ATOM      5  C   UNL     1       4.659   1.699   4.062  0.00  0.00    +0.164 A 
ATOM      6  C   UNL     1       4.629   1.940   5.402  0.00  0.00    +0.230 A 
ATOM      7  O   UNL     1       4.946   3.234   5.579  0.00  0.00    -0.443 OA
ATOM      8  C   UNL     1       5.168   3.780   4.370  0.00  0.00    +0.228 A 
ATOM      9  N   UNL     1       5.003   2.862   3.450  0.00  0.00    -0.204 NA
BRANCH   8  10
ATOM     10  C   UNL     1       5.543   5.187   4.119  0.00  0.00    +0.037 A 
ATOM     11  C   UNL     1       5.740   5.637   2.812  0.00  0.00    +0.015 A 
ATOM     12  C   UNL     1       6.089   6.949   2.582  0.00  0.00    +0.023 A 
ATOM     13  C   UNL     1       6.245   7.826   3.650  0.00  0.00    +0.025 A 
ATOM     14  C   UNL     1       6.050   7.381   4.954  0.00  0.00    +0.023 A 
ATOM     15  C   UNL     1       5.694   6.071   5.189  0.00  0.00    +0.015 A 
BRANCH  13  16
ATOM     16  N   UNL     1       6.599   9.154   3.414  0.00  0.00    -0.358 N 
ATOM     17  H   UNL     1       6.736   9.465   2.506  0.00  0.00    +0.142 HD
ATOM     18  H   UNL     1       6.708   9.766   4.158  0.00  0.00    +0.142 HD
ENDBRANCH  13  16
ENDBRANCH   8  10
ENDBRANCH   2   5
BRANCH   1  19
ATOM     19  C   UNL     1       4.171  -0.963   1.399  0.00  0.00    +0.108 C 
BRANCH  19  20
ATOM     20  C   UNL     1       5.422  -1.804   1.383  0.00  0.00    -0.027 A 
ATOM     21  C   UNL     1       6.648  -1.216   1.138  0.00  0.00    +0.005 A 
ATOM     22  C   UNL     1       7.795  -1.987   1.124  0.00  0.00    +0.000 A 
ATOM     23  C   UNL     1       7.715  -3.348   1.355  0.00  0.00    +0.000 A 
ATOM     24  C   UNL     1       6.489  -3.937   1.602  0.00  0.00    +0.000 A 
ATOM     25  C   UNL     1       5.343  -3.164   1.620  0.00  0.00    +0.005 A 
ENDBRANCH  19  20
BRANCH  19  26
ATOM     26  C   UNL     1       3.711  -0.707  -0.038  0.00  0.00    +0.062 C 
BRANCH  26  30
ATOM     27  C   UNL     1      -0.017   1.378   0.010  0.00  0.00    +0.000 A 
ATOM     28  C   UNL     1       1.171   2.086   0.002  0.00  0.00    +0.000 A 
ATOM     29  C   UNL     1       2.377   1.411  -0.013  0.00  0.00    +0.004 A 
ATOM     30  C   UNL     1       2.396   0.029  -0.020  0.00  0.00    -0.045 A 
ATOM     31  C   UNL     1       1.208  -0.679  -0.012  0.00  0.00    +0.004 A 
ATOM     32  C   UNL     1       0.002  -0.004   0.002  0.00  0.00    +0.000 A 
ENDBRANCH  26  30
ENDBRANCH  19  26
ENDBRANCH   1  19
TORSDOF 7
