REMARK  Name = ZINC05376752
REMARK  3 active torsions:
REMARK  status: ('A' for Active; 'I' for Inactive)
REMARK    1  A    between atoms: C_3  and  C_6
REMARK    2  A    between atoms: C_7  and  C_8
REMARK    3  A    between atoms: N_14  and  C_15
REMARK                            x       y       z     vdW  Elec       q    Type
REMARK                         _______ _______ _______ _____ _____    ______ ____
ROOT
ATOM      1  C   UNL     1       5.536  -0.687  -0.619  0.00  0.00    +0.020 C 
ATOM      2  C   UNL     1       6.202  -1.880  -0.441  0.00  0.00    +0.077 C 
ATOM      3  C   UNL     1       5.678  -3.165  -0.113  0.00  0.00    +0.256 C 
ATOM      4  O   UNL     1       4.482  -3.329   0.051  0.00  0.00    -0.269 OA
ATOM      5  N   UNL     1       6.523  -4.175   0.008  0.00  0.00    -0.260 N 
ATOM      6  C   UNL     1       7.875  -3.973  -0.181  0.00  0.00    +0.166 C 
ATOM      7  N   UNL     1       8.858  -4.843  -0.105  0.00  0.00    -0.224 NA
ATOM      8  S   UNL     1       7.949  -2.230  -0.565  0.00  0.00    -0.049 S 
ATOM      9  H   UNL     1       6.192  -5.059   0.230  0.00  0.00    +0.157 HD
ENDROOT
BRANCH   7  10
ATOM     10  C   UNL     1      10.155  -4.421  -0.212  0.00  0.00    +0.085 A 
ATOM     11  C   UNL     1      10.608  -3.345   0.555  0.00  0.00    +0.031 A 
ATOM     12  C   UNL     1      11.918  -2.925   0.443  0.00  0.00    +0.022 A 
ATOM     13  C   UNL     1      12.782  -3.567  -0.428  0.00  0.00    +0.042 A 
ATOM     14  C   UNL     1      12.340  -4.634  -1.192  0.00  0.00    +0.042 A 
ATOM     15  C   UNL     1      11.034  -5.069  -1.084  0.00  0.00    +0.068 A 
ATOM     16 CL   UNL     1      10.483  -6.412  -2.037  0.00  0.00    -0.081 Cl
ATOM     17 CL   UNL     1      14.428  -3.030  -0.564  0.00  0.00    -0.083 Cl
ENDBRANCH   7  10
BRANCH   1  19
ATOM     18  C   UNL     1       3.483   0.545  -0.650  0.00  0.00    +0.046 C 
ATOM     19  C   UNL     1       4.141  -0.633  -0.473  0.00  0.00    +0.005 C 
BRANCH  18  22
ATOM     20  C   UNL     1      -0.035   1.313  -0.415  0.00  0.00    +0.042 A 
ATOM     21  C   UNL     1       1.287   1.722  -0.652  0.00  0.00    +0.049 A 
ATOM     22  C   UNL     1       2.077   0.600  -0.502  0.00  0.00    +0.128 A 
ATOM     23  O   UNL     1       1.270  -0.435  -0.190  0.00  0.00    -0.464 OA
ATOM     24  C   UNL     1      -0.001  -0.009  -0.137  0.00  0.00    +0.195 A 
ENDBRANCH  18  22
ENDBRANCH   1  19
TORSDOF 3
