REMARK  Name = ZINC36277533
REMARK  2 active torsions:
REMARK  status: ('A' for Active; 'I' for Inactive)
REMARK    1  A    between atoms: C_1  and  C_2
REMARK    2  A    between atoms: C_8  and  N_10
REMARK                            x       y       z     vdW  Elec       q    Type
REMARK                         _______ _______ _______ _____ _____    ______ ____
ROOT
ATOM      1  N   UNL     1       2.116  -0.004   1.231  0.00  0.00    -0.325 N 
ATOM      2  C   UNL     1       2.813   0.131   2.419  0.00  0.00    +0.132 A 
ATOM      3  C   UNL     1       4.179   0.527   2.412  0.00  0.00    +0.051 A 
ATOM      4  C   UNL     1       5.038   0.837   1.267  0.00  0.00    -0.025 A 
ATOM      5  C   UNL     1       6.311   1.190   1.535  0.00  0.00    -0.004 A 
ATOM      6  S   UNL     1       6.444   1.134   3.302  0.00  0.00    -0.073 S 
ATOM      7  C   UNL     1       4.785   0.633   3.679  0.00  0.00    +0.115 A 
ATOM      8  N   UNL     1       4.117   0.378   4.787  0.00  0.00    -0.210 NA
ATOM      9  C   UNL     1       2.849   0.013   4.731  0.00  0.00    +0.225 A 
ATOM     10  N   UNL     1       2.215  -0.101   3.576  0.00  0.00    -0.202 NA
ATOM     11 CL   UNL     1       1.994  -0.317   6.205  0.00  0.00    -0.041 Cl
ATOM     12  C   UNL     1       7.380   1.551   0.549  0.00  0.00    +0.043 C 
ATOM     13  C   UNL     1       6.924   1.101  -0.846  0.00  0.00    +0.005 C 
ATOM     14  C   UNL     1       5.482   1.569  -1.066  0.00  0.00    +0.005 C 
ATOM     15  C   UNL     1       4.535   0.768  -0.172  0.00  0.00    +0.037 C 
ATOM     16  H   UNL     1       2.579   0.091   0.384  0.00  0.00    +0.148 HD
ENDROOT
BRANCH   1  23
ATOM     17  C   UNL     1       0.259   1.717  -0.174  0.00  0.00    +0.009 C 
ATOM     18  C   UNL     1       0.041   0.208  -0.045  0.00  0.00    +0.006 C 
ATOM     19  C   UNL     1       0.685  -0.503  -1.236  0.00  0.00    +0.005 C 
ATOM     20  C   UNL     1       0.467  -2.012  -1.107  0.00  0.00    +0.000 C 
ATOM     21  C   UNL     1       1.106  -2.511   0.191  0.00  0.00    +0.002 C 
ATOM     22  C   UNL     1       0.462  -1.799   1.382  0.00  0.00    +0.022 C 
ATOM     23  C   UNL     1       0.680  -0.290   1.253  0.00  0.00    +0.075 C 
ENDBRANCH   1  23
TORSDOF 1
