REMARK  Name = ZINC09334008
REMARK  9 active torsions:
REMARK  status: ('A' for Active; 'I' for Inactive)
REMARK    1  A    between atoms: C_1  and  C_2
REMARK    2  A    between atoms: C_2  and  C_37
REMARK    3  A    between atoms: C_6  and  C_24
REMARK    4  A    between atoms: C_12  and  C_16
REMARK    5  A    between atoms: C_16  and  C_18
REMARK    6  A    between atoms: C_27  and  O_32
REMARK    7  A    between atoms: C_28  and  O_30
REMARK    8  A    between atoms: O_30  and  C_31
REMARK    9  A    between atoms: O_32  and  C_33
REMARK                            x       y       z     vdW  Elec       q    Type
REMARK                         _______ _______ _______ _____ _____    ______ ____
ROOT
ATOM      1  C   UNL     1      -3.240   3.861  -3.807  0.00  0.00    +0.011 C 
ATOM      2  C   UNL     1      -2.853   5.236  -3.257  0.00  0.00    -0.023 C 
ATOM      3  C   UNL     1      -1.344   5.294  -3.024  0.00  0.00    +0.058 C 
ATOM      4  C   UNL     1      -0.933   4.217  -2.034  0.00  0.00    +0.017 C 
ATOM      5  C   UNL     1      -1.762   3.855  -1.041  0.00  0.00    +0.036 C 
ATOM      6  C   UNL     1      -1.470   2.832   0.023  0.00  0.00    +0.136 C 
ATOM      7  N   UNL     1      -0.291   2.028  -0.216  0.00  0.00    -0.331 N 
ATOM      8  C   UNL     1       0.973   2.598  -0.246  0.00  0.00    +0.049 A 
ATOM      9  C   UNL     1       1.933   2.276   0.707  0.00  0.00    +0.025 A 
ATOM     10  C   UNL     1       3.163   2.897   0.672  0.00  0.00    +0.013 A 
ATOM     11  C   UNL     1       3.445   3.849  -0.314  0.00  0.00    +0.024 A 
ATOM     12  C   UNL     1       2.481   4.158  -1.283  0.00  0.00    +0.036 A 
ATOM     13  C   UNL     1       1.262   3.515  -1.250  0.00  0.00    +0.053 A 
ATOM     14  N   UNL     1       0.303   3.697  -2.241  0.00  0.00    -0.316 N 
ATOM     15  C   UNL     1      -3.043   4.446  -0.931  0.00  0.00    +0.163 C 
ATOM     16  O   UNL     1      -3.765   4.114  -0.011  0.00  0.00    -0.292 OA
ATOM     17  C   UNL     1      -3.543   5.468  -1.908  0.00  0.00    +0.086 C 
ATOM     18  C   UNL     1      -3.268   6.327  -4.246  0.00  0.00    +0.011 C 
ATOM     19  H   UNL     1      -0.388   0.944  -0.380  0.00  0.00    +0.147 HD
ATOM     20  H   UNL     1       0.606   3.386  -3.252  0.00  0.00    +0.152 HD
ENDROOT
BRANCH   6  21
ATOM     21  C   UNL     1      -1.300   3.550   1.337  0.00  0.00    -0.019 A 
ATOM     22  C   UNL     1      -0.233   4.410   1.520  0.00  0.00    +0.009 A 
ATOM     23  C   UNL     1      -0.072   5.071   2.723  0.00  0.00    +0.050 A 
ATOM     24  C   UNL     1      -0.982   4.873   3.749  0.00  0.00    +0.162 A 
ATOM     25  C   UNL     1      -2.056   4.008   3.565  0.00  0.00    +0.162 A 
ATOM     26  C   UNL     1      -2.214   3.352   2.355  0.00  0.00    +0.055 A 
BRANCH  25  27
ATOM     27  O   UNL     1      -2.952   3.810   4.569  0.00  0.00    -0.491 OA
ATOM     28  C   UNL     1      -4.030   2.909   4.309  0.00  0.00    +0.277 C 
ENDBRANCH  25  27
BRANCH  24  29
ATOM     29  O   UNL     1      -0.826   5.523   4.934  0.00  0.00    -0.491 OA
ATOM     30  C   UNL     1       0.300   6.395   5.051  0.00  0.00    +0.277 C 
ENDBRANCH  24  29
ENDBRANCH   6  21
BRANCH  11  31
ATOM     31  C   UNL     1       4.754   4.525  -0.334  0.00  0.00    +0.193 C 
ATOM     32  O   UNL     1       5.304   4.815   0.711  0.00  0.00    -0.287 OA
BRANCH  31  33
ATOM     33  C   UNL     1       5.398   4.851  -1.624  0.00  0.00    +0.022 A 
ATOM     34  C   UNL     1       4.853   4.378  -2.819  0.00  0.00    +0.012 A 
ATOM     35  C   UNL     1       5.457   4.689  -4.020  0.00  0.00    +0.001 A 
ATOM     36  C   UNL     1       6.606   5.459  -4.040  0.00  0.00    +0.000 A 
ATOM     37  C   UNL     1       7.155   5.927  -2.859  0.00  0.00    +0.001 A 
ATOM     38  C   UNL     1       6.559   5.627  -1.652  0.00  0.00    +0.012 A 
ENDBRANCH  31  33
ENDBRANCH  11  31
TORSDOF 5
