REMARK  Name = ZINC49435742
REMARK  8 active torsions:
REMARK  status: ('A' for Active; 'I' for Inactive)
REMARK    1  A    between atoms: C_1  and  C_2
REMARK    2  A    between atoms: C_2  and  C_3
REMARK    3  A    between atoms: C_2  and  C_4
REMARK    4  A    between atoms: C_2  and  C_5
REMARK    5  A    between atoms: C_12  and  C_14
REMARK    6  A    between atoms: C_14  and  C_16
REMARK    7  A    between atoms: C_16  and  C_18
REMARK    8  A    between atoms: C_16  and  C_20
REMARK                            x       y       z     vdW  Elec       q    Type
REMARK                         _______ _______ _______ _____ _____    ______ ____
ROOT
ATOM      1  C   UNL     1       5.847  -0.450  -4.707  0.00  0.00    +0.194 C 
ATOM      2  O   UNL     1       6.499   0.531  -4.408  0.00  0.00    -0.290 OA
ENDROOT
BRANCH   1   9
ATOM      3  C   UNL     1       0.718  -0.497  -1.257  0.00  0.00    -0.001 C 
ATOM      4  C   UNL     1       0.735  -2.029  -1.266  0.00  0.00    +0.009 C 
ATOM      5  C   UNL     1       1.204  -2.510  -2.646  0.00  0.00    +0.043 C 
ATOM      6  C   UNL     1       2.442  -1.748  -3.018  0.00  0.00    -0.006 A 
ATOM      7  C   UNL     1       2.906  -0.606  -2.430  0.00  0.00    -0.036 A 
ATOM      8  C   UNL     1       4.078  -0.074  -2.939  0.00  0.00    +0.023 A 
ATOM      9  C   UNL     1       4.665  -0.755  -3.997  0.00  0.00    +0.057 A 
ATOM     10  S   UNL     1       3.535  -2.116  -4.226  0.00  0.00    -0.090 S 
ATOM     11  C   UNL     1       2.151   0.036  -1.268  0.00  0.00    +0.040 C 
BRANCH   3  13
ATOM     12  C   UNL     1      -0.019   1.526   0.010  0.00  0.00    +0.011 C 
ATOM     13  C   UNL     1       0.002  -0.004   0.002  0.00  0.00    -0.035 C 
ATOM     14  C   UNL     1       0.742  -0.511   1.242  0.00  0.00    +0.011 C 
ATOM     15  C   UNL     1      -1.433  -0.534   0.013  0.00  0.00    +0.011 C 
ENDBRANCH   3  13
ENDBRANCH   1   9
BRANCH   1  16
ATOM     16  C   UNL     1       6.301  -1.342  -5.834  0.00  0.00    +0.230 C 
BRANCH  16  17
ATOM     17  C   UNL     1       7.804  -1.301  -5.932  0.00  0.00    +0.161 A 
ATOM     18  N   UNL     1       8.419  -0.154  -6.158  0.00  0.00    -0.198 NA
ATOM     19  C   UNL     1       9.747  -0.114  -6.246  0.00  0.00    +0.217 A 
ATOM     20  N   UNL     1      10.454  -1.230  -6.106  0.00  0.00    -0.181 NA
ATOM     21  C   UNL     1       9.832  -2.382  -5.879  0.00  0.00    +0.217 A 
ATOM     22  N   UNL     1      10.561  -3.544  -5.733  0.00  0.00    -0.327 N 
ATOM     23  N   UNL     1       8.504  -2.413  -5.787  0.00  0.00    -0.198 NA
ATOM     24  N   UNL     1      10.388   1.085  -6.482  0.00  0.00    -0.327 N 
ATOM     25  H   UNL     1      11.529  -3.520  -5.796  0.00  0.00    +0.145 HD
ATOM     26  H   UNL     1       9.871   1.899  -6.585  0.00  0.00    +0.145 HD
ATOM     27  H   UNL     1      11.356   1.113  -6.546  0.00  0.00    +0.145 HD
ATOM     28  H   UNL     1      10.107  -4.385  -5.567  0.00  0.00    +0.145 HD
ENDBRANCH  16  17
BRANCH  16  29
ATOM     29  C   UNL     1       5.713  -0.871  -7.099  0.00  0.00    +0.082 C 
ATOM     30  N   UNL     1       5.260  -0.507  -8.075  0.00  0.00    -0.195 NA
ENDBRANCH  16  29
ENDBRANCH   1  16
TORSDOF 5
