REMARK  Name = ZINC40325331
REMARK  10 active torsions:
REMARK  status: ('A' for Active; 'I' for Inactive)
REMARK    1  A    between atoms: C_1  and  C_2
REMARK    2  A    between atoms: C_2  and  C_3
REMARK    3  A    between atoms: C_3  and  S_4
REMARK    4  A    between atoms: S_4  and  C_7
REMARK    5  A    between atoms: C_10  and  C_13
REMARK    6  A    between atoms: C_15  and  C_18
REMARK    7  A    between atoms: N_20  and  C_21
REMARK    8  A    between atoms: C_21  and  C_22
REMARK    9  A    between atoms: C_22  and  C_24
REMARK   10  A    between atoms: C_22  and  N_29
REMARK                            x       y       z     vdW  Elec       q    Type
REMARK                         _______ _______ _______ _____ _____    ______ ____
ROOT
ATOM      1  C   UNL     1       6.510  -4.890  -8.337  0.00  0.00    +0.266 C 
ATOM      2  O   UNL     1       7.460  -5.072  -7.602  0.00  0.00    -0.268 OA
ATOM      3  N   UNL     1       6.650  -5.037  -9.669  0.00  0.00    -0.311 N 
ATOM      4  H   UNL     1       5.891  -4.892 -10.256  0.00  0.00    +0.149 HD
ENDROOT
BRANCH   1   7
ATOM      5  C   UNL     1       3.595  -3.974  -6.291  0.00  0.00    +0.168 A 
ATOM      6  C   UNL     1       4.906  -4.318  -6.399  0.00  0.00    +0.086 A 
ATOM      7  C   UNL     1       5.194  -4.506  -7.768  0.00  0.00    +0.168 A 
ATOM      8  N   UNL     1       4.095  -4.282  -8.448  0.00  0.00    -0.073 NA
ATOM      9  O   UNL     1       3.070  -3.948  -7.530  0.00  0.00    -0.354 OA
BRANCH   5  13
ATOM     10  C   UNL     1       1.517  -3.145  -2.680  0.00  0.00    +0.088 A 
ATOM     11  C   UNL     1       0.849  -3.079  -3.890  0.00  0.00    +0.027 A 
ATOM     12  C   UNL     1       1.518  -3.347  -5.067  0.00  0.00    +0.013 A 
ATOM     13  C   UNL     1       2.872  -3.685  -5.034  0.00  0.00    +0.020 A 
ATOM     14  C   UNL     1       3.540  -3.748  -3.811  0.00  0.00    +0.013 A 
ATOM     15  C   UNL     1       2.861  -3.473  -2.642  0.00  0.00    +0.027 A 
BRANCH  10  16
ATOM     16  S   UNL     1       0.655  -2.801  -1.183  0.00  0.00    -0.003 S 
ATOM     17  O   UNL     1       1.369  -3.513  -0.182  0.00  0.00    -0.169 OA
ATOM     18  O   UNL     1      -0.702  -3.113  -1.465  0.00  0.00    -0.169 OA
BRANCH  16  19
ATOM     19  C   UNL     1       0.846  -1.014  -0.934  0.00  0.00    +0.171 C 
BRANCH  19  21
ATOM     20  C   UNL     1       0.291   0.909   0.561  0.00  0.00    +0.005 C 
ATOM     21  C   UNL     1       0.130  -0.598   0.352  0.00  0.00    +0.020 C 
ENDBRANCH  19  21
ENDBRANCH  16  19
ENDBRANCH  10  16
ENDBRANCH   5  13
ENDBRANCH   1   7
BRANCH   3  22
ATOM     22  C   UNL     1       7.949  -5.416 -10.231  0.00  0.00    +0.094 C 
BRANCH  22  23
ATOM     23  C   UNL     1       7.806  -5.641 -11.738  0.00  0.00    -0.013 C 
BRANCH  23  24
ATOM     24  N   UNL     1       9.124  -5.934 -12.316  0.00  0.00    +0.386 N 
ATOM     25  C   UNL     1      10.004  -4.773 -12.139  0.00  0.00    -0.078 C 
ATOM     26  C   UNL     1      11.402  -5.102 -12.667  0.00  0.00    -0.019 C 
ATOM     27  C   UNL     1      11.311  -5.453 -14.155  0.00  0.00    -0.004 C 
ATOM     28  C   UNL     1      10.333  -6.618 -14.335  0.00  0.00    -0.019 C 
ATOM     29  C   UNL     1       8.975  -6.232 -13.745  0.00  0.00    -0.078 C 
ATOM     30  H   UNL     1       9.526  -6.732 -11.847  0.00  0.00    -0.081 HD
ENDBRANCH  23  24
BRANCH  23  31
ATOM     31  C   UNL     1       6.879  -6.803 -11.987  0.00  0.00    -0.022 A 
ATOM     32  C   UNL     1       5.569  -6.790 -12.334  0.00  0.00    +0.009 A 
ATOM     33  C   UNL     1       4.911  -7.992 -12.512  0.00  0.00    +0.008 A 
ATOM     34  C   UNL     1       5.595  -9.149 -12.335  0.00  0.00    +0.045 A 
ATOM     35  S   UNL     1       7.223  -8.553 -11.908  0.00  0.00    -0.103 S 
ENDBRANCH  23  31
ENDBRANCH  22  23
ENDBRANCH   3  22
TORSDOF 9
