REMARK  Name = ZINC36313656
REMARK  19 active torsions:
REMARK  status: ('A' for Active; 'I' for Inactive)
REMARK    1  A    between atoms: C_1  and  C_2
REMARK    2  A    between atoms: C_2  and  C_3
REMARK    3  A    between atoms: C_3  and  C_4
REMARK    4  A    between atoms: C_4  and  O_5
REMARK    5  A    between atoms: O_5  and  C_6
REMARK    6  A    between atoms: C_6  and  C_7
REMARK    7  A    between atoms: C_7  and  C_9
REMARK    8  A    between atoms: C_7  and  O_36
REMARK    9  A    between atoms: C_9  and  N_10
REMARK   10  A    between atoms: N_10  and  C_11
REMARK   11  A    between atoms: N_10  and  C_32
REMARK   12  A    between atoms: C_11  and  C_12
REMARK   13  A    between atoms: C_13  and  C_31
REMARK   14  A    between atoms: N_15  and  C_24
REMARK   15  A    between atoms: C_16  and  O_17
REMARK   16  A    between atoms: O_17  and  C_18
REMARK   17  A    between atoms: C_32  and  C_33
REMARK   18  A    between atoms: C_33  and  C_34
REMARK   19  A    between atoms: C_33  and  C_35
REMARK                            x       y       z     vdW  Elec       q    Type
REMARK                         _______ _______ _______ _____ _____    ______ ____
ROOT
ATOM      1  C   UNL     1      -5.550  -8.189   2.205  0.00  0.00    +0.021 A 
ATOM      2  C   UNL     1      -4.288  -8.144   2.804  0.00  0.00    +0.065 A 
ATOM      3  N   UNL     1      -4.447  -8.069   4.101  0.00  0.00    -0.168 NA
ATOM      4  N   UNL     1      -5.820  -8.063   4.378  0.00  0.00    -0.200 N 
ATOM      5  C   UNL     1      -6.483  -8.133   3.192  0.00  0.00    +0.225 A 
ATOM      6  C   UNL     1      -2.967  -8.177   2.079  0.00  0.00    +0.068 C 
ENDROOT
BRANCH   4   7
ATOM      7  C   UNL     1      -6.405  -7.993   5.649  0.00  0.00    +0.070 A 
ATOM      8  C   UNL     1      -7.548  -7.229   5.848  0.00  0.00    +0.028 A 
ATOM      9  C   UNL     1      -8.123  -7.161   7.101  0.00  0.00    +0.003 A 
ATOM     10  C   UNL     1      -7.563  -7.853   8.159  0.00  0.00    +0.020 A 
ATOM     11  C   UNL     1      -6.425  -8.615   7.965  0.00  0.00    +0.043 A 
ATOM     12  C   UNL     1      -5.848  -8.691   6.711  0.00  0.00    +0.048 A 
ATOM     13 CL   UNL     1      -5.724  -9.482   9.296  0.00  0.00    -0.083 Cl
ENDBRANCH   4   7
BRANCH   1  14
ATOM     14  C   UNL     1      -5.828  -8.277   0.726  0.00  0.00    -0.036 C 
BRANCH  14  15
ATOM     15  N   UNL     1      -6.082  -6.931   0.195  0.00  0.00    +0.384 N 
ATOM     16  H   UNL     1      -6.816  -6.491   0.729  0.00  0.00    -0.081 HD
BRANCH  15  17
ATOM     17  C   UNL     1      -4.856  -6.127   0.291  0.00  0.00    -0.044 C 
BRANCH  17  18
ATOM     18  C   UNL     1      -5.166  -4.678  -0.087  0.00  0.00    +0.124 C 
BRANCH  18  19
ATOM     19  O   UNL     1      -5.489  -4.607  -1.478  0.00  0.00    -0.391 OA
ATOM     20  H   UNL     1      -4.780  -4.909  -2.062  0.00  0.00    +0.210 HD
ENDBRANCH  18  19
BRANCH  18  21
ATOM     21  C   UNL     1      -3.943  -3.804   0.197  0.00  0.00    +0.189 C 
BRANCH  21  22
ATOM     22  O   UNL     1      -4.270  -2.434  -0.046  0.00  0.00    -0.377 OA
BRANCH  22  23
ATOM     23  C   UNL     1      -3.190  -1.528   0.191  0.00  0.00    +0.160 C 
BRANCH  23  24
ATOM     24  C   UNL     1      -3.651  -0.098  -0.099  0.00  0.00    +0.028 C 
BRANCH  24  26
ATOM     25  C   UNL     1      -2.955   2.301  -0.136  0.00  0.00    +0.004 C 
ATOM     26  C   UNL     1      -2.495   0.872   0.155  0.00  0.00    -0.001 C 
ENDBRANCH  24  26
ENDBRANCH  23  24
ENDBRANCH  22  23
ENDBRANCH  21  22
ENDBRANCH  18  21
ENDBRANCH  17  18
ENDBRANCH  15  17
BRANCH  15  27
ATOM     27  C   UNL     1      -6.493  -7.030  -1.212  0.00  0.00    -0.075 C 
BRANCH  27  28
ATOM     28  C   UNL     1      -7.800  -7.821  -1.307  0.00  0.00    -0.034 C 
ATOM     29  C   UNL     1      -8.915  -7.050  -0.598  0.00  0.00    +0.005 C 
ATOM     30  C   UNL     1      -8.171  -8.017  -2.779  0.00  0.00    +0.005 C 
ENDBRANCH  27  28
ENDBRANCH  15  27
ENDBRANCH  14  15
ENDBRANCH   1  14
BRANCH   5  31
ATOM     31  O   UNL     1      -7.830  -8.146   3.026  0.00  0.00    -0.438 OA
BRANCH  31  32
ATOM     32  C   UNL     1      -8.470  -9.342   3.100  0.00  0.00    +0.130 A 
ATOM     33  C   UNL     1      -7.767 -10.486   3.448  0.00  0.00    +0.046 A 
ATOM     34  C   UNL     1      -8.421 -11.701   3.522  0.00  0.00    +0.004 A 
ATOM     35  C   UNL     1      -9.774 -11.778   3.249  0.00  0.00    +0.000 A 
ATOM     36  C   UNL     1     -10.477 -10.639   2.902  0.00  0.00    +0.004 A 
ATOM     37  C   UNL     1      -9.830  -9.420   2.832  0.00  0.00    +0.046 A 
ENDBRANCH  31  32
ENDBRANCH   5  31
TORSDOF 15
