REMARK  Name = ZINC39355541
REMARK  7 active torsions:
REMARK  status: ('A' for Active; 'I' for Inactive)
REMARK    1  A    between atoms: C_1  and  C_2
REMARK    2  A    between atoms: C_5  and  C_7
REMARK    3  A    between atoms: C_9  and  C_21
REMARK    4  A    between atoms: N_12  and  C_14
REMARK    5  A    between atoms: C_21  and  N_22
REMARK    6  A    between atoms: N_22  and  C_23
REMARK    7  A    between atoms: C_23  and  C_24
REMARK                            x       y       z     vdW  Elec       q    Type
REMARK                         _______ _______ _______ _____ _____    ______ ____
ROOT
ATOM      1  C   UNL     1       1.684  -3.245  -0.023  0.00  0.00    +0.141 C 
ATOM      2  C   UNL     1       2.294  -3.481   1.386  0.00  0.00    +0.017 C 
ATOM      3  C   UNL     1       3.645  -4.142   1.021  0.00  0.00    +0.128 C 
ATOM      4  N   UNL     1       3.890  -3.780  -0.385  0.00  0.00    -0.266 N 
ATOM      5  N   UNL     1       2.894  -2.951  -0.833  0.00  0.00    -0.229 NA
ATOM      6  H   UNL     1       3.162  -1.982  -0.743  0.00  0.00    +0.145 HD
ENDROOT
BRANCH   4   7
ATOM      7  C   UNL     1       4.975  -4.216  -1.148  0.00  0.00    +0.047 A 
ATOM      8  C   UNL     1       5.924  -5.064  -0.589  0.00  0.00    +0.024 A 
ATOM      9  C   UNL     1       6.996  -5.494  -1.346  0.00  0.00    +0.005 A 
ATOM     10  C   UNL     1       7.127  -5.083  -2.660  0.00  0.00    +0.038 A 
ATOM     11  C   UNL     1       6.183  -4.239  -3.221  0.00  0.00    +0.125 A 
ATOM     12  C   UNL     1       5.104  -3.809  -2.469  0.00  0.00    +0.062 A 
ATOM     13  F   UNL     1       6.314  -3.839  -4.505  0.00  0.00    -0.205 F 
ENDBRANCH   4   7
BRANCH   1  18
ATOM     14  C   UNL     1      -0.018   1.503   0.010  0.00  0.00    +0.086 C 
ATOM     15  C   UNL     1       0.002  -0.004   0.002  0.00  0.00    +0.102 A 
ATOM     16  C   UNL     1      -1.078  -0.805   0.003  0.00  0.00    +0.045 A 
ATOM     17  C   UNL     1      -0.601  -2.136  -0.007  0.00  0.00    +0.046 A 
ATOM     18  C   UNL     1       0.742  -2.069  -0.013  0.00  0.00    +0.124 A 
ATOM     19  O   UNL     1       1.102  -0.775  -0.013  0.00  0.00    -0.463 OA
ENDBRANCH   1  18
BRANCH   2  20
ATOM     20  C   UNL     1       2.509  -2.156   2.121  0.00  0.00    -0.075 C 
BRANCH  20  21
ATOM     21  N   UNL     1       2.973  -2.425   3.489  0.00  0.00    +0.381 N 
ATOM     22  H   UNL     1       2.280  -2.972   3.978  0.00  0.00    -0.086 HD
ATOM     23  H   UNL     1       3.842  -2.936   3.455  0.00  0.00    -0.086 HD
BRANCH  21  24
ATOM     24  C   UNL     1       3.179  -1.153   4.195  0.00  0.00    -0.049 C 
BRANCH  24  25
ATOM     25  C   UNL     1       3.662  -1.433   5.619  0.00  0.00    +0.139 C 
ATOM     26  C   UNL     1       4.060  -0.147   6.314  0.00  0.00    -0.023 C 
ATOM     27  C   UNL     1       5.354  -0.297   6.589  0.00  0.00    +0.064 C 
ATOM     28  C   UNL     1       5.877   0.941   7.296  0.00  0.00    +0.057 C 
ATOM     29  C   UNL     1       4.820   2.035   7.026  0.00  0.00    +0.011 C 
ATOM     30  C   UNL     1       3.548   1.188   6.787  0.00  0.00    +0.035 C 
ATOM     31  N   UNL     1       5.785  -1.510   6.147  0.00  0.00    -0.159 NA
ATOM     32  N   UNL     1       4.919  -2.202   5.603  0.00  0.00    -0.181 NA
ENDBRANCH  24  25
ENDBRANCH  21  24
ENDBRANCH  20  21
ENDBRANCH   2  20
TORSDOF 6
