REMARK  Name = ZINC19334842
REMARK  5 active torsions:
REMARK  status: ('A' for Active; 'I' for Inactive)
REMARK    1  A    between atoms: C_6  and  C_7
REMARK    2  A    between atoms: C_7  and  C_8
REMARK    3  A    between atoms: C_14  and  C_16
REMARK    4  A    between atoms: C_16  and  C_17
REMARK    5  A    between atoms: C_17  and  N_18
REMARK                            x       y       z     vdW  Elec       q    Type
REMARK                         _______ _______ _______ _____ _____    ______ ____
ROOT
ATOM      1  C   UNL     1      -0.022   1.783   0.012  0.00  0.00    +0.015 A 
ATOM      2  C   UNL     1       1.306   2.052   0.001  0.00  0.00    +0.124 A 
ATOM      3  N   UNL     1       2.153   1.042  -0.013  0.00  0.00    -0.233 NA
ATOM      4  C   UNL     1       1.727  -0.206  -0.015  0.00  0.00    +0.165 A 
ATOM      5  S   UNL     1       0.002  -0.004   0.002  0.00  0.00    -0.057 S 
ATOM      6  N   UNL     1       2.468  -1.382  -0.029  0.00  0.00    -0.265 N 
ATOM      7  C   UNL     1       3.815  -1.330  -0.042  0.00  0.00    +0.220 C 
ATOM      8  O   UNL     1       4.380  -0.257  -0.041  0.00  0.00    -0.275 OA
ATOM      9  H   UNL     1       1.955  -2.356  -0.030  0.00  0.00    +0.157 HD
ENDROOT
BRANCH   1  10
ATOM     10  C   UNL     1      -1.195   2.728   0.023  0.00  0.00    +0.079 C 
BRANCH  10  16
ATOM     11  C   UNL     1      -1.030   4.134  -2.041  0.00  0.00    +0.007 A 
ATOM     12  C   UNL     1      -1.391   4.428  -3.342  0.00  0.00    +0.038 A 
ATOM     13  C   UNL     1      -2.326   3.643  -3.994  0.00  0.00    +0.123 A 
ATOM     14  C   UNL     1      -2.895   2.561  -3.344  0.00  0.00    +0.038 A 
ATOM     15  C   UNL     1      -2.528   2.266  -2.044  0.00  0.00    +0.007 A 
ATOM     16  C   UNL     1      -1.594   3.051  -1.394  0.00  0.00    -0.042 A 
ATOM     17  F   UNL     1      -2.684   3.932  -5.265  0.00  0.00    -0.205 F 
ENDBRANCH  10  16
ENDBRANCH   1  10
BRANCH   7  18
ATOM     18  C   UNL     1       4.618  -2.605  -0.057  0.00  0.00    +0.115 C 
BRANCH  18  19
ATOM     19  C   UNL     1       6.110  -2.267  -0.069  0.00  0.00    +0.127 C 
BRANCH  19  20
ATOM     20  N   UNL     1       6.891  -3.506  -0.084  0.00  0.00    -0.224 N 
ATOM     21  C   UNL     1       7.286  -4.142  -1.208  0.00  0.00    +0.247 C 
ATOM     22  O   UNL     1       7.070  -3.811  -2.354  0.00  0.00    -0.273 OA
ATOM     23  C   UNL     1       8.051  -5.351  -0.734  0.00  0.00    +0.113 C 
ATOM     24  C   UNL     1       9.498  -5.324  -1.245  0.00  0.00    +0.035 C 
ATOM     25  C   UNL     1       9.832  -6.816  -1.502  0.00  0.00    +0.003 C 
ATOM     26  C   UNL     1       8.498  -7.378  -2.055  0.00  0.00    +0.003 C 
ATOM     27  C   UNL     1       7.411  -6.647  -1.236  0.00  0.00    +0.035 C 
ATOM     28  N   UNL     1       8.005  -5.264   0.728  0.00  0.00    -0.285 N 
ATOM     29  C   UNL     1       7.308  -4.146   1.016  0.00  0.00    +0.309 C 
ATOM     30  O   UNL     1       7.082  -3.764   2.148  0.00  0.00    -0.252 OA
ATOM     31  H   UNL     1       8.491  -6.037   1.340  0.00  0.00    +0.151 HD
ENDBRANCH  19  20
ENDBRANCH  18  19
ENDBRANCH   7  18
TORSDOF 5
