REMARK  Name = ZINC08788487
REMARK  9 active torsions:
REMARK  status: ('A' for Active; 'I' for Inactive)
REMARK    1  A    between atoms: C_1  and  C_2
REMARK    2  A    between atoms: C_2  and  C_3
REMARK    3  A    between atoms: C_9  and  C_10
REMARK    4  A    between atoms: C_9  and  N_59
REMARK    5  A    between atoms: C_11  and  O_33
REMARK    6  A    between atoms: C_17  and  C_29
REMARK    7  A    between atoms: C_18  and  O_21
REMARK    8  A    between atoms: O_21  and  C_22
REMARK    9  A    between atoms: C_25  and  C_28
REMARK                            x       y       z     vdW  Elec       q    Type
REMARK                         _______ _______ _______ _____ _____    ______ ____
ROOT
ATOM      1  C   UNL     1       1.418   2.050  -0.888  0.00  0.00    +0.020 A 
ATOM      2  C   UNL     1       0.620   1.796   0.214  0.00  0.00    +0.122 A 
ATOM      3  C   UNL     1       1.037   2.163   1.492  0.00  0.00    +0.046 A 
ATOM      4  C   UNL     1       2.248   2.768   1.676  0.00  0.00    +0.019 A 
ATOM      5  C   UNL     1       3.064   3.030   0.575  0.00  0.00    +0.068 A 
ATOM      6  C   UNL     1       2.648   2.669  -0.719  0.00  0.00    +0.144 A 
ATOM      7  O   UNL     1       3.446   2.927  -1.775  0.00  0.00    -0.447 OA
ATOM      8  C   UNL     1       4.638   3.523  -1.646  0.00  0.00    +0.254 A 
ATOM      9  C   UNL     1       5.134   3.911  -0.454  0.00  0.00    +0.222 A 
ATOM     10  C   UNL     1       4.374   3.687   0.730  0.00  0.00    +0.235 A 
ATOM     11  O   UNL     1       4.790   4.024   1.825  0.00  0.00    -0.283 OA
ENDROOT
BRANCH   8  12
ATOM     12  C   UNL     1       5.460   3.771  -2.884  0.00  0.00    +0.454 C 
ATOM     13  F   UNL     1       6.288   2.669  -3.123  0.00  0.00    -0.163 F 
ATOM     14  F   UNL     1       4.609   3.961  -3.978  0.00  0.00    -0.163 F 
ATOM     15  F   UNL     1       6.246   4.914  -2.702  0.00  0.00    -0.163 F 
ENDBRANCH   8  12
BRANCH   2  16
ATOM     16  O   UNL     1      -0.584   1.190   0.048  0.00  0.00    -0.506 OA
ATOM     17  H   UNL     1      -0.548   0.225   0.097  0.00  0.00    +0.292 HD
ENDBRANCH   2  16
BRANCH   1  18
ATOM     18  C   UNL     1       0.953   1.654  -2.266  0.00  0.00    -0.035 C 
BRANCH  18  24
ATOM     19  C   UNL     1      -0.446   2.347  -4.117  0.00  0.00    -0.068 C 
ATOM     20  C   UNL     1      -1.336   3.478  -4.635  0.00  0.00    -0.015 C 
ATOM     21  C   UNL     1      -0.480   4.726  -4.872  0.00  0.00    -0.003 C 
ATOM     22  C   UNL     1       0.219   5.112  -3.565  0.00  0.00    -0.019 C 
ATOM     23  C   UNL     1       1.064   3.932  -3.078  0.00  0.00    -0.078 C 
ATOM     24  N   UNL     1       0.179   2.771  -2.846  0.00  0.00    +0.384 N 
ATOM     25  H   UNL     1      -0.560   3.042  -2.186  0.00  0.00    -0.081 HD
BRANCH  19  27
ATOM     26  C   UNL     1      -1.932   0.638  -5.173  0.00  0.00    +0.002 C 
ATOM     27  C   UNL     1      -1.300   1.103  -3.860  0.00  0.00    -0.019 C 
ENDBRANCH  19  27
ENDBRANCH  18  24
ENDBRANCH   1  18
BRANCH   9  28
ATOM     28  O   UNL     1       6.353   4.513  -0.382  0.00  0.00    -0.448 OA
BRANCH  28  29
ATOM     29  C   UNL     1       7.446   3.722  -0.216  0.00  0.00    +0.129 A 
ATOM     30  C   UNL     1       7.299   2.346  -0.120  0.00  0.00    +0.046 A 
ATOM     31  C   UNL     1       8.412   1.544   0.042  0.00  0.00    +0.007 A 
ATOM     32  C   UNL     1       9.670   2.113   0.120  0.00  0.00    -0.050 A 
ATOM     33  C   UNL     1       9.818   3.485   0.031  0.00  0.00    +0.007 A 
ATOM     34  C   UNL     1       8.709   4.291  -0.137  0.00  0.00    +0.046 A 
ATOM     35  C   UNL     1      10.882   1.236   0.304  0.00  0.00    +0.044 C 
ENDBRANCH  28  29
ENDBRANCH   9  28
TORSDOF 7
