REMARK  Name = ZINC44879058
REMARK  10 active torsions:
REMARK  status: ('A' for Active; 'I' for Inactive)
REMARK    1  A    between atoms: C_1  and  C_2
REMARK    2  A    between atoms: N_7  and  C_9
REMARK    3  A    between atoms: C_9  and  C_10
REMARK    4  A    between atoms: C_13  and  C_16
REMARK    5  A    between atoms: C_16  and  N_17
REMARK    6  A    between atoms: C_18  and  C_20
REMARK    7  A    between atoms: N_25  and  S_27
REMARK    8  A    between atoms: S_27  and  C_30
REMARK    9  A    between atoms: C_33  and  O_36
REMARK   10  A    between atoms: O_36  and  C_37
REMARK                            x       y       z     vdW  Elec       q    Type
REMARK                         _______ _______ _______ _____ _____    ______ ____
ROOT
ATOM      1  N   UNL     1       1.359  -8.702   0.903  0.00  0.00    -0.311 N 
ATOM      2  C   UNL     1       1.347 -10.021   0.628  0.00  0.00    +0.218 C 
ATOM      3  O   UNL     1       1.901 -10.802   1.373  0.00  0.00    -0.275 OA
ATOM      4  H   UNL     1       0.917  -8.078   0.306  0.00  0.00    +0.149 HD
ENDROOT
BRANCH   2   5
ATOM      5  C   UNL     1       0.645 -10.527  -0.606  0.00  0.00    +0.091 C 
ATOM      6  C   UNL     1      -0.837 -10.151  -0.541  0.00  0.00    +0.015 C 
ATOM      7  C   UNL     1      -1.544 -10.636  -1.809  0.00  0.00    +0.018 C 
ATOM      8  C   UNL     1      -1.436 -12.161  -1.898  0.00  0.00    +0.109 C 
ATOM      9  N   UNL     1      -0.019 -12.541  -1.814  0.00  0.00    -0.176 NA
ATOM     10  C   UNL     1       0.778 -12.052  -0.681  0.00  0.00    +0.122 C 
BRANCH   9  11
ATOM     11  S   UNL     1       0.667 -13.502  -2.976  0.00  0.00    +0.061 S 
ATOM     12  O   UNL     1       1.788 -14.131  -2.371  0.00  0.00    -0.153 OA
ATOM     13  O   UNL     1      -0.392 -14.239  -3.570  0.00  0.00    -0.153 OA
BRANCH  11  14
ATOM     14  C   UNL     1       1.301 -12.435  -4.226  0.00  0.00    +0.106 A 
ATOM     15  C   UNL     1       0.499 -12.065  -5.290  0.00  0.00    +0.032 A 
ATOM     16  C   UNL     1       0.994 -11.229  -6.272  0.00  0.00    +0.047 A 
ATOM     17  C   UNL     1       2.298 -10.761  -6.191  0.00  0.00    +0.120 A 
ATOM     18  C   UNL     1       3.100 -11.134  -5.122  0.00  0.00    +0.047 A 
ATOM     19  C   UNL     1       2.599 -11.965  -4.140  0.00  0.00    +0.032 A 
BRANCH  17  20
ATOM     20  O   UNL     1       2.787  -9.939  -7.156  0.00  0.00    -0.495 OA
ATOM     21  C   UNL     1       4.138  -9.496  -7.007  0.00  0.00    +0.277 C 
ENDBRANCH  17  20
ENDBRANCH  11  14
ENDBRANCH   9  11
ENDBRANCH   2   5
BRANCH   1  22
ATOM     22  C   UNL     1       2.042  -8.210   2.102  0.00  0.00    +0.139 C 
BRANCH  22  26
ATOM     23  C   UNL     1       1.666  -3.960   2.315  0.00  0.00    -0.064 A 
ATOM     24  C   UNL     1       0.713  -4.769   2.905  0.00  0.00    +0.002 A 
ATOM     25  C   UNL     1       0.834  -6.144   2.837  0.00  0.00    +0.005 A 
ATOM     26  C   UNL     1       1.909  -6.711   2.177  0.00  0.00    -0.030 A 
ATOM     27  C   UNL     1       2.861  -5.902   1.585  0.00  0.00    +0.005 A 
ATOM     28  C   UNL     1       2.737  -4.527   1.651  0.00  0.00    +0.002 A 
BRANCH  23  29
ATOM     29  C   UNL     1       1.534  -2.461   2.390  0.00  0.00    -0.043 C 
BRANCH  29  35
ATOM     30  C   UNL     1      -0.019   1.526   0.010  0.00  0.00    +0.005 C 
ATOM     31  C   UNL     1       0.002  -0.004   0.002  0.00  0.00    -0.031 C 
ATOM     32  C   UNL     1      -1.434  -0.535   0.015  0.00  0.00    -0.001 C 
ATOM     33  C   UNL     1      -1.402  -2.064   0.086  0.00  0.00    -0.018 C 
ATOM     34  C   UNL     1      -0.613  -2.496   1.324  0.00  0.00    -0.078 C 
ATOM     35  N   UNL     1       0.758  -1.980   1.239  0.00  0.00    +0.383 N 
ATOM     36  C   UNL     1       0.740  -0.512   1.242  0.00  0.00    -0.075 C 
ATOM     37  H   UNL     1       1.188  -2.307   0.386  0.00  0.00    -0.081 HD
ENDBRANCH  29  35
ENDBRANCH  23  29
ENDBRANCH  22  26
ENDBRANCH   1  22
TORSDOF 8
