REMARK  Name = ZINC36822389
REMARK  11 active torsions:
REMARK  status: ('A' for Active; 'I' for Inactive)
REMARK    1  A    between atoms: C_1  and  C_2
REMARK    2  A    between atoms: C_2  and  C_3
REMARK    3  A    between atoms: C_3  and  C_27
REMARK    4  A    between atoms: N_6  and  C_10
REMARK    5  A    between atoms: C_10  and  C_11
REMARK    6  A    between atoms: N_13  and  C_14
REMARK    7  A    between atoms: C_14  and  C_15
REMARK    8  A    between atoms: N_17  and  C_18
REMARK    9  A    between atoms: C_19  and  C_26
REMARK   10  A    between atoms: C_21  and  C_25
REMARK   11  A    between atoms: C_23  and  C_24
REMARK                            x       y       z     vdW  Elec       q    Type
REMARK                         _______ _______ _______ _____ _____    ______ ____
ROOT
ATOM      1  C   UNL     1      -0.981   1.976  -3.306  0.00  0.00    +0.213 C 
ENDROOT
BRANCH   1   5
ATOM      2  C   UNL     1      -0.298   0.486   0.027  0.00  0.00    +0.138 C 
ATOM      3  C   UNL     1      -1.147   1.315  -0.915  0.00  0.00    +0.251 C 
ATOM      4  O   UNL     1      -2.188   1.881  -0.656  0.00  0.00    -0.272 OA
ATOM      5  N   UNL     1      -0.505   1.295  -2.099  0.00  0.00    -0.215 N 
ATOM      6  C   UNL     1       0.621   0.575  -2.038  0.00  0.00    +0.310 C 
ATOM      7  O   UNL     1       1.370   0.410  -2.980  0.00  0.00    -0.252 OA
ATOM      8  N   UNL     1       0.831   0.053  -0.816  0.00  0.00    -0.281 N 
ATOM      9  H   UNL     1       1.580  -0.499  -0.542  0.00  0.00    +0.152 HD
BRANCH   2  10
ATOM     10  C   UNL     1      -1.069  -0.706   0.532  0.00  0.00    -0.015 A 
ATOM     11  C   UNL     1      -1.773  -0.621   1.719  0.00  0.00    +0.007 A 
ATOM     12  C   UNL     1      -2.481  -1.713   2.183  0.00  0.00    +0.020 A 
ATOM     13  C   UNL     1      -2.485  -2.893   1.459  0.00  0.00    +0.041 A 
ATOM     14  C   UNL     1      -1.781  -2.977   0.271  0.00  0.00    +0.020 A 
ATOM     15  C   UNL     1      -1.078  -1.882  -0.195  0.00  0.00    +0.007 A 
ATOM     16 CL   UNL     1      -3.374  -4.266   2.041  0.00  0.00    -0.084 Cl
ENDBRANCH   2  10
BRANCH   2  18
ATOM     17  C   UNL     1       0.932   2.568   0.655  0.00  0.00    +0.007 C 
ATOM     18  C   UNL     1       0.199   1.339   1.196  0.00  0.00    +0.037 C 
ENDBRANCH   2  18
ENDBRANCH   1   5
BRANCH   1  19
ATOM     19  C   UNL     1      -0.421   3.374  -3.348  0.00  0.00    +0.231 C 
ATOM     20  O   UNL     1       0.304   3.764  -2.457  0.00  0.00    -0.274 OA
ATOM     21  N   UNL     1      -0.726   4.192  -4.375  0.00  0.00    -0.305 N 
ATOM     22  H   UNL     1      -1.307   3.881  -5.087  0.00  0.00    +0.149 HD
BRANCH  21  23
ATOM     23  C   UNL     1      -0.182   5.551  -4.415  0.00  0.00    +0.200 C 
BRANCH  23  24
ATOM     24  C   UNL     1      -0.671   6.252  -5.657  0.00  0.00    +0.234 C 
ATOM     25  O   UNL     1      -1.403   5.673  -6.431  0.00  0.00    -0.274 OA
ATOM     26  N   UNL     1      -0.296   7.522  -5.906  0.00  0.00    -0.284 N 
ATOM     27  H   UNL     1       0.229   8.010  -5.252  0.00  0.00    +0.155 HD
BRANCH  26  28
ATOM     28  C   UNL     1      -0.663   8.137  -7.108  0.00  0.00    +0.039 A 
ATOM     29  C   UNL     1      -1.332   9.354  -7.091  0.00  0.00    -0.029 A 
ATOM     30  C   UNL     1      -1.693   9.958  -8.280  0.00  0.00    +0.008 A 
ATOM     31  C   UNL     1      -1.390   9.352  -9.485  0.00  0.00    -0.050 A 
ATOM     32  C   UNL     1      -0.725   8.140  -9.505  0.00  0.00    +0.008 A 
ATOM     33  C   UNL     1      -0.356   7.534  -8.320  0.00  0.00    -0.029 A 
ATOM     34  C   UNL     1       0.375   6.216  -8.343  0.00  0.00    +0.045 C 
ATOM     35  C   UNL     1      -1.785  10.015 -10.780  0.00  0.00    +0.044 C 
ATOM     36  C   UNL     1      -1.663  10.015  -5.778  0.00  0.00    +0.045 C 
ENDBRANCH  26  28
ENDBRANCH  23  24
ENDBRANCH  21  23
ENDBRANCH   1  19
TORSDOF 7
