REMARK  Name = ZINC21232937
REMARK  12 active torsions:
REMARK  status: ('A' for Active; 'I' for Inactive)
REMARK    1  A    between atoms: C_1  and  O_2
REMARK    2  A    between atoms: O_2  and  C_3
REMARK    3  A    between atoms: C_6  and  C_11
REMARK    4  A    between atoms: C_8  and  O_9
REMARK    5  A    between atoms: O_9  and  C_10
REMARK    6  A    between atoms: C_16  and  C_21
REMARK    7  A    between atoms: C_23  and  O_31
REMARK    8  A    between atoms: C_24  and  O_29
REMARK    9  A    between atoms: C_25  and  O_27
REMARK   10  A    between atoms: O_27  and  C_28
REMARK   11  A    between atoms: O_29  and  C_30
REMARK   12  A    between atoms: O_31  and  C_32
REMARK                            x       y       z     vdW  Elec       q    Type
REMARK                         _______ _______ _______ _____ _____    ______ ____
ROOT
ATOM      1  C   UNL     1      -1.118   7.126   1.853  0.00  0.00    +0.136 C 
ATOM      2  C   UNL     1       0.091   7.613   2.614  0.00  0.00    +0.036 C 
ATOM      3  C   UNL     1       1.094   8.355   2.110  0.00  0.00    +0.017 C 
ATOM      4  C   UNL     1       2.251   8.790   2.993  0.00  0.00    +0.059 C 
ATOM      5  C   UNL     1       2.519   7.733   4.063  0.00  0.00    +0.032 C 
ATOM      6  C   UNL     1       1.240   7.576   4.894  0.00  0.00    +0.088 C 
ATOM      7  C   UNL     1       0.114   7.217   3.972  0.00  0.00    +0.163 C 
ATOM      8  O   UNL     1      -0.814   6.562   4.406  0.00  0.00    -0.292 OA
ATOM      9  N   UNL     1       1.163   8.787   0.825  0.00  0.00    -0.316 N 
ATOM     10  C   UNL     1       0.925   7.999  -0.295  0.00  0.00    +0.052 A 
ATOM     11  C   UNL     1       1.899   7.753  -1.247  0.00  0.00    +0.025 A 
ATOM     12  C   UNL     1       1.563   7.058  -2.396  0.00  0.00    +0.002 A 
ATOM     13  C   UNL     1       0.268   6.614  -2.590  0.00  0.00    +0.002 A 
ATOM     14  C   UNL     1      -0.702   6.840  -1.628  0.00  0.00    +0.025 A 
ATOM     15  C   UNL     1      -0.364   7.519  -0.469  0.00  0.00    +0.049 A 
ATOM     16  N   UNL     1      -1.293   7.730   0.549  0.00  0.00    -0.331 N 
ATOM     17  H   UNL     1       1.425   9.834   0.610  0.00  0.00    +0.152 HD
ATOM     18  H   UNL     1      -2.169   8.365   0.350  0.00  0.00    +0.147 HD
ENDROOT
BRANCH   1  22
ATOM     19  C   UNL     1      -0.785   2.893   1.348  0.00  0.00    +0.162 A 
ATOM     20  C   UNL     1       0.130   3.740   0.744  0.00  0.00    +0.050 A 
ATOM     21  C   UNL     1       0.020   5.108   0.909  0.00  0.00    +0.009 A 
ATOM     22  C   UNL     1      -1.003   5.634   1.677  0.00  0.00    -0.019 A 
ATOM     23  C   UNL     1      -1.919   4.795   2.282  0.00  0.00    +0.055 A 
ATOM     24  C   UNL     1      -1.818   3.423   2.115  0.00  0.00    +0.162 A 
BRANCH  19  26
ATOM     25  C   UNL     1       0.403   1.074   0.380  0.00  0.00    +0.277 C 
ATOM     26  O   UNL     1      -0.678   1.547   1.186  0.00  0.00    -0.491 OA
ENDBRANCH  19  26
BRANCH  24  27
ATOM     27  O   UNL     1      -2.722   2.596   2.705  0.00  0.00    -0.491 OA
ATOM     28  C   UNL     1      -3.755   3.210   3.478  0.00  0.00    +0.277 C 
ENDBRANCH  24  27
ENDBRANCH   1  22
BRANCH   5  29
ATOM     29  C   UNL     1       3.653   8.180   4.949  0.00  0.00    -0.036 A 
ATOM     30  C   UNL     1       3.546   9.359   5.663  0.00  0.00    +0.053 A 
ATOM     31  C   UNL     1       4.585   9.770   6.485  0.00  0.00    +0.165 A 
ATOM     32  C   UNL     1       5.739   9.001   6.580  0.00  0.00    +0.204 A 
ATOM     33  C   UNL     1       5.844   7.819   5.857  0.00  0.00    +0.165 A 
ATOM     34  C   UNL     1       4.798   7.412   5.042  0.00  0.00    +0.053 A 
BRANCH  33  35
ATOM     35  O   UNL     1       6.971   7.064   5.948  0.00  0.00    -0.491 OA
ATOM     36  C   UNL     1       7.010   5.861   5.176  0.00  0.00    +0.277 C 
ENDBRANCH  33  35
BRANCH  32  37
ATOM     37  O   UNL     1       6.763   9.405   7.381  0.00  0.00    -0.488 OA
ATOM     38  C   UNL     1       7.760  10.239   6.789  0.00  0.00    +0.277 C 
ENDBRANCH  32  37
BRANCH  31  39
ATOM     39  O   UNL     1       4.477  10.928   7.191  0.00  0.00    -0.491 OA
ATOM     40  C   UNL     1       3.263  11.666   7.043  0.00  0.00    +0.277 C 
ENDBRANCH  31  39
ENDBRANCH   5  29
TORSDOF 7
