REMARK  Name = ZINC36598981
REMARK  17 active torsions:
REMARK  status: ('A' for Active; 'I' for Inactive)
REMARK    1  A    between atoms: C_1  and  C_2
REMARK    2  A    between atoms: C_5  and  C_8
REMARK    3  A    between atoms: C_8  and  C_10
REMARK    4  A    between atoms: C_8  and  N_21
REMARK    5  A    between atoms: N_12  and  C_13
REMARK    6  A    between atoms: C_13  and  C_14
REMARK    7  A    between atoms: C_13  and  C_15
REMARK    8  A    between atoms: C_13  and  C_16
REMARK    9  A    between atoms: C_16  and  C_17
REMARK   10  A    between atoms: C_17  and  C_18
REMARK   11  A    between atoms: C_17  and  C_19
REMARK   12  A    between atoms: C_17  and  C_20
REMARK   13  A    between atoms: N_21  and  C_22
REMARK   14  A    between atoms: C_22  and  C_23
REMARK   15  A    between atoms: C_26  and  C_28
REMARK   16  A    between atoms: C_29  and  C_31
REMARK   17  A    between atoms: C_31  and  C_32
REMARK                            x       y       z     vdW  Elec       q    Type
REMARK                         _______ _______ _______ _____ _____    ______ ____
ROOT
ATOM      1  C   UNL     1      -0.675  -6.318  -1.655  0.00  0.00    +0.193 C 
ENDROOT
BRANCH   1   6
ATOM      2  C   UNL     1      -0.750  -2.020   2.207  0.00  0.00    +0.044 C 
ATOM      3  C   UNL     1      -0.731  -3.141   1.200  0.00  0.00    -0.050 A 
ATOM      4  C   UNL     1      -0.779  -2.857  -0.152  0.00  0.00    +0.004 A 
ATOM      5  C   UNL     1      -0.761  -3.885  -1.076  0.00  0.00    +0.006 A 
ATOM      6  C   UNL     1      -0.694  -5.197  -0.648  0.00  0.00    -0.018 A 
ATOM      7  C   UNL     1      -0.645  -5.482   0.704  0.00  0.00    +0.006 A 
ATOM      8  C   UNL     1      -0.659  -4.454   1.628  0.00  0.00    +0.004 A 
ENDBRANCH   1   6
BRANCH   1   9
ATOM      9  C   UNL     1      -2.004  -7.030  -1.639  0.00  0.00    +0.239 C 
ATOM     10  O   UNL     1      -2.060  -8.203  -1.338  0.00  0.00    -0.273 OA
ATOM     11  N   UNL     1      -3.130  -6.362  -1.961  0.00  0.00    -0.308 N 
ATOM     12  H   UNL     1      -3.085  -5.423  -2.202  0.00  0.00    +0.149 HD
BRANCH  11  13
ATOM     13  C   UNL     1      -4.421  -7.053  -1.946  0.00  0.00    +0.030 C 
ATOM     14  C   UNL     1      -4.317  -8.345  -2.760  0.00  0.00    +0.031 C 
ATOM     15  C   UNL     1      -4.803  -7.389  -0.503  0.00  0.00    +0.031 C 
BRANCH  13  16
ATOM     16  C   UNL     1      -5.491  -6.148  -2.559  0.00  0.00    +0.031 C 
BRANCH  16  17
ATOM     17  C   UNL     1      -5.356  -4.737  -1.984  0.00  0.00    -0.036 C 
ATOM     18  C   UNL     1      -4.115  -4.063  -2.573  0.00  0.00    +0.010 C 
ATOM     19  C   UNL     1      -6.599  -3.919  -2.342  0.00  0.00    +0.010 C 
ATOM     20  C   UNL     1      -5.220  -4.817  -0.463  0.00  0.00    +0.010 C 
ENDBRANCH  16  17
ENDBRANCH  13  16
ENDBRANCH  11  13
ENDBRANCH   1   9
BRANCH   1  21
ATOM     21  N   UNL     1       0.389  -7.265  -1.312  0.00  0.00    -0.278 N 
ATOM     22  C   UNL     1       1.676  -6.950  -1.561  0.00  0.00    +0.221 C 
ATOM     23  O   UNL     1       1.953  -5.883  -2.067  0.00  0.00    -0.275 OA
BRANCH  21  24
ATOM     24  C   UNL     1       0.055  -8.553  -0.701  0.00  0.00    +0.183 C 
BRANCH  24  25
ATOM     25  C   UNL     1      -0.154  -9.583  -1.780  0.00  0.00    +0.122 A 
ATOM     26  C   UNL     1       0.814 -10.285  -2.397  0.00  0.00    +0.046 A 
ATOM     27  C   UNL     1       0.175 -11.130  -3.333  0.00  0.00    +0.045 A 
ATOM     28  C   UNL     1      -1.145 -10.894  -3.233  0.00  0.00    +0.102 A 
ATOM     29  O   UNL     1      -1.339  -9.960  -2.287  0.00  0.00    -0.463 OA
ATOM     30  C   UNL     1      -2.224 -11.567  -4.041  0.00  0.00    +0.086 C 
ENDBRANCH  24  25
ENDBRANCH  21  24
BRANCH  22  31
ATOM     31  C   UNL     1       2.771  -7.923  -1.208  0.00  0.00    +0.131 C 
BRANCH  31  32
ATOM     32  C   UNL     1       4.107  -7.335  -1.585  0.00  0.00    -0.035 A 
ATOM     33  C   UNL     1       4.626  -7.555  -2.847  0.00  0.00    +0.008 A 
ATOM     34  C   UNL     1       5.850  -7.016  -3.197  0.00  0.00    +0.050 A 
ATOM     35  C   UNL     1       6.560  -6.255  -2.283  0.00  0.00    +0.166 A 
ATOM     36  C   UNL     1       6.037  -6.034  -1.011  0.00  0.00    +0.166 A 
ATOM     37  C   UNL     1       4.807  -6.572  -0.669  0.00  0.00    +0.053 A 
ATOM     38  O   UNL     1       6.916  -5.264  -0.305  0.00  0.00    -0.453 OA
ATOM     39  C   UNL     1       8.165  -5.357  -1.016  0.00  0.00    +0.466 C 
ATOM     40  O   UNL     1       7.767  -5.624  -2.374  0.00  0.00    -0.453 OA
ENDBRANCH  31  32
ENDBRANCH  22  31
ENDBRANCH   1  21
TORSDOF 10
