REMARK  Name = ZINC09678723
REMARK  11 active torsions:
REMARK  status: ('A' for Active; 'I' for Inactive)
REMARK    1  A    between atoms: C_1  and  C_2
REMARK    2  A    between atoms: C_2  and  C_3
REMARK    3  A    between atoms: C_3  and  C_5
REMARK    4  A    between atoms: C_3  and  C_6
REMARK    5  A    between atoms: C_9  and  O_12
REMARK    6  A    between atoms: O_12  and  C_13
REMARK    7  A    between atoms: C_13  and  C_14
REMARK    8  A    between atoms: C_14  and  O_15
REMARK    9  A    between atoms: O_15  and  C_16
REMARK   10  A    between atoms: C_20  and  C_22
REMARK   11  A    between atoms: N_29  and  C_32
REMARK                            x       y       z     vdW  Elec       q    Type
REMARK                         _______ _______ _______ _____ _____    ______ ____
ROOT
ATOM      1  C   UNL     1      -1.449  -4.245   1.624  0.00  0.00    +0.121 A 
ATOM      2  C   UNL     1      -0.668  -4.657   0.551  0.00  0.00    +0.045 A 
ATOM      3  C   UNL     1       0.413  -5.496   0.755  0.00  0.00    +0.004 A 
ATOM      4  C   UNL     1       0.719  -5.939   2.024  0.00  0.00    +0.008 A 
ATOM      5  C   UNL     1      -0.065  -5.535   3.113  0.00  0.00    -0.021 A 
ATOM      6  C   UNL     1      -1.155  -4.681   2.903  0.00  0.00    +0.053 A 
ENDROOT
BRANCH   5   7
ATOM      7  C   UNL     1       0.255  -6.003   4.465  0.00  0.00    +0.026 C 
ATOM      8  C   UNL     1       0.513  -7.339   4.690  0.00  0.00    +0.100 C 
ATOM      9  C   UNL     1       0.247  -8.361   3.656  0.00  0.00    +0.257 C 
ATOM     10  O   UNL     1      -0.208  -8.049   2.572  0.00  0.00    -0.270 OA
ATOM     11  N   UNL     1       0.530  -9.647   3.946  0.00  0.00    -0.235 N 
ATOM     12  C   UNL     1       1.027 -10.005   5.138  0.00  0.00    +0.320 C 
ATOM     13  O   UNL     1       1.254 -11.182   5.335  0.00  0.00    -0.251 OA
ATOM     14  N   UNL     1       1.287  -9.135   6.123  0.00  0.00    -0.190 N 
ATOM     15  C   UNL     1       1.061  -7.813   5.977  0.00  0.00    +0.263 C 
ATOM     16  O   UNL     1       1.301  -7.034   6.880  0.00  0.00    -0.269 OA
ATOM     17  H   UNL     1       0.365 -10.331   3.277  0.00  0.00    +0.159 HD
BRANCH  14  18
ATOM     18  C   UNL     1       1.807  -9.610   7.336  0.00  0.00    +0.046 A 
ATOM     19  C   UNL     1       3.180  -9.675   7.526  0.00  0.00    +0.025 A 
ATOM     20  C   UNL     1       3.689 -10.139   8.723  0.00  0.00    +0.022 A 
ATOM     21  C   UNL     1       2.832 -10.548   9.729  0.00  0.00    +0.041 A 
ATOM     22  C   UNL     1       1.462 -10.489   9.540  0.00  0.00    +0.022 A 
ATOM     23  C   UNL     1       0.948 -10.022   8.346  0.00  0.00    +0.025 A 
ATOM     24 CL   UNL     1       3.475 -11.136  11.230  0.00  0.00    -0.084 Cl
ENDBRANCH  14  18
ENDBRANCH   5   7
BRANCH   1  25
ATOM     25  O   UNL     1      -2.506  -3.416   1.415  0.00  0.00    -0.489 OA
BRANCH  25  26
ATOM     26  C   UNL     1      -2.751  -3.005   0.069  0.00  0.00    +0.270 C 
BRANCH  26  27
ATOM     27  C   UNL     1      -3.972  -2.082   0.033  0.00  0.00    +0.270 C 
BRANCH  27  28
ATOM     28  O   UNL     1      -3.682  -0.880   0.749  0.00  0.00    -0.489 OA
BRANCH  28  32
ATOM     29  C   UNL     1      -6.675   1.953   0.942  0.00  0.00    -0.044 A 
ATOM     30  C   UNL     1      -5.458   2.191   1.555  0.00  0.00    +0.007 A 
ATOM     31  C   UNL     1      -4.455   1.244   1.492  0.00  0.00    +0.046 A 
ATOM     32  C   UNL     1      -4.668   0.053   0.812  0.00  0.00    +0.121 A 
ATOM     33  C   UNL     1      -5.887  -0.181   0.194  0.00  0.00    +0.046 A 
ATOM     34  C   UNL     1      -6.890   0.767   0.264  0.00  0.00    +0.007 A 
BRANCH  29  35
ATOM     35  C   UNL     1      -7.768   2.987   1.013  0.00  0.00    +0.016 C 
ATOM     36  C   UNL     1      -8.142   3.432  -0.403  0.00  0.00    +0.012 C 
BRANCH  35  38
ATOM     37  C   UNL     1     -10.060   3.470   1.883  0.00  0.00    +0.004 C 
ATOM     38  C   UNL     1      -8.996   2.386   1.699  0.00  0.00    +0.004 C 
ENDBRANCH  35  38
ENDBRANCH  29  35
ENDBRANCH  28  32
ENDBRANCH  27  28
ENDBRANCH  26  27
ENDBRANCH  25  26
ENDBRANCH   1  25
TORSDOF 9
