REMARK  Name = ZINC46015620
REMARK  10 active torsions:
REMARK  status: ('A' for Active; 'I' for Inactive)
REMARK    1  A    between atoms: C_1  and  C_2
REMARK    2  A    between atoms: C_4  and  N_27
REMARK    3  A    between atoms: C_7  and  N_8
REMARK    4  A    between atoms: N_11  and  C_12
REMARK    5  A    between atoms: C_12  and  C_14
REMARK    6  A    between atoms: C_12  and  C_24
REMARK    7  A    between atoms: C_24  and  C_25
REMARK    8  A    between atoms: C_24  and  C_26
REMARK    9  A    between atoms: N_27  and  C_28
REMARK   10  A    between atoms: N_27  and  C_29
REMARK                            x       y       z     vdW  Elec       q    Type
REMARK                         _______ _______ _______ _____ _____    ______ ____
ROOT
ATOM      1  N   UNL     1      -0.070   0.285   2.450  0.00  0.00    -0.269 N 
ATOM      2  C   UNL     1       0.000  -0.256   3.682  0.00  0.00    +0.304 C 
ATOM      3  O   UNL     1       0.189  -1.450   3.812  0.00  0.00    -0.252 OA
ATOM      4  N   UNL     1      -0.138   0.526   4.771  0.00  0.00    -0.289 N 
ATOM      5  H   UNL     1      -0.165   1.245   2.346  0.00  0.00    +0.156 HD
ATOM      6  H   UNL     1      -0.288   1.479   4.667  0.00  0.00    +0.151 HD
ENDROOT
BRANCH   1  13
ATOM      7  C   UNL     1      -1.294   1.203   0.052  0.00  0.00    +0.046 C 
ATOM      8  C   UNL     1      -0.592  -0.129   0.127  0.00  0.00    -0.027 A 
ATOM      9  C   UNL     1      -0.525  -0.938  -0.990  0.00  0.00    +0.028 A 
ATOM     10  C   UNL     1       0.122  -2.164  -0.921  0.00  0.00    +0.030 A 
ATOM     11  C   UNL     1       0.702  -2.577   0.272  0.00  0.00    +0.025 A 
ATOM     12  C   UNL     1       0.635  -1.768   1.388  0.00  0.00    +0.025 A 
ATOM     13  C   UNL     1      -0.008  -0.539   1.317  0.00  0.00    +0.038 A 
BRANCH  10  14
ATOM     14  N   UNL     1       0.189  -2.985  -2.052  0.00  0.00    -0.336 N 
ATOM     15  C   UNL     1      -0.528  -2.609  -3.273  0.00  0.00    +0.129 C 
ATOM     16  C   UNL     1       0.976  -4.220  -2.016  0.00  0.00    +0.129 C 
ENDBRANCH  10  14
ENDBRANCH   1  13
BRANCH   4  17
ATOM     17  C   UNL     1      -0.061  -0.062   6.110  0.00  0.00    +0.143 C 
BRANCH  17  18
ATOM     18  C   UNL     1       0.367   0.993   7.098  0.00  0.00    +0.129 A 
ATOM     19  N   UNL     1       1.537   0.982   7.791  0.00  0.00    -0.340 N 
ATOM     20  H   UNL     1       2.231   0.307   7.737  0.00  0.00    +0.167 HD
ATOM     21  C   UNL     1       1.554   2.111   8.585  0.00  0.00    +0.066 A 
ATOM     22  C   UNL     1       2.460   2.640   9.495  0.00  0.00    +0.028 A 
ATOM     23  C   UNL     1       2.168   3.822  10.141  0.00  0.00    +0.002 A 
ATOM     24  C   UNL     1       0.975   4.486   9.888  0.00  0.00    +0.002 A 
ATOM     25  C   UNL     1       0.072   3.980   8.997  0.00  0.00    +0.030 A 
ATOM     26  C   UNL     1       0.347   2.783   8.330  0.00  0.00    +0.089 A 
ATOM     27  N   UNL     1      -0.327   2.049   7.408  0.00  0.00    -0.231 NA
ENDBRANCH  17  18
BRANCH  17  28
ATOM     28  C   UNL     1      -1.435  -0.606   6.508  0.00  0.00    +0.011 C 
ATOM     29  C   UNL     1      -1.869  -1.677   5.505  0.00  0.00    +0.009 C 
ATOM     30  C   UNL     1      -1.354  -1.221   7.907  0.00  0.00    +0.009 C 
ENDBRANCH  17  28
ENDBRANCH   4  17
TORSDOF 5
