REMARK  Name = ZINC00159821
REMARK  4 active torsions:
REMARK  status: ('A' for Active; 'I' for Inactive)
REMARK    1  A    between atoms: C_4  and  S_8
REMARK    2  A    between atoms: C_5  and  N_7
REMARK    3  A    between atoms: S_8  and  C_9
REMARK    4  A    between atoms: C_14  and  N_15
REMARK                            x       y       z     vdW  Elec       q    Type
REMARK                         _______ _______ _______ _____ _____    ______ ____
ROOT
ATOM      1  C   UNL     1      -1.003  -2.588  -0.152  0.00  0.00    +0.044 A 
ATOM      2  C   UNL     1      -1.067  -3.218  -1.389  0.00  0.00    +0.038 A 
ATOM      3  C   UNL     1      -0.664  -4.534  -1.514  0.00  0.00    +0.060 A 
ATOM      4  C   UNL     1      -0.207  -5.228  -0.406  0.00  0.00    +0.061 A 
ATOM      5  C   UNL     1      -0.149  -4.604   0.828  0.00  0.00    +0.055 A 
ATOM      6  C   UNL     1      -0.545  -3.287   0.958  0.00  0.00    +0.141 A 
ATOM      7 CL   UNL     1       0.292  -6.883  -0.565  0.00  0.00    -0.082 Cl
ATOM      8 CL   UNL     1      -0.737  -5.319  -3.060  0.00  0.00    -0.082 Cl
ENDROOT
BRANCH   6   9
ATOM      9  N   UNL     1      -0.482  -2.622   2.279  0.00  0.00    +0.058 N 
ATOM     10  O   UNL     1      -0.080  -3.235   3.252  0.00  0.00    -0.126 OA
ATOM     11  O   UNL     1      -0.832  -1.461   2.393  0.00  0.00    -0.126 OA
ENDBRANCH   6   9
BRANCH   1  12
ATOM     12  S   UNL     1      -1.510  -0.908   0.011  0.00  0.00    -0.085 S 
BRANCH  12  16
ATOM     13  C   UNL     1       2.388   1.398   0.210  0.00  0.00    +0.002 A 
ATOM     14  C   UNL     1       2.399   0.038  -0.038  0.00  0.00    +0.001 A 
ATOM     15  C   UNL     1       1.212  -0.668  -0.099  0.00  0.00    +0.017 A 
ATOM     16  C   UNL     1       0.005  -0.012   0.089  0.00  0.00    +0.033 A 
ATOM     17  C   UNL     1      -0.007   1.361   0.340  0.00  0.00    +0.038 A 
ATOM     18  C   UNL     1       1.189   2.060   0.399  0.00  0.00    +0.024 A 
BRANCH  17  19
ATOM     19  N   UNL     1      -1.222   2.030   0.525  0.00  0.00    -0.357 N 
ATOM     20  H   UNL     1      -2.058   1.540   0.479  0.00  0.00    +0.142 HD
ATOM     21  H   UNL     1      -1.228   2.985   0.699  0.00  0.00    +0.142 HD
ENDBRANCH  17  19
ENDBRANCH  12  16
ENDBRANCH   1  12
TORSDOF 4
