REMARK  Name = ZINC13739141
REMARK  7 active torsions:
REMARK  status: ('A' for Active; 'I' for Inactive)
REMARK    1  A    between atoms: C_4  and  C_7
REMARK    2  A    between atoms: C_7  and  C_9
REMARK    3  A    between atoms: N_12  and  C_15
REMARK    4  A    between atoms: C_16  and  C_22
REMARK    5  A    between atoms: N_23  and  N_24
REMARK    6  A    between atoms: C_25  and  C_27
REMARK    7  A    between atoms: C_32  and  O_33
REMARK                            x       y       z     vdW  Elec       q    Type
REMARK                         _______ _______ _______ _____ _____    ______ ____
ROOT
ATOM      1  C   UNL     1       7.200   4.007   0.361  0.00  0.00    +0.134 A 
ATOM      2  C   UNL     1       7.168   5.373   0.584  0.00  0.00    +0.078 A 
ATOM      3  S   UNL     1       8.909   5.769   0.629  0.00  0.00    -0.024 S 
ATOM      4  C   UNL     1       9.545   4.123   0.355  0.00  0.00    +0.290 A 
ATOM      5  O   UNL     1      10.702   3.752   0.283  0.00  0.00    -0.260 OA
ATOM      6  N   UNL     1       8.411   3.393   0.254  0.00  0.00    -0.302 N 
ATOM      7  H   UNL     1       8.460   2.436   0.102  0.00  0.00    +0.171 HD
ENDROOT
BRANCH   1  11
ATOM      8  C   UNL     1       3.730   1.857   0.050  0.00  0.00    +0.025 A 
ATOM      9  C   UNL     1       4.769   1.428   0.889  0.00  0.00    +0.030 A 
ATOM     10  C   UNL     1       5.913   2.170   0.961  0.00  0.00    +0.093 A 
ATOM     11  N   UNL     1       6.044   3.291   0.258  0.00  0.00    -0.308 N 
ATOM     12  C   UNL     1       5.079   3.734  -0.544  0.00  0.00    +0.093 A 
ATOM     13  C   UNL     1       3.907   3.046  -0.675  0.00  0.00    +0.030 A 
BRANCH   8  14
ATOM     14  C   UNL     1       2.479   1.082  -0.063  0.00  0.00    +0.193 C 
ATOM     15  O   UNL     1       1.424   1.655  -0.254  0.00  0.00    -0.287 OA
BRANCH  14  19
ATOM     16  C   UNL     1       2.566  -3.150   0.281  0.00  0.00    +0.000 A 
ATOM     17  C   UNL     1       1.352  -2.489   0.218  0.00  0.00    +0.001 A 
ATOM     18  C   UNL     1       1.316  -1.115   0.101  0.00  0.00    +0.012 A 
ATOM     19  C   UNL     1       2.509  -0.390   0.056  0.00  0.00    +0.022 A 
ATOM     20  C   UNL     1       3.731  -1.064   0.125  0.00  0.00    +0.012 A 
ATOM     21  C   UNL     1       3.752  -2.438   0.237  0.00  0.00    +0.001 A 
ENDBRANCH  14  19
ENDBRANCH   8  14
ENDBRANCH   1  11
BRANCH   2  22
ATOM     22  C   UNL     1       6.014   6.259   0.739  0.00  0.00    +0.149 C 
ATOM     23  N   UNL     1       6.192   7.515   1.033  0.00  0.00    -0.187 NA
BRANCH  23  24
ATOM     24  N   UNL     1       5.087   8.363   1.181  0.00  0.00    -0.203 N 
ATOM     25  C   UNL     1       5.271   9.663   1.486  0.00  0.00    +0.267 C 
ATOM     26  O   UNL     1       6.397  10.100   1.631  0.00  0.00    -0.268 OA
ATOM     27  H   UNL     1       4.189   8.014   1.065  0.00  0.00    +0.178 HD
BRANCH  25  28
ATOM     28  C   UNL     1       4.108  10.556   1.642  0.00  0.00    +0.080 A 
ATOM     29  C   UNL     1       2.813  10.059   1.470  0.00  0.00    +0.017 A 
ATOM     30  C   UNL     1       1.730  10.897   1.623  0.00  0.00    +0.001 A 
ATOM     31  C   UNL     1       1.919  12.234   1.936  0.00  0.00    +0.004 A 
ATOM     32  C   UNL     1       3.193  12.739   2.103  0.00  0.00    +0.046 A 
ATOM     33  C   UNL     1       4.295  11.908   1.958  0.00  0.00    +0.129 A 
BRANCH  33  34
ATOM     34  O   UNL     1       5.547  12.403   2.122  0.00  0.00    -0.506 OA
ATOM     35  H   UNL     1       5.945  12.743   1.308  0.00  0.00    +0.292 HD
ENDBRANCH  33  34
ENDBRANCH  25  28
ENDBRANCH  23  24
ENDBRANCH   2  22
TORSDOF 7
