REMARK  Name = ZINC12833284
REMARK  12 active torsions:
REMARK  status: ('A' for Active; 'I' for Inactive)
REMARK    1  A    between atoms: C_1  and  C_2
REMARK    2  A    between atoms: C_4  and  C_36
REMARK    3  A    between atoms: C_7  and  C_14
REMARK    4  A    between atoms: C_14  and  N_64
REMARK    5  A    between atoms: C_15  and  C_16
REMARK    6  A    between atoms: C_15  and  N_64
REMARK    7  A    between atoms: C_21  and  C_22
REMARK    8  A    between atoms: C_21  and  N_64
REMARK    9  A    between atoms: N_26  and  C_27
REMARK   10  A    between atoms: C_27  and  C_28
REMARK   11  A    between atoms: C_31  and  O_34
REMARK   12  A    between atoms: O_34  and  C_35
REMARK                            x       y       z     vdW  Elec       q    Type
REMARK                         _______ _______ _______ _____ _____    ______ ____
ROOT
ATOM      1  N   UNL     1       1.733  -2.777  -1.536  0.00  0.00    +0.392 N 
ATOM      2  H   UNL     1       0.955  -2.603  -2.184  0.00  0.00    -0.080 HD
ENDROOT
BRANCH   1   3
ATOM      3  C   UNL     1       1.800  -4.224  -1.244  0.00  0.00    -0.036 C 
BRANCH   3  10
ATOM      4  C   UNL     1      -5.602  -7.196  -1.164  0.00  0.00    +0.044 C 
ATOM      5  C   UNL     1      -4.203  -6.690  -1.406  0.00  0.00    -0.048 A 
ATOM      6  C   UNL     1      -3.650  -6.780  -2.677  0.00  0.00    +0.007 A 
ATOM      7  C   UNL     1      -2.384  -6.327  -2.918  0.00  0.00    -0.041 A 
ATOM      8  C   UNL     1      -1.637  -5.769  -1.875  0.00  0.00    +0.002 A 
ATOM      9  C   UNL     1      -0.279  -5.269  -2.099  0.00  0.00    +0.017 A 
ATOM     10  C   UNL     1       0.399  -4.743  -1.049  0.00  0.00    +0.001 A 
ATOM     11  C   UNL     1      -0.206  -4.674   0.225  0.00  0.00    +0.251 A 
ATOM     12  O   UNL     1       0.419  -4.192   1.153  0.00  0.00    -0.268 OA
ATOM     13  N   UNL     1      -1.454  -5.125   0.439  0.00  0.00    -0.322 N 
ATOM     14  H   UNL     1      -1.839  -5.062   1.327  0.00  0.00    +0.169 HD
ATOM     15  C   UNL     1      -2.194  -5.676  -0.586  0.00  0.00    +0.050 A 
ATOM     16  C   UNL     1      -3.486  -6.143  -0.364  0.00  0.00    +0.029 A 
ATOM     17  C   UNL     1      -1.794  -6.429  -4.301  0.00  0.00    +0.044 C 
ENDBRANCH   3  10
ENDBRANCH   1   3
BRANCH   1  18
ATOM     18  C   UNL     1       2.993  -2.329  -2.167  0.00  0.00    -0.002 C 
BRANCH  18  19
ATOM     19  C   UNL     1       3.032  -2.840  -3.584  0.00  0.00    +0.089 A 
ATOM     20  C   UNL     1       2.625  -2.166  -4.675  0.00  0.00    +0.042 A 
ATOM     21  C   UNL     1       2.841  -3.014  -5.785  0.00  0.00    +0.041 A 
ATOM     22  C   UNL     1       3.367  -4.156  -5.306  0.00  0.00    +0.195 A 
ATOM     23  O   UNL     1       3.486  -4.043  -3.973  0.00  0.00    -0.470 OA
ENDBRANCH  18  19
ENDBRANCH   1  18
BRANCH   1  24
ATOM     24  C   UNL     1       1.496  -2.020  -0.289  0.00  0.00    +0.001 C 
BRANCH  24  25
ATOM     25  C   UNL     1       1.287  -0.568  -0.632  0.00  0.00    +0.135 A 
ATOM     26  N   UNL     1       2.218   0.341  -0.790  0.00  0.00    -0.115 NA
ATOM     27  N   UNL     1       1.641   1.456  -1.076  0.00  0.00    -0.023 NA
ATOM     28  N   UNL     1       0.365   1.283  -1.105  0.00  0.00    -0.044 NA
ATOM     29  N   UNL     1       0.107   0.048  -0.835  0.00  0.00    -0.227 N 
BRANCH  29  30
ATOM     30  C   UNL     1      -1.220  -0.568  -0.765  0.00  0.00    +0.182 C 
BRANCH  30  31
ATOM     31  C   UNL     1      -1.679  -0.932  -2.153  0.00  0.00    -0.026 A 
ATOM     32  C   UNL     1      -2.309   0.013  -2.942  0.00  0.00    +0.009 A 
ATOM     33  C   UNL     1      -2.726  -0.316  -4.217  0.00  0.00    +0.046 A 
ATOM     34  C   UNL     1      -2.523  -1.599  -4.702  0.00  0.00    +0.120 A 
ATOM     35  C   UNL     1      -1.895  -2.548  -3.907  0.00  0.00    +0.046 A 
ATOM     36  C   UNL     1      -1.475  -2.212  -2.635  0.00  0.00    +0.009 A 
BRANCH  34  37
ATOM     37  O   UNL     1      -2.937  -1.927  -5.954  0.00  0.00    -0.495 OA
ATOM     38  C   UNL     1      -3.575  -0.900  -6.716  0.00  0.00    +0.277 C 
ENDBRANCH  34  37
ENDBRANCH  30  31
ENDBRANCH  29  30
ENDBRANCH  24  25
ENDBRANCH   1  24
TORSDOF 9
