REMARK  Name = ZINC10580311
REMARK  8 active torsions:
REMARK  status: ('A' for Active; 'I' for Inactive)
REMARK    1  A    between atoms: C_1  and  C_2
REMARK    2  A    between atoms: C_2  and  C_3
REMARK    3  A    between atoms: C_3  and  N_4
REMARK    4  A    between atoms: C_13  and  S_14
REMARK    5  A    between atoms: S_14  and  C_15
REMARK    6  A    between atoms: C_15  and  C_17
REMARK    7  A    between atoms: C_15  and  C_18
REMARK    8  A    between atoms: N_23  and  C_24
REMARK                            x       y       z     vdW  Elec       q    Type
REMARK                         _______ _______ _______ _____ _____    ______ ____
ROOT
ATOM      1  S   UNL     1      -6.131   1.014  -1.097  0.00  0.00    -0.075 S 
ENDROOT
BRANCH   1  11
ATOM      2  N   UNL     1      -8.548  -0.130  -1.534  0.00  0.00    -0.287 N 
ATOM      3  C   UNL     1      -9.483  -1.094  -1.445  0.00  0.00    +0.263 A 
ATOM      4  O   UNL     1     -10.571  -0.953  -1.978  0.00  0.00    -0.267 OA
ATOM      5  C   UNL     1      -9.183  -2.284  -0.710  0.00  0.00    +0.076 A 
ATOM      6  C   UNL     1     -10.051  -3.451  -0.483  0.00  0.00    -0.023 A 
ATOM      7  C   UNL     1      -9.539  -4.457   0.243  0.00  0.00    -0.004 A 
ATOM      8  S   UNL     1      -7.896  -3.926   0.670  0.00  0.00    -0.073 S 
ATOM      9  C   UNL     1      -7.905  -2.347  -0.137  0.00  0.00    +0.117 A 
ATOM     10  N   UNL     1      -7.024  -1.362  -0.265  0.00  0.00    -0.216 NA
ATOM     11  C   UNL     1      -7.324  -0.275  -0.947  0.00  0.00    +0.173 A 
ATOM     12  C   UNL     1     -10.512  -5.594   0.406  0.00  0.00    +0.043 C 
ATOM     13  C   UNL     1     -11.575  -5.353  -0.688  0.00  0.00    +0.010 C 
ATOM     14  C   UNL     1     -11.479  -3.828  -0.888  0.00  0.00    +0.037 C 
BRANCH   2  15
ATOM     15  C   UNL     1      -8.847   1.096  -2.279  0.00  0.00    +0.127 C 
BRANCH  15  17
ATOM     16  C   UNL     1      -8.758   2.192  -4.522  0.00  0.00    +0.005 C 
ATOM     17  C   UNL     1      -8.445   0.913  -3.744  0.00  0.00    +0.018 C 
ENDBRANCH  15  17
ENDBRANCH   2  15
ENDBRANCH   1  11
BRANCH   1  18
ATOM     18  C   UNL     1      -4.768   0.292  -0.150  0.00  0.00    +0.137 C 
ATOM     19  C   UNL     1      -5.185   0.148   1.315  0.00  0.00    +0.029 C 
BRANCH  18  20
ATOM     20  C   UNL     1      -3.561   1.189  -0.243  0.00  0.00    +0.234 C 
ATOM     21  O   UNL     1      -3.701   2.372  -0.468  0.00  0.00    -0.274 OA
ATOM     22  N   UNL     1      -2.326   0.676  -0.076  0.00  0.00    -0.239 N 
ATOM     23  C   UNL     1      -1.246   1.478  -0.160  0.00  0.00    +0.310 C 
ATOM     24  O   UNL     1      -1.387   2.664  -0.385  0.00  0.00    -0.252 OA
ATOM     25  N   UNL     1      -0.011   0.966   0.007  0.00  0.00    -0.269 N 
ATOM     26  H   UNL     1      -2.199  -0.397   0.128  0.00  0.00    +0.159 HD
ATOM     27  H   UNL     1       0.122  -0.119   0.128  0.00  0.00    +0.156 HD
BRANCH  25  28
ATOM     28  C   UNL     1       1.102   1.814   0.027  0.00  0.00    +0.035 A 
ATOM     29  C   UNL     1       2.319   1.376  -0.477  0.00  0.00    +0.023 A 
ATOM     30  C   UNL     1       3.415   2.217  -0.459  0.00  0.00    +0.002 A 
ATOM     31  C   UNL     1       3.302   3.491   0.068  0.00  0.00    +0.000 A 
ATOM     32  C   UNL     1       2.092   3.928   0.576  0.00  0.00    +0.002 A 
ATOM     33  C   UNL     1       0.992   3.093   0.557  0.00  0.00    +0.023 A 
ENDBRANCH  25  28
ENDBRANCH  18  20
ENDBRANCH   1  18
TORSDOF 6
