REMARK  Name = ZINC43551819
REMARK  11 active torsions:
REMARK  status: ('A' for Active; 'I' for Inactive)
REMARK    1  A    between atoms: C_1  and  C_2
REMARK    2  A    between atoms: C_2  and  C_3
REMARK    3  A    between atoms: C_3  and  C_4
REMARK    4  A    between atoms: C_4  and  C_5
REMARK    5  A    between atoms: C_5  and  C_6
REMARK    6  A    between atoms: C_9  and  N_12
REMARK    7  A    between atoms: N_15  and  C_16
REMARK    8  A    between atoms: C_16  and  C_18
REMARK    9  A    between atoms: C_16  and  C_19
REMARK   10  A    between atoms: C_23  and  S_25
REMARK   11  A    between atoms: S_25  and  N_28
REMARK                            x       y       z     vdW  Elec       q    Type
REMARK                         _______ _______ _______ _____ _____    ______ ____
ROOT
ATOM      1  N   UNL     1       1.532  -8.193  -2.556  0.00  0.00    -0.269 N 
ATOM      2  C   UNL     1       0.481  -8.879  -3.048  0.00  0.00    +0.304 C 
ATOM      3  O   UNL     1      -0.443  -8.284  -3.567  0.00  0.00    -0.252 OA
ATOM      4  N   UNL     1       0.455 -10.224  -2.964  0.00  0.00    -0.293 N 
ATOM      5  H   UNL     1       2.300  -8.670  -2.202  0.00  0.00    +0.156 HD
ATOM      6  H   UNL     1       1.193 -10.698  -2.550  0.00  0.00    +0.151 HD
ENDROOT
BRANCH   1  10
ATOM      7  C   UNL     1       1.484  -4.027  -2.553  0.00  0.00    -0.047 A 
ATOM      8  C   UNL     1       0.893  -4.723  -3.591  0.00  0.00    +0.005 A 
ATOM      9  C   UNL     1       0.908  -6.104  -3.595  0.00  0.00    +0.023 A 
ATOM     10  C   UNL     1       1.516  -6.794  -2.555  0.00  0.00    +0.035 A 
ATOM     11  C   UNL     1       2.109  -6.092  -1.513  0.00  0.00    +0.023 A 
ATOM     12  C   UNL     1       2.096  -4.711  -1.518  0.00  0.00    +0.005 A 
BRANCH   7  13
ATOM     13  C   UNL     1       1.467  -2.521  -2.552  0.00  0.00    +0.035 C 
BRANCH  13  14
ATOM     14  C   UNL     1       2.707  -1.996  -3.278  0.00  0.00    +0.005 C 
BRANCH  14  15
ATOM     15  C   UNL     1       2.689  -0.466  -3.277  0.00  0.00    +0.000 C 
BRANCH  15  17
ATOM     16  C   UNL     1       3.911   1.589  -4.003  0.00  0.00    +0.004 C 
ATOM     17  C   UNL     1       3.929   0.059  -4.004  0.00  0.00    -0.003 C 
ENDBRANCH  15  17
ENDBRANCH  14  15
ENDBRANCH  13  14
ENDBRANCH   7  13
ENDBRANCH   1  10
BRANCH   4  18
ATOM     18  C   UNL     1      -0.687 -10.969  -3.499  0.00  0.00    +0.102 C 
ATOM     19  C   UNL     1      -1.795 -11.028  -2.446  0.00  0.00    +0.033 C 
BRANCH  18  20
ATOM     20  C   UNL     1      -0.253 -12.369  -3.851  0.00  0.00    -0.026 A 
ATOM     21  C   UNL     1       0.613 -13.054  -3.020  0.00  0.00    +0.005 A 
ATOM     22  C   UNL     1       1.011 -14.337  -3.343  0.00  0.00    +0.002 A 
ATOM     23  C   UNL     1       0.542 -14.936  -4.497  0.00  0.00    +0.028 A 
ATOM     24  C   UNL     1      -0.325 -14.252  -5.328  0.00  0.00    +0.105 A 
ATOM     25  C   UNL     1      -0.727 -12.970  -5.002  0.00  0.00    +0.034 A 
BRANCH  24  26
ATOM     26  S   UNL     1      -0.923 -15.015  -6.799  0.00  0.00    +0.056 S 
ATOM     27  O   UNL     1      -1.290 -13.964  -7.681  0.00  0.00    -0.153 OA
ATOM     28  O   UNL     1       0.026 -16.011  -7.154  0.00  0.00    -0.153 OA
BRANCH  26  29
ATOM     29  N   UNL     1      -2.320 -15.812  -6.404  0.00  0.00    -0.204 NA
ATOM     30  H   UNL     1      -3.019 -15.922  -7.067  0.00  0.00    +0.144 HD
ATOM     31  H   UNL     1      -2.439 -16.169  -5.510  0.00  0.00    +0.144 HD
ENDBRANCH  26  29
ENDBRANCH  24  26
ENDBRANCH  18  20
ENDBRANCH   4  18
TORSDOF 9
