REMARK  Name = ZINC12706185
REMARK  12 active torsions:
REMARK  status: ('A' for Active; 'I' for Inactive)
REMARK    1  A    between atoms: C_1  and  C_2
REMARK    2  A    between atoms: C_5  and  C_8
REMARK    3  A    between atoms: C_8  and  C_10
REMARK    4  A    between atoms: C_8  and  N_20
REMARK    5  A    between atoms: N_12  and  C_13
REMARK    6  A    between atoms: C_13  and  C_14
REMARK    7  A    between atoms: N_20  and  C_21
REMARK    8  A    between atoms: C_24  and  C_28
REMARK    9  A    between atoms: C_26  and  C_27
REMARK   10  A    between atoms: C_29  and  C_31
REMARK   11  A    between atoms: C_32  and  N_39
REMARK   12  A    between atoms: C_33  and  C_36
REMARK                            x       y       z     vdW  Elec       q    Type
REMARK                         _______ _______ _______ _____ _____    ______ ____
ROOT
ATOM      1  N   UNL     1       3.586   3.281  -1.000  0.00  0.00    -0.251 N 
ATOM      2  C   UNL     1       4.690   3.974  -1.343  0.00  0.00    +0.262 C 
ATOM      3  O   UNL     1       5.762   3.701  -0.835  0.00  0.00    -0.269 OA
ENDROOT
BRANCH   1   4
ATOM      4  C   UNL     1       2.355   3.594  -1.583  0.00  0.00    +0.041 A 
ATOM      5  C   UNL     1       1.563   4.599  -1.041  0.00  0.00    +0.024 A 
ATOM      6  C   UNL     1       0.348   4.906  -1.619  0.00  0.00    +0.005 A 
ATOM      7  C   UNL     1      -0.082   4.215  -2.737  0.00  0.00    -0.050 A 
ATOM      8  C   UNL     1       0.703   3.215  -3.280  0.00  0.00    +0.008 A 
ATOM      9  C   UNL     1       1.922   2.905  -2.709  0.00  0.00    -0.029 A 
ATOM     10  C   UNL     1       2.780   1.819  -3.304  0.00  0.00    +0.045 C 
ATOM     11  C   UNL     1      -1.409   4.553  -3.366  0.00  0.00    +0.044 C 
ENDBRANCH   1   4
BRANCH   2  12
ATOM     12  C   UNL     1       4.600   5.055  -2.326  0.00  0.00    +0.116 A 
ATOM     13  C   UNL     1       5.605   5.889  -2.819  0.00  0.00    +0.076 A 
ATOM     14  C   UNL     1       5.126   6.808  -3.753  0.00  0.00    +0.155 A 
ATOM     15  N   UNL     1       3.849   6.802  -4.064  0.00  0.00    -0.203 NA
ATOM     16  S   UNL     1       3.180   5.652  -3.219  0.00  0.00    +0.019 S 
BRANCH  14  17
ATOM     17  C   UNL     1       6.043   7.774  -4.386  0.00  0.00    +0.262 C 
ATOM     18  O   UNL     1       7.223   7.773  -4.093  0.00  0.00    -0.269 OA
ATOM     19  N   UNL     1       5.572   8.658  -5.288  0.00  0.00    -0.324 N 
ATOM     20  H   UNL     1       4.631   8.659  -5.521  0.00  0.00    +0.145 HD
ATOM     21  H   UNL     1       6.176   9.293  -5.704  0.00  0.00    +0.145 HD
ENDBRANCH  14  17
BRANCH  13  22
ATOM     22  N   UNL     1       6.934   5.813  -2.423  0.00  0.00    -0.355 N 
ATOM     23  H   UNL     1       7.207   5.152  -1.768  0.00  0.00    +0.142 HD
ATOM     24  H   UNL     1       7.588   6.421  -2.801  0.00  0.00    +0.142 HD
ENDBRANCH  13  22
ENDBRANCH   2  12
BRANCH   1  25
ATOM     25  C   UNL     1       3.677   2.199  -0.016  0.00  0.00    +0.197 C 
BRANCH  25  30
ATOM     26  C   UNL     1      -1.419  -0.500   0.354  0.00  0.00    +0.044 C 
ATOM     27  C   UNL     1      -0.090   0.203   0.258  0.00  0.00    -0.050 A 
ATOM     28  C   UNL     1       0.007   1.544   0.581  0.00  0.00    +0.004 A 
ATOM     29  C   UNL     1       1.226   2.190   0.493  0.00  0.00    +0.006 A 
ATOM     30  C   UNL     1       2.348   1.495   0.080  0.00  0.00    -0.018 A 
ATOM     31  C   UNL     1       2.251   0.154  -0.241  0.00  0.00    +0.006 A 
ATOM     32  C   UNL     1       1.032  -0.491  -0.153  0.00  0.00    +0.004 A 
ENDBRANCH  25  30
BRANCH  25  33
ATOM     33  C   UNL     1       4.040   2.773   1.329  0.00  0.00    +0.239 C 
ATOM     34  O   UNL     1       4.207   3.967   1.454  0.00  0.00    -0.273 OA
ATOM     35  N   UNL     1       4.180   1.958   2.394  0.00  0.00    -0.311 N 
ATOM     36  H   UNL     1       4.046   1.002   2.294  0.00  0.00    +0.149 HD
BRANCH  35  37
ATOM     37  C   UNL     1       4.533   2.515   3.702  0.00  0.00    +0.135 C 
BRANCH  37  38
ATOM     38  C   UNL     1       4.628   1.386   4.729  0.00  0.00    +0.135 C 
ATOM     39  C   UNL     1       4.999   1.962   6.109  0.00  0.00    +0.035 C 
ATOM     40  C   UNL     1       3.831   1.528   7.029  0.00  0.00    +0.031 C 
ATOM     41  C   UNL     1       3.228   0.334   6.245  0.00  0.00    +0.160 C 
ATOM     42  O   UNL     1       3.350   0.741   4.865  0.00  0.00    -0.375 OA
ENDBRANCH  37  38
ENDBRANCH  35  37
ENDBRANCH  25  33
ENDBRANCH   1  25
TORSDOF 9
