REMARK  Name = ZINC58331306
REMARK  5 active torsions:
REMARK  status: ('A' for Active; 'I' for Inactive)
REMARK    1  A    between atoms: C_1  and  C_2
REMARK    2  A    between atoms: C_2  and  N_12
REMARK    3  A    between atoms: C_13  and  C_15
REMARK    4  A    between atoms: C_18  and  C_20
REMARK    5  A    between atoms: N_23  and  C_25
REMARK                            x       y       z     vdW  Elec       q    Type
REMARK                         _______ _______ _______ _____ _____    ______ ____
ROOT
ATOM      1  N   UNL     1      -1.374  -0.506   0.025  0.00  0.00    -0.301 N 
ATOM      2  C   UNL     1      -2.254  -0.103  -0.912  0.00  0.00    +0.264 C 
ATOM      3  O   UNL     1      -1.884   0.605  -1.830  0.00  0.00    -0.268 OA
ATOM      4  H   UNL     1      -1.651  -1.131   0.714  0.00  0.00    +0.150 HD
ENDROOT
BRANCH   1   6
ATOM      5  C   UNL     1      -0.024   1.529   0.024  0.00  0.00    +0.037 C 
ATOM      6  C   UNL     1       0.001  -0.000   0.005  0.00  0.00    +0.057 C 
ATOM      7  C   UNL     1       0.693  -0.477  -1.270  0.00  0.00    +0.030 C 
ATOM      8  C   UNL     1       0.902  -1.992  -1.170  0.00  0.00    +0.007 C 
ATOM      9  C   UNL     1       1.967  -2.262  -0.108  0.00  0.00    +0.035 C 
ATOM     10  C   UNL     1       1.632  -1.541   1.172  0.00  0.00    -0.042 A 
ATOM     11  C   UNL     1       0.732  -0.500   1.223  0.00  0.00    -0.021 A 
ATOM     12  C   UNL     1       0.473   0.126   2.435  0.00  0.00    +0.006 A 
ATOM     13  C   UNL     1       1.107  -0.289   3.588  0.00  0.00    +0.000 A 
ATOM     14  C   UNL     1       2.007  -1.337   3.538  0.00  0.00    +0.000 A 
ATOM     15  C   UNL     1       2.268  -1.959   2.334  0.00  0.00    +0.004 A 
ENDBRANCH   1   6
BRANCH   2  16
ATOM     16  C   UNL     1      -3.664  -0.519  -0.826  0.00  0.00    +0.133 A 
ATOM     17  C   UNL     1      -4.565  -0.120  -1.776  0.00  0.00    +0.080 A 
ATOM     18  S   UNL     1      -5.994  -0.834  -1.246  0.00  0.00    -0.075 S 
ATOM     19  C   UNL     1      -5.352  -1.637   0.212  0.00  0.00    +0.112 A 
ATOM     20  N   UNL     1      -4.078  -1.292   0.171  0.00  0.00    -0.234 NA
BRANCH  19  21
ATOM     21  C   UNL     1      -6.061  -2.474   1.204  0.00  0.00    +0.045 A 
ATOM     22  C   UNL     1      -5.492  -3.077   2.345  0.00  0.00    +0.145 A 
ATOM     23  N   UNL     1      -6.434  -3.732   2.970  0.00  0.00    -0.179 NA
ATOM     24  N   UNL     1      -7.631  -3.576   2.261  0.00  0.00    -0.274 N 
ATOM     25  C   UNL     1      -7.388  -2.800   1.187  0.00  0.00    +0.118 A 
ATOM     26  C   UNL     1      -8.927  -4.153   2.627  0.00  0.00    +0.172 C 
ENDBRANCH  19  21
ENDBRANCH   2  16
TORSDOF 3
