REMARK  Name = ZINC36555806
REMARK  18 active torsions:
REMARK  status: ('A' for Active; 'I' for Inactive)
REMARK    1  A    between atoms: C_1  and  C_2
REMARK    2  A    between atoms: C_5  and  C_7
REMARK    3  A    between atoms: C_7  and  N_8
REMARK    4  A    between atoms: N_8  and  C_9
REMARK    5  A    between atoms: C_9  and  C_11
REMARK    6  A    between atoms: C_9  and  C_20
REMARK    7  A    between atoms: C_12  and  O_19
REMARK    8  A    between atoms: C_14  and  O_18
REMARK    9  A    between atoms: C_16  and  O_17
REMARK   10  A    between atoms: N_22  and  C_23
REMARK   11  A    between atoms: C_23  and  C_24
REMARK   12  A    between atoms: C_23  and  C_25
REMARK   13  A    between atoms: C_23  and  C_26
REMARK   14  A    between atoms: C_26  and  C_27
REMARK   15  A    between atoms: C_27  and  C_28
REMARK   16  A    between atoms: C_27  and  C_29
REMARK   17  A    between atoms: C_27  and  C_30
REMARK   18  A    between atoms: C_31  and  C_33
REMARK                            x       y       z     vdW  Elec       q    Type
REMARK                         _______ _______ _______ _____ _____    ______ ____
ROOT
ATOM      1  C   UNL     1       4.331  -0.136  -2.543  0.00  0.00    +0.200 C 
ENDROOT
BRANCH   1   2
ATOM      2  C   UNL     1       4.489   1.244  -3.127  0.00  0.00    +0.065 A 
ATOM      3  C   UNL     1       4.124   2.357  -2.384  0.00  0.00    +0.129 A 
ATOM      4  C   UNL     1       4.269   3.627  -2.922  0.00  0.00    +0.091 A 
ATOM      5  C   UNL     1       4.781   3.784  -4.201  0.00  0.00    +0.124 A 
ATOM      6  C   UNL     1       5.147   2.671  -4.943  0.00  0.00    +0.091 A 
ATOM      7  C   UNL     1       5.005   1.401  -4.404  0.00  0.00    +0.129 A 
BRANCH   7   8
ATOM      8  O   UNL     1       5.368   0.311  -5.129  0.00  0.00    -0.506 OA
ATOM      9  H   UNL     1       4.657  -0.053  -5.675  0.00  0.00    +0.292 HD
ENDBRANCH   7   8
BRANCH   5  10
ATOM     10  O   UNL     1       4.923   5.029  -4.728  0.00  0.00    -0.507 OA
ATOM     11  H   UNL     1       5.781   5.436  -4.548  0.00  0.00    +0.292 HD
ENDBRANCH   5  10
BRANCH   3  12
ATOM     12  O   UNL     1       3.623   2.203  -1.131  0.00  0.00    -0.506 OA
ATOM     13  H   UNL     1       4.284   2.284  -0.430  0.00  0.00    +0.292 HD
ENDBRANCH   3  12
ENDBRANCH   1   2
BRANCH   1  14
ATOM     14  C   UNL     1       5.211  -0.271  -1.327  0.00  0.00    +0.239 C 
ATOM     15  O   UNL     1       4.719  -0.519  -0.247  0.00  0.00    -0.273 OA
ATOM     16  N   UNL     1       6.545  -0.117  -1.441  0.00  0.00    -0.308 N 
ATOM     17  H   UNL     1       6.939   0.081  -2.305  0.00  0.00    +0.149 HD
BRANCH  16  18
ATOM     18  C   UNL     1       7.401  -0.248  -0.259  0.00  0.00    +0.030 C 
ATOM     19  C   UNL     1       7.113   0.900   0.710  0.00  0.00    +0.031 C 
ATOM     20  C   UNL     1       7.114  -1.583   0.433  0.00  0.00    +0.031 C 
BRANCH  18  21
ATOM     21  C   UNL     1       8.870  -0.200  -0.685  0.00  0.00    +0.031 C 
BRANCH  21  22
ATOM     22  C   UNL     1       9.199  -1.440  -1.520  0.00  0.00    -0.036 C 
ATOM     23  C   UNL     1       8.028  -1.752  -2.453  0.00  0.00    +0.010 C 
ATOM     24  C   UNL     1      10.457  -1.175  -2.351  0.00  0.00    +0.010 C 
ATOM     25  C   UNL     1       9.443  -2.630  -0.591  0.00  0.00    +0.010 C 
ENDBRANCH  21  22
ENDBRANCH  18  21
ENDBRANCH  16  18
ENDBRANCH   1  14
BRANCH   1  26
ATOM     26  N   UNL     1       2.933  -0.347  -2.159  0.00  0.00    -0.278 N 
ATOM     27  C   UNL     1       2.549  -1.526  -1.632  0.00  0.00    +0.220 C 
ATOM     28  O   UNL     1       3.375  -2.381  -1.391  0.00  0.00    -0.275 OA
BRANCH  27  29
ATOM     29  C   UNL     1       1.092  -1.783  -1.341  0.00  0.00    +0.075 C 
ATOM     30  C   UNL     1       0.761  -1.299   0.072  0.00  0.00    +0.013 C 
ATOM     31  C   UNL     1      -0.718  -1.560   0.367  0.00  0.00    +0.001 C 
ATOM     32  C   UNL     1      -1.001  -3.060   0.262  0.00  0.00    +0.000 C 
ATOM     33  C   UNL     1      -0.670  -3.544  -1.151  0.00  0.00    +0.001 C 
ATOM     34  C   UNL     1       0.809  -3.283  -1.446  0.00  0.00    +0.013 C 
ENDBRANCH  27  29
BRANCH  26  35
ATOM     35  C   UNL     1       1.952   0.725  -2.348  0.00  0.00    +0.183 C 
BRANCH  35  40
ATOM     36  C   UNL     1       1.360   1.168  -7.338  0.00  0.00    +0.086 C 
ATOM     37  C   UNL     1       1.096   0.814  -5.897  0.00  0.00    +0.102 A 
ATOM     38  C   UNL     1       0.007   0.177  -5.430  0.00  0.00    +0.045 A 
ATOM     39  C   UNL     1       0.173   0.053  -4.032  0.00  0.00    +0.046 A 
ATOM     40  C   UNL     1       1.353   0.621  -3.727  0.00  0.00    +0.122 A 
ATOM     41  O   UNL     1       1.911   1.075  -4.862  0.00  0.00    -0.463 OA
ENDBRANCH  35  40
ENDBRANCH  26  35
ENDBRANCH   1  26
TORSDOF 12
