REMARK  Name = ZINC39408715
REMARK  4 active torsions:
REMARK  status: ('A' for Active; 'I' for Inactive)
REMARK    1  A    between atoms: C_1  and  C_2
REMARK    2  A    between atoms: C_3  and  N_16
REMARK    3  A    between atoms: C_4  and  N_8
REMARK    4  A    between atoms: N_8  and  C_9
REMARK                            x       y       z     vdW  Elec       q    Type
REMARK                         _______ _______ _______ _____ _____    ______ ____
ROOT
ATOM      1  C   UNL     1       0.255   1.464   0.115  0.00  0.00    +0.070 C 
ATOM      2  C   UNL     1       0.142  -0.037   0.041  0.00  0.00    +0.090 C 
ATOM      3  C   UNL     1      -1.006  -0.715   0.114  0.00  0.00    +0.170 C 
ATOM      4  C   UNL     1      -0.581  -2.167  -0.010  0.00  0.00    +0.268 C 
ATOM      5  N   UNL     1       0.883  -2.074  -0.147  0.00  0.00    -0.158 NA
ATOM      6  N   UNL     1       1.188  -0.879  -0.114  0.00  0.00    -0.155 NA
ENDROOT
BRANCH   3   7
ATOM      7  N   UNL     1      -2.375  -0.176   0.278  0.00  0.00    +0.058 N 
ATOM      8  O   UNL     1      -2.548   1.018   0.363  0.00  0.00    -0.126 OA
ATOM      9  O   UNL     1      -3.319  -0.929   0.327  0.00  0.00    -0.126 OA
ENDBRANCH   3   7
BRANCH   4  10
ATOM     10  N   UNL     1      -0.945  -2.919   1.194  0.00  0.00    -0.316 N 
ATOM     11  H   UNL     1      -0.791  -2.534   2.071  0.00  0.00    +0.148 HD
BRANCH  10  12
ATOM     12  C   UNL     1      -1.516  -4.189   1.079  0.00  0.00    +0.029 A 
ATOM     13  C   UNL     1      -1.591  -4.808  -0.163  0.00  0.00    +0.024 A 
ATOM     14  C   UNL     1      -2.155  -6.064  -0.273  0.00  0.00    +0.016 A 
ATOM     15  C   UNL     1      -2.646  -6.704   0.850  0.00  0.00    +0.013 A 
ATOM     16  C   UNL     1      -2.573  -6.090   2.088  0.00  0.00    +0.016 A 
ATOM     17  C   UNL     1      -2.004  -4.837   2.206  0.00  0.00    +0.024 A 
ATOM     18  I   UNL     1      -3.502  -8.608   0.677  0.00  0.00    -0.044 I 
ENDBRANCH  10  12
ENDBRANCH   4  10
TORSDOF 3
