REMARK  Name = ZINC31164636
REMARK  16 active torsions:
REMARK  status: ('A' for Active; 'I' for Inactive)
REMARK    1  A    between atoms: C_1  and  C_2
REMARK    2  A    between atoms: C_2  and  C_3
REMARK    3  A    between atoms: C_2  and  C_4
REMARK    4  A    between atoms: C_2  and  O_41
REMARK    5  A    between atoms: C_8  and  C_11
REMARK    6  A    between atoms: C_11  and  O_13
REMARK    7  A    between atoms: O_13  and  C_14
REMARK    8  A    between atoms: C_14  and  C_15
REMARK    9  A    between atoms: C_17  and  O_40
REMARK   10  A    between atoms: C_19  and  O_39
REMARK   11  A    between atoms: C_21  and  O_38
REMARK   12  A    between atoms: C_23  and  O_26
REMARK   13  A    between atoms: O_26  and  C_27
REMARK   14  A    between atoms: C_28  and  O_37
REMARK   15  A    between atoms: C_30  and  C_34
REMARK   16  A    between atoms: C_32  and  O_33
REMARK                            x       y       z     vdW  Elec       q    Type
REMARK                         _______ _______ _______ _____ _____    ______ ____
ROOT
ATOM      1  C   UNL     1      -0.807   1.138   0.156  0.00  0.00    +0.191 C 
ATOM      2  C   UNL     1       0.552   1.648  -0.331  0.00  0.00    +0.178 C 
ATOM      3  C   UNL     1       1.646   1.148   0.618  0.00  0.00    +0.180 C 
ATOM      4  C   UNL     1       1.325   1.616   2.041  0.00  0.00    +0.214 C 
ATOM      5  C   UNL     1      -0.064   1.107   2.436  0.00  0.00    +0.340 C 
ATOM      6  O   UNL     1      -1.029   1.582   1.496  0.00  0.00    -0.330 OA
ENDROOT
BRANCH   4   7
ATOM      7  O   UNL     1       2.300   1.094   2.946  0.00  0.00    -0.383 OA
ATOM      8  H   UNL     1       2.233   1.325   4.020  0.00  0.00    +0.210 HD
ENDBRANCH   4   7
BRANCH   3   9
ATOM      9  O   UNL     1       1.694  -0.279   0.583  0.00  0.00    -0.386 OA
ATOM     10  H   UNL     1       2.422  -0.821   1.204  0.00  0.00    +0.210 HD
ENDBRANCH   3   9
BRANCH   2  11
ATOM     11  O   UNL     1       0.549   3.077  -0.345  0.00  0.00    -0.386 OA
ATOM     12  H   UNL     1       1.445   3.626  -0.668  0.00  0.00    +0.210 HD
ENDBRANCH   2  11
BRANCH   1  13
ATOM     13  C   UNL     1      -1.911   1.682  -0.752  0.00  0.00    +0.266 C 
BRANCH  13  14
ATOM     14  O   UNL     1      -3.186   1.105  -0.364  0.00  0.00    -0.459 OA
BRANCH  14  15
ATOM     15  C   UNL     1      -4.269   1.484  -1.070  0.00  0.00    +0.335 C 
ATOM     16  O   UNL     1      -4.152   2.275  -1.985  0.00  0.00    -0.245 OA
BRANCH  15  20
ATOM     17  C   UNL     1      -8.030  -0.396  -0.349  0.00  0.00    +0.024 C 
ATOM     18  C   UNL     1      -7.139  -0.153   0.876  0.00  0.00    +0.011 C 
ATOM     19  C   UNL     1      -5.688  -0.033   0.406  0.00  0.00    +0.042 C 
ATOM     20  C   UNL     1      -5.593   0.941  -0.733  0.00  0.00    +0.033 C 
ATOM     21  C   UNL     1      -6.627   1.340  -1.443  0.00  0.00    -0.016 C 
ATOM     22  C   UNL     1      -8.033   0.871  -1.207  0.00  0.00    +0.034 C 
BRANCH  17  24
ATOM     23  C   UNL     1     -10.341  -0.954  -1.118  0.00  0.00    +0.041 C 
ATOM     24  C   UNL     1      -9.456  -0.712   0.107  0.00  0.00    +0.064 C 
ATOM     25  C   UNL     1      -9.445  -1.965   0.984  0.00  0.00    +0.041 C 
BRANCH  24  26
ATOM     26  O   UNL     1      -9.971   0.390   0.856  0.00  0.00    -0.389 OA
ATOM     27  H   UNL     1      -9.464   0.715   1.777  0.00  0.00    +0.210 HD
ENDBRANCH  24  26
ENDBRANCH  17  24
ENDBRANCH  15  20
ENDBRANCH  14  15
ENDBRANCH  13  14
ENDBRANCH   1  13
BRANCH   5  28
ATOM     28  O   UNL     1      -0.064  -0.322   2.439  0.00  0.00    -0.453 OA
BRANCH  28  29
ATOM     29  C   UNL     1      -1.093  -0.937   3.079  0.00  0.00    +0.206 A 
ATOM     30  C   UNL     1      -1.038  -1.131   4.457  0.00  0.00    +0.163 A 
ATOM     31  C   UNL     1      -2.085  -1.752   5.111  0.00  0.00    +0.064 A 
ATOM     32  C   UNL     1      -3.195  -2.195   4.387  0.00  0.00    +0.070 A 
ATOM     33  C   UNL     1      -3.246  -2.004   3.004  0.00  0.00    +0.064 A 
ATOM     34  C   UNL     1      -2.198  -1.378   2.355  0.00  0.00    +0.163 A 
BRANCH  32  35
ATOM     35  C   UNL     1      -4.312  -2.863   5.082  0.00  0.00    +0.387 C 
ATOM     36  O   UNL     1      -5.276  -3.248   4.452  0.00  0.00    -0.241 OA
ATOM     37  O   UNL     1      -4.262  -3.046   6.416  0.00  0.00    -0.241 OA
ENDBRANCH  32  35
BRANCH  34  38
ATOM     38  O   UNL     1      -2.247  -1.192   1.009  0.00  0.00    -0.503 OA
ATOM     39  H   UNL     1      -3.119  -1.540   0.437  0.00  0.00    +0.292 HD
ENDBRANCH  34  38
BRANCH  30  40
ATOM     40  O   UNL     1       0.046  -0.705   5.160  0.00  0.00    -0.503 OA
ATOM     41  H   UNL     1       0.090  -0.858   6.248  0.00  0.00    +0.292 HD
ENDBRANCH  30  40
ENDBRANCH  28  29
ENDBRANCH   5  28
TORSDOF 14
