REMARK  Name = ZINC05516537
REMARK  2 active torsions:
REMARK  status: ('A' for Active; 'I' for Inactive)
REMARK    1  A    between atoms: C_5  and  C_7
REMARK    2  A    between atoms: C_24  and  C_26
REMARK                            x       y       z     vdW  Elec       q    Type
REMARK                         _______ _______ _______ _____ _____    ______ ____
ROOT
ATOM      1  C   UNL     1       1.079  -2.079   0.176  0.00  0.00    +0.235 C 
ATOM      2  C   UNL     1       1.471  -2.653   1.506  0.00  0.00    +0.027 C 
ATOM      3  C   UNL     1       0.535  -2.936   2.435  0.00  0.00    +0.083 C 
ATOM      4  C   UNL     1      -0.882  -2.667   2.083  0.00  0.00    +0.042 A 
ATOM      5  C   UNL     1      -1.873  -2.611   3.054  0.00  0.00    +0.013 A 
ATOM      6  C   UNL     1      -3.179  -2.356   2.682  0.00  0.00    +0.001 A 
ATOM      7  C   UNL     1      -3.498  -2.156   1.350  0.00  0.00    +0.004 A 
ATOM      8  C   UNL     1      -2.517  -2.212   0.377  0.00  0.00    +0.046 A 
ATOM      9  C   UNL     1      -1.205  -2.467   0.735  0.00  0.00    +0.131 A 
ATOM     10  O   UNL     1      -0.224  -2.533  -0.195  0.00  0.00    -0.479 OA
ATOM     11  N   UNL     1       0.870  -3.449   3.645  0.00  0.00    -0.213 NA
ATOM     12  C   UNL     1       2.098  -3.721   4.019  0.00  0.00    +0.237 C 
ATOM     13  N   UNL     1       2.600  -4.229   5.167  0.00  0.00    -0.205 NA
ATOM     14  C   UNL     1       3.898  -4.331   5.089  0.00  0.00    +0.203 C 
ATOM     15  N   UNL     1       4.316  -3.888   3.871  0.00  0.00    -0.251 N 
ATOM     16  N   UNL     1       3.169  -3.493   3.179  0.00  0.00    -0.208 N 
ATOM     17  C   UNL     1       2.918  -2.933   1.845  0.00  0.00    +0.160 C 
ATOM     18  H   UNL     1       5.230  -3.853   3.548  0.00  0.00    +0.171 HD
ENDROOT
BRANCH   1  23
ATOM     19  C   UNL     1       0.762   1.427   1.542  0.00  0.00    +0.000 A 
ATOM     20  C   UNL     1       1.068   2.187   0.428  0.00  0.00    +0.001 A 
ATOM     21  C   UNL     1       1.377   1.567  -0.767  0.00  0.00    +0.020 A 
ATOM     22  C   UNL     1       1.381   0.186  -0.850  0.00  0.00    +0.048 A 
ATOM     23  C   UNL     1       1.075  -0.574   0.265  0.00  0.00    +0.015 A 
ATOM     24  C   UNL     1       0.766   0.047   1.461  0.00  0.00    +0.009 A 
ATOM     25 CL   UNL     1       1.768  -0.594  -2.352  0.00  0.00    -0.083 Cl
ENDBRANCH   1  23
BRANCH  17  26
ATOM     26  C   UNL     1       3.687  -1.643   1.725  0.00  0.00    -0.003 A 
ATOM     27  C   UNL     1       4.450  -1.382   0.597  0.00  0.00    +0.009 A 
ATOM     28  C   UNL     1       5.141  -0.182   0.529  0.00  0.00    +0.020 A 
ATOM     29  C   UNL     1       5.047   0.709   1.582  0.00  0.00    +0.111 A 
ATOM     30  N   UNL     1       4.312   0.427   2.640  0.00  0.00    -0.263 NA
ATOM     31  C   UNL     1       3.637  -0.701   2.735  0.00  0.00    +0.116 A 
ENDBRANCH  17  26
TORSDOF 2
