REMARK  Name = ZINC05506891
REMARK  6 active torsions:
REMARK  status: ('A' for Active; 'I' for Inactive)
REMARK    1  A    between atoms: C_1  and  N_2
REMARK    2  A    between atoms: C_6  and  C_8
REMARK    3  A    between atoms: C_8  and  C_10
REMARK    4  A    between atoms: C_8  and  O_16
REMARK    5  A    between atoms: O_16  and  C_17
REMARK    6  A    between atoms: C_17  and  C_19
REMARK                            x       y       z     vdW  Elec       q    Type
REMARK                         _______ _______ _______ _____ _____    ______ ____
ROOT
ATOM      1  O   UNL     1      -1.048  -0.498  -0.871  0.00  0.00    -0.446 OA
ENDROOT
BRANCH   1   2
ATOM      2  C   UNL     1      -0.729  -0.689  -2.160  0.00  0.00    +0.320 C 
ATOM      3  O   UNL     1       0.391  -0.453  -2.547  0.00  0.00    -0.250 OA
BRANCH   2   4
ATOM      4  C   UNL     1      -1.768  -1.200  -3.126  0.00  0.00    +0.165 C 
ATOM      5  C   UNL     1      -2.264  -2.541  -2.657  0.00  0.00    +0.013 A 
ATOM      6  C   UNL     1      -3.173  -2.602  -1.616  0.00  0.00    +0.008 A 
ATOM      7  C   UNL     1      -3.640  -3.823  -1.171  0.00  0.00    +0.001 A 
ATOM      8  C   UNL     1      -3.199  -4.991  -1.766  0.00  0.00    +0.004 A 
ATOM      9  C   UNL     1      -2.295  -4.936  -2.804  0.00  0.00    +0.046 A 
ATOM     10  C   UNL     1      -1.823  -3.709  -3.256  0.00  0.00    +0.133 A 
ATOM     11  O   UNL     1      -0.934  -3.677  -4.277  0.00  0.00    -0.455 OA
ATOM     12  C   UNL     1      -0.774  -2.544  -5.002  0.00  0.00    +0.133 A 
ATOM     13  C   UNL     1      -1.158  -1.313  -4.497  0.00  0.00    +0.013 A 
ATOM     14  C   UNL     1      -0.982  -0.170  -5.256  0.00  0.00    +0.008 A 
ATOM     15  C   UNL     1      -0.424  -0.252  -6.518  0.00  0.00    +0.001 A 
ATOM     16  C   UNL     1      -0.040  -1.480  -7.026  0.00  0.00    +0.004 A 
ATOM     17  C   UNL     1      -0.214  -2.623  -6.272  0.00  0.00    +0.046 A 
ENDBRANCH   2   4
ENDBRANCH   1   2
BRANCH   1  18
ATOM     18  C   UNL     1       0.002  -0.004   0.002  0.00  0.00    +0.292 C 
BRANCH  18  24
ATOM     19  C   UNL     1       1.170  -0.980   5.939  0.00  0.00    +0.129 C 
ATOM     20  N   UNL     1       1.391  -0.481   4.580  0.00  0.00    -0.302 N 
ATOM     21  C   UNL     1       0.482  -0.729   3.616  0.00  0.00    +0.306 C 
ATOM     22  O   UNL     1      -0.520  -1.366   3.874  0.00  0.00    -0.252 OA
ATOM     23  N   UNL     1       0.684  -0.270   2.365  0.00  0.00    -0.237 N 
ATOM     24  C   UNL     1      -0.224  -0.517   1.401  0.00  0.00    +0.266 C 
ATOM     25  O   UNL     1      -1.224  -1.153   1.659  0.00  0.00    -0.271 OA
ATOM     26  H   UNL     1       2.190   0.027   4.373  0.00  0.00    +0.150 HD
ATOM     27  H   UNL     1       1.484   0.239   2.158  0.00  0.00    +0.159 HD
ENDBRANCH  18  24
BRANCH  18  28
ATOM     28  C   UNL     1      -0.018   1.503   0.010  0.00  0.00    +0.002 A 
ATOM     29  C   UNL     1      -1.225   2.178   0.020  0.00  0.00    +0.008 A 
ATOM     30  C   UNL     1      -1.244   3.560   0.032  0.00  0.00    +0.000 A 
ATOM     31  C   UNL     1      -0.056   4.267   0.025  0.00  0.00    +0.000 A 
ATOM     32  C   UNL     1       1.151   3.592   0.010  0.00  0.00    +0.000 A 
ATOM     33  C   UNL     1       1.169   2.210   0.003  0.00  0.00    +0.008 A 
ENDBRANCH  18  28
ENDBRANCH   1  18
TORSDOF 5
