REMARK  Name = ZINC20749937
REMARK  3 active torsions:
REMARK  status: ('A' for Active; 'I' for Inactive)
REMARK    1  A    between atoms: C_1  and  C_2
REMARK    2  A    between atoms: C_4  and  N_26
REMARK    3  A    between atoms: C_9  and  C_18
REMARK                            x       y       z     vdW  Elec       q    Type
REMARK                         _______ _______ _______ _____ _____    ______ ____
ROOT
ATOM      1  C   UNL     1      -0.115   1.758   0.512  0.00  0.00    +0.046 C 
ATOM      2  C   UNL     1       0.476   3.140   0.626  0.00  0.00    -0.027 A 
ATOM      3  C   UNL     1       1.822   3.285   0.884  0.00  0.00    +0.038 A 
ATOM      4  C   UNL     1       2.380   4.546   0.983  0.00  0.00    +0.127 A 
ATOM      5  C   UNL     1       1.579   5.662   0.822  0.00  0.00    +0.038 A 
ATOM      6  C   UNL     1       0.232   5.525   0.567  0.00  0.00    -0.017 A 
ATOM      7  C   UNL     1      -0.347   4.256   0.473  0.00  0.00    +0.034 A 
ATOM      8  N   UNL     1      -1.702   4.031   0.242  0.00  0.00    -0.336 N 
ATOM      9  C   UNL     1      -2.538   5.217  -0.006  0.00  0.00    +0.108 C 
ATOM     10  C   UNL     1      -2.050   6.307   0.926  0.00  0.00    +0.029 C 
ATOM     11  C   UNL     1      -0.645   6.701   0.371  0.00  0.00    +0.049 C 
ATOM     12  C   UNL     1      -0.384   8.009   1.020  0.00  0.00    -0.023 C 
ATOM     13  C   UNL     1      -1.549   8.600   1.263  0.00  0.00    -0.030 C 
ATOM     14  C   UNL     1      -2.698   7.692   0.817  0.00  0.00    +0.033 C 
ATOM     15  H   UNL     1      -2.156   3.029   0.240  0.00  0.00    +0.147 HD
ENDROOT
BRANCH   9  16
ATOM     16  C   UNL     1      -2.389   5.662  -1.439  0.00  0.00    +0.010 A 
ATOM     17  C   UNL     1      -3.248   6.612  -1.961  0.00  0.00    +0.047 A 
ATOM     18  C   UNL     1      -3.107   7.023  -3.275  0.00  0.00    +0.020 A 
ATOM     19  C   UNL     1      -2.116   6.477  -4.068  0.00  0.00    +0.003 A 
ATOM     20  C   UNL     1      -1.260   5.524  -3.548  0.00  0.00    +0.020 A 
ATOM     21  C   UNL     1      -1.396   5.116  -2.233  0.00  0.00    +0.047 A 
ATOM     22 CL   UNL     1      -0.322   3.919  -1.580  0.00  0.00    -0.083 Cl
ATOM     23 CL   UNL     1      -4.498   7.292  -0.968  0.00  0.00    -0.083 Cl
ENDBRANCH   9  16
BRANCH   4  24
ATOM     24  N   UNL     1       3.825   4.701   1.260  0.00  0.00    +0.056 N 
ATOM     25  O   UNL     1       4.527   3.716   1.402  0.00  0.00    -0.126 OA
ATOM     26  O   UNL     1       4.313   5.814   1.347  0.00  0.00    -0.126 OA
ENDBRANCH   4  24
TORSDOF 2
