REMARK  Name = ZINC25164178
REMARK  8 active torsions:
REMARK  status: ('A' for Active; 'I' for Inactive)
REMARK    1  A    between atoms: C_1  and  C_2
REMARK    2  A    between atoms: C_2  and  C_4
REMARK    3  A    between atoms: C_2  and  C_28
REMARK    4  A    between atoms: C_4  and  N_5
REMARK    5  A    between atoms: C_6  and  C_8
REMARK    6  A    between atoms: C_8  and  N_9
REMARK    7  A    between atoms: C_12  and  C_17
REMARK    8  A    between atoms: C_17  and  C_18
REMARK                            x       y       z     vdW  Elec       q    Type
REMARK                         _______ _______ _______ _____ _____    ______ ____
ROOT
ATOM      1  N   UNL     1      -3.660   5.206  -2.068  0.00  0.00    -0.216 N 
ATOM      2  C   UNL     1      -2.494   5.175  -1.394  0.00  0.00    +0.244 C 
ATOM      3  O   UNL     1      -1.910   6.114  -0.897  0.00  0.00    -0.273 OA
ATOM      4  C   UNL     1      -2.063   3.721  -1.387  0.00  0.00    +0.165 C 
ATOM      5  N   UNL     1      -3.139   3.038  -2.127  0.00  0.00    -0.287 N 
ATOM      6  C   UNL     1      -4.024   3.987  -2.483  0.00  0.00    +0.310 C 
ATOM      7  O   UNL     1      -5.040   3.762  -3.111  0.00  0.00    -0.252 OA
ATOM      8  H   UNL     1      -3.094   1.950  -2.283  0.00  0.00    +0.151 HD
ENDROOT
BRANCH   1   9
ATOM      9  C   UNL     1      -4.436   6.424  -2.314  0.00  0.00    +0.213 C 
BRANCH   9  11
ATOM     10  N   UNL     1      -4.574   8.184  -4.048  0.00  0.00    -0.313 N 
ATOM     11  C   UNL     1      -3.995   7.046  -3.614  0.00  0.00    +0.231 C 
ATOM     12  O   UNL     1      -3.119   6.523  -4.270  0.00  0.00    -0.274 OA
ATOM     13  H   UNL     1      -5.368   8.658  -3.453  0.00  0.00    +0.149 HD
BRANCH  10  14
ATOM     14  C   UNL     1      -4.145   8.788  -5.311  0.00  0.00    +0.112 C 
BRANCH  14  16
ATOM     15  C   UNL     1      -4.630  11.098  -4.492  0.00  0.00    +0.014 C 
ATOM     16  C   UNL     1      -4.955  10.060  -5.569  0.00  0.00    +0.033 C 
BRANCH  16  17
ATOM     17  C   UNL     1      -4.602  10.615  -6.925  0.00  0.00    -0.043 A 
ATOM     18  C   UNL     1      -3.300  10.992  -7.200  0.00  0.00    +0.004 A 
ATOM     19  C   UNL     1      -2.975  11.496  -8.445  0.00  0.00    +0.000 A 
ATOM     20  C   UNL     1      -3.954  11.633  -9.412  0.00  0.00    +0.000 A 
ATOM     21  C   UNL     1      -5.256  11.261  -9.135  0.00  0.00    +0.000 A 
ATOM     22  C   UNL     1      -5.580  10.752  -7.891  0.00  0.00    +0.004 A 
ENDBRANCH  16  17
ENDBRANCH  14  16
ENDBRANCH  10  14
ENDBRANCH   9  11
ENDBRANCH   1   9
BRANCH   4  23
ATOM     23  C   UNL     1      -1.976   3.193   0.046  0.00  0.00    +0.069 C 
BRANCH  23  24
ATOM     24  C   UNL     1      -1.430   1.788   0.031  0.00  0.00    -0.020 A 
ATOM     25  C   UNL     1      -2.147   0.653   0.026  0.00  0.00    +0.087 A 
ATOM     26  N   UNL     1      -1.308  -0.428   0.012  0.00  0.00    -0.360 N 
ATOM     27  H   UNL     1      -1.723  -1.446   0.011  0.00  0.00    +0.165 HD
ATOM     28  C   UNL     1       0.002  -0.004   0.002  0.00  0.00    +0.047 A 
ATOM     29  C   UNL     1      -0.017   1.403   0.010  0.00  0.00    +0.003 A 
ATOM     30  C   UNL     1       1.183   2.116   0.002  0.00  0.00    +0.010 A 
ATOM     31  C   UNL     1       2.372   1.442  -0.012  0.00  0.00    +0.001 A 
ATOM     32  C   UNL     1       2.396   0.055  -0.020  0.00  0.00    +0.002 A 
ATOM     33  C   UNL     1       1.224  -0.669  -0.013  0.00  0.00    +0.026 A 
ENDBRANCH  23  24
ENDBRANCH   4  23
TORSDOF 7
