REMARK  Name = ZINC36109024
REMARK  15 active torsions:
REMARK  status: ('A' for Active; 'I' for Inactive)
REMARK    1  A    between atoms: C_1  and  C_2
REMARK    2  A    between atoms: C_2  and  C_3
REMARK    3  A    between atoms: N_9  and  C_10
REMARK    4  A    between atoms: C_10  and  C_11
REMARK    5  A    between atoms: C_11  and  C_12
REMARK    6  A    between atoms: C_12  and  N_13
REMARK    7  A    between atoms: C_14  and  C_16
REMARK    8  A    between atoms: C_16  and  N_17
REMARK    9  A    between atoms: N_17  and  C_18
REMARK   10  A    between atoms: N_17  and  S_27
REMARK   11  A    between atoms: C_23  and  O_24
REMARK   12  A    between atoms: O_24  and  C_25
REMARK   13  A    between atoms: C_25  and  C_26
REMARK   14  A    between atoms: S_27  and  C_30
REMARK   15  A    between atoms: C_33  and  C_36
REMARK                            x       y       z     vdW  Elec       q    Type
REMARK                         _______ _______ _______ _____ _____    ______ ____
ROOT
ATOM      1  N   UNL     1      -4.281   6.205  -6.338  0.00  0.00    -0.191 N 
ENDROOT
BRANCH   1   2
ATOM      2  C   UNL     1      -3.178   6.872  -6.885  0.00  0.00    +0.093 A 
ATOM      3  C   UNL     1      -3.020   6.942  -8.262  0.00  0.00    +0.028 A 
ATOM      4  C   UNL     1      -1.931   7.602  -8.799  0.00  0.00    +0.002 A 
ATOM      5  C   UNL     1      -0.997   8.192  -7.968  0.00  0.00    +0.004 A 
ATOM      6  C   UNL     1      -1.147   8.126  -6.595  0.00  0.00    +0.047 A 
ATOM      7  C   UNL     1      -2.239   7.471  -6.049  0.00  0.00    +0.143 A 
BRANCH   7   8
ATOM      8  O   UNL     1      -2.391   7.410  -4.698  0.00  0.00    -0.490 OA
BRANCH   8   9
ATOM      9  C   UNL     1      -1.390   8.047  -3.903  0.00  0.00    +0.226 C 
ATOM     10  C   UNL     1      -1.728   7.873  -2.421  0.00  0.00    +0.048 C 
ENDBRANCH   8   9
ENDBRANCH   7   8
ENDBRANCH   1   2
BRANCH   1  11
ATOM     11  S   UNL     1      -5.643   7.054  -5.930  0.00  0.00    +0.075 S 
ATOM     12  O   UNL     1      -5.637   8.236  -6.719  0.00  0.00    -0.150 OA
ATOM     13  O   UNL     1      -6.720   6.128  -5.951  0.00  0.00    -0.150 OA
BRANCH  11  14
ATOM     14  C   UNL     1      -5.453   7.568  -4.255  0.00  0.00    +0.109 A 
ATOM     15  C   UNL     1      -5.894   6.754  -3.228  0.00  0.00    +0.029 A 
ATOM     16  C   UNL     1      -5.746   7.156  -1.914  0.00  0.00    +0.005 A 
ATOM     17  C   UNL     1      -5.155   8.373  -1.627  0.00  0.00    -0.050 A 
ATOM     18  C   UNL     1      -4.713   9.186  -2.653  0.00  0.00    +0.005 A 
ATOM     19  C   UNL     1      -4.858   8.782  -3.967  0.00  0.00    +0.029 A 
ATOM     20  C   UNL     1      -4.994   8.812  -0.194  0.00  0.00    +0.044 C 
ENDBRANCH  11  14
ENDBRANCH   1  11
BRANCH   1  21
ATOM     21  C   UNL     1      -4.230   4.756  -6.128  0.00  0.00    +0.227 C 
BRANCH  21  23
ATOM     22  N   UNL     1      -3.423   3.189  -4.393  0.00  0.00    -0.314 N 
ATOM     23  C   UNL     1      -3.578   4.464  -4.801  0.00  0.00    +0.232 C 
ATOM     24  O   UNL     1      -3.194   5.376  -4.100  0.00  0.00    -0.274 OA
ATOM     25  H   UNL     1      -3.730   2.459  -4.954  0.00  0.00    +0.149 HD
BRANCH  22  26
ATOM     26  C   UNL     1      -2.789   2.905  -3.103  0.00  0.00    +0.102 C 
BRANCH  26  27
ATOM     27  C   UNL     1      -2.736   1.391  -2.884  0.00  0.00    +0.000 C 
BRANCH  27  28
ATOM     28  C   UNL     1      -2.074   1.094  -1.537  0.00  0.00    -0.077 C 
BRANCH  28  34
ATOM     29  C   UNL     1      -1.287  -0.646  -0.089  0.00  0.00    -0.069 C 
ATOM     30  C   UNL     1      -1.161  -2.161   0.093  0.00  0.00    -0.015 C 
ATOM     31  C   UNL     1      -2.561  -2.777   0.175  0.00  0.00    -0.003 C 
ATOM     32  C   UNL     1      -3.345  -2.408  -1.087  0.00  0.00    -0.019 C 
ATOM     33  C   UNL     1      -3.390  -0.884  -1.225  0.00  0.00    -0.078 C 
ATOM     34  N   UNL     1      -2.023  -0.358  -1.326  0.00  0.00    +0.382 N 
ATOM     35  H   UNL     1      -1.553  -0.793  -2.105  0.00  0.00    -0.081 HD
BRANCH  29  37
ATOM     36  C   UNL     1       0.845  -0.248   1.152  0.00  0.00    +0.002 C 
ATOM     37  C   UNL     1       0.109  -0.025  -0.171  0.00  0.00    -0.019 C 
ENDBRANCH  29  37
ENDBRANCH  28  34
ENDBRANCH  27  28
ENDBRANCH  26  27
ENDBRANCH  22  26
ENDBRANCH  21  23
ENDBRANCH   1  21
TORSDOF 12
