REMARK  Name = ZINC06743243
REMARK  10 active torsions:
REMARK  status: ('A' for Active; 'I' for Inactive)
REMARK    1  A    between atoms: C_1  and  C_2
REMARK    2  A    between atoms: C_2  and  C_3
REMARK    3  A    between atoms: C_6  and  C_9
REMARK    4  A    between atoms: C_12  and  C_23
REMARK    5  A    between atoms: N_19  and  C_20
REMARK    6  A    between atoms: C_20  and  C_21
REMARK    7  A    between atoms: C_21  and  O_22
REMARK    8  A    between atoms: C_24  and  C_31
REMARK    9  A    between atoms: C_26  and  C_30
REMARK   10  A    between atoms: C_28  and  O_29
REMARK                            x       y       z     vdW  Elec       q    Type
REMARK                         _______ _______ _______ _____ _____    ______ ____
ROOT
ATOM      1  C   UNL     1       2.727  -1.665  -4.420  0.00  0.00    +0.141 C 
ATOM      2  C   UNL     1       3.298  -0.620  -5.340  0.00  0.00    +0.035 A 
ATOM      3  C   UNL     1       3.059   0.494  -6.152  0.00  0.00    +0.102 A 
ATOM      4  N   UNL     1       4.215   0.862  -6.667  0.00  0.00    -0.173 NA
ATOM      5  N   UNL     1       5.160   0.090  -6.262  0.00  0.00    -0.272 N 
ATOM      6  H   UNL     1       6.093   0.173  -6.513  0.00  0.00    +0.189 HD
ATOM      7  C   UNL     1       4.655  -0.864  -5.425  0.00  0.00    +0.126 A 
ATOM      8  C   UNL     1       4.973  -2.029  -4.591  0.00  0.00    +0.266 C 
ATOM      9  O   UNL     1       6.085  -2.500  -4.452  0.00  0.00    -0.268 OA
ATOM     10  N   UNL     1       3.858  -2.503  -4.003  0.00  0.00    -0.283 N 
ENDROOT
BRANCH   3  11
ATOM     11  C   UNL     1       1.745   1.143  -6.388  0.00  0.00    +0.047 A 
ATOM     12  C   UNL     1       1.621   2.527  -6.287  0.00  0.00    -0.037 A 
ATOM     13  C   UNL     1       0.397   3.126  -6.508  0.00  0.00    +0.007 A 
ATOM     14  C   UNL     1      -0.707   2.357  -6.831  0.00  0.00    -0.047 A 
ATOM     15  C   UNL     1      -0.594   0.983  -6.933  0.00  0.00    +0.049 A 
ATOM     16  C   UNL     1       0.630   0.370  -6.720  0.00  0.00    +0.127 A 
ATOM     17  C   UNL     1      -2.039   3.020  -7.070  0.00  0.00    +0.044 C 
ATOM     18  C   UNL     1       2.820   3.369  -5.936  0.00  0.00    +0.044 C 
BRANCH  16  19
ATOM     19  O   UNL     1       0.744  -0.980  -6.827  0.00  0.00    -0.506 OA
ATOM     20  H   UNL     1       0.517  -1.459  -6.018  0.00  0.00    +0.292 HD
ENDBRANCH  16  19
ENDBRANCH   3  11
BRANCH   1  24
ATOM     21  C   UNL     1       0.938   0.192  -1.014  0.00  0.00    -0.048 A 
ATOM     22  C   UNL     1       0.142  -0.404  -1.975  0.00  0.00    +0.004 A 
ATOM     23  C   UNL     1       0.721  -1.004  -3.077  0.00  0.00    +0.006 A 
ATOM     24  C   UNL     1       2.096  -1.009  -3.219  0.00  0.00    -0.022 A 
ATOM     25  C   UNL     1       2.892  -0.413  -2.259  0.00  0.00    +0.006 A 
ATOM     26  C   UNL     1       2.313   0.192  -1.159  0.00  0.00    +0.004 A 
BRANCH  21  28
ATOM     27  C   UNL     1       0.018   2.316  -0.125  0.00  0.00    +0.009 C 
ATOM     28  C   UNL     1       0.307   0.847   0.188  0.00  0.00    +0.032 C 
ENDBRANCH  21  28
ENDBRANCH   1  24
BRANCH  10  29
ATOM     29  C   UNL     1       3.786  -3.655  -3.101  0.00  0.00    +0.137 C 
BRANCH  29  30
ATOM     30  C   UNL     1       3.534  -4.925  -3.915  0.00  0.00    +0.175 C 
BRANCH  30  31
ATOM     31  O   UNL     1       4.656  -5.179  -4.763  0.00  0.00    -0.393 OA
ATOM     32  H   UNL     1       4.565  -5.971  -5.310  0.00  0.00    +0.209 HD
ENDBRANCH  30  31
ENDBRANCH  29  30
ENDBRANCH  10  29
TORSDOF 7
