REMARK  Name = ZINC33034421
REMARK  10 active torsions:
REMARK  status: ('A' for Active; 'I' for Inactive)
REMARK    1  A    between atoms: C_1  and  C_2
REMARK    2  A    between atoms: C_2  and  C_3
REMARK    3  A    between atoms: C_6  and  C_9
REMARK    4  A    between atoms: C_9  and  N_10
REMARK    5  A    between atoms: C_11  and  C_13
REMARK    6  A    between atoms: C_16  and  N_30
REMARK    7  A    between atoms: C_17  and  N_19
REMARK    8  A    between atoms: N_19  and  S_20
REMARK    9  A    between atoms: S_20  and  C_23
REMARK   10  A    between atoms: C_28  and  C_29
REMARK                            x       y       z     vdW  Elec       q    Type
REMARK                         _______ _______ _______ _____ _____    ______ ____
ROOT
ATOM      1  C   UNL     1      -0.498   5.449  -0.939  0.00  0.00    +0.039 A 
ATOM      2  C   UNL     1      -1.760   5.915  -1.316  0.00  0.00    +0.015 A 
ATOM      3  C   UNL     1      -2.749   5.022  -1.667  0.00  0.00    +0.026 A 
ATOM      4  C   UNL     1      -2.494   3.655  -1.647  0.00  0.00    +0.052 A 
ATOM      5  C   UNL     1      -1.234   3.183  -1.271  0.00  0.00    +0.070 A 
ATOM      6  C   UNL     1      -0.241   4.075  -0.912  0.00  0.00    +0.039 A 
ENDROOT
BRANCH   4   7
ATOM      7  N   UNL     1      -3.497   2.756  -2.002  0.00  0.00    -0.332 N 
ATOM      8  C   UNL     1      -4.793   3.435  -2.130  0.00  0.00    +0.086 C 
ATOM      9  C   UNL     1      -5.879   2.403  -2.442  0.00  0.00    -0.063 C 
ATOM     10  N   UNL     1      -5.535   1.694  -3.683  0.00  0.00    +0.381 N 
ATOM     11  C   UNL     1      -4.239   1.014  -3.555  0.00  0.00    -0.063 C 
ATOM     12  C   UNL     1      -3.153   2.046  -3.243  0.00  0.00    +0.086 C 
ATOM     13  H   UNL     1      -6.308   0.943  -3.902  0.00  0.00    -0.086 HD
ATOM     14  H   UNL     1      -5.477   2.414  -4.513  0.00  0.00    -0.086 HD
ENDBRANCH   4   7
BRANCH   1  16
ATOM     15  N   UNL     1       0.310   7.730  -0.584  0.00  0.00    -0.307 N 
ATOM     16  C   UNL     1       0.560   6.406  -0.563  0.00  0.00    +0.244 C 
ATOM     17  O   UNL     1       1.658   6.000  -0.234  0.00  0.00    -0.270 OA
ATOM     18  H   UNL     1      -0.683   8.098  -0.881  0.00  0.00    +0.149 HD
BRANCH  15  19
ATOM     19  C   UNL     1       1.361   8.680  -0.211  0.00  0.00    +0.139 C 
BRANCH  19  23
ATOM     20  C   UNL     1      -0.149  12.665  -0.513  0.00  0.00    -0.048 A 
ATOM     21  C   UNL     1      -0.265  11.970   0.677  0.00  0.00    +0.004 A 
ATOM     22  C   UNL     1       0.224  10.681   0.775  0.00  0.00    +0.005 A 
ATOM     23  C   UNL     1       0.828  10.086  -0.317  0.00  0.00    -0.030 A 
ATOM     24  C   UNL     1       0.949  10.783  -1.505  0.00  0.00    +0.005 A 
ATOM     25  C   UNL     1       0.456  12.070  -1.604  0.00  0.00    +0.004 A 
BRANCH  20  27
ATOM     26  C   UNL     1       0.414  15.063  -0.229  0.00  0.00    +0.009 C 
ATOM     27  C   UNL     1      -0.682  14.070  -0.619  0.00  0.00    +0.032 C 
ENDBRANCH  20  27
ENDBRANCH  19  23
ENDBRANCH  15  19
ENDBRANCH   1  16
BRANCH   5  28
ATOM     28  N   UNL     1      -0.979   1.806  -1.251  0.00  0.00    -0.214 N 
ATOM     29  H   UNL     1      -1.773   1.104  -0.957  0.00  0.00    +0.174 HD
BRANCH  28  30
ATOM     30  S   UNL     1       0.518   1.235  -1.671  0.00  0.00    +0.073 S 
ATOM     31  O   UNL     1       0.449  -0.182  -1.591  0.00  0.00    -0.150 OA
ATOM     32  O   UNL     1       0.891   1.914  -2.863  0.00  0.00    -0.150 OA
BRANCH  30  33
ATOM     33  C   UNL     1       1.644   1.756  -0.420  0.00  0.00    +0.111 A 
ATOM     34  C   UNL     1       2.673   2.624  -0.735  0.00  0.00    +0.029 A 
ATOM     35  C   UNL     1       3.554   3.037   0.247  0.00  0.00    +0.002 A 
ATOM     36  C   UNL     1       3.412   2.573   1.542  0.00  0.00    +0.000 A 
ATOM     37  C   UNL     1       2.387   1.701   1.855  0.00  0.00    +0.005 A 
ATOM     38  C   UNL     1       1.503   1.292   0.874  0.00  0.00    -0.024 A 
ATOM     39  C   UNL     1       0.385   0.341   1.215  0.00  0.00    +0.046 C 
ENDBRANCH  30  33
ENDBRANCH  28  30
ENDBRANCH   5  28
TORSDOF 8
