REMARK  Name = ZINC23707263
REMARK  3 active torsions:
REMARK  status: ('A' for Active; 'I' for Inactive)
REMARK    1  A    between atoms: C_1  and  C_2
REMARK    2  A    between atoms: C_15  and  C_17
REMARK    3  A    between atoms: C_17  and  N_18
REMARK                            x       y       z     vdW  Elec       q    Type
REMARK                         _______ _______ _______ _____ _____    ______ ____
ROOT
ATOM      1  C   UNL     1       0.549   4.099   2.311  0.00  0.00    +0.029 C 
ATOM      2  C   UNL     1       1.674   4.138   1.275  0.00  0.00    +0.087 C 
ATOM      3  C   UNL     1       2.901   3.413   1.829  0.00  0.00    +0.118 C 
ATOM      4  C   UNL     1       3.859   3.091   0.713  0.00  0.00    +0.219 C 
ATOM      5  O   UNL     1       4.871   3.746   0.579  0.00  0.00    -0.275 OA
ATOM      6  N   UNL     1       3.599   2.076  -0.140  0.00  0.00    -0.284 N 
ATOM      7  C   UNL     1       2.392   1.373  -0.059  0.00  0.00    +0.055 A 
ATOM      8  C   UNL     1       2.375  -0.012  -0.051  0.00  0.00    +0.025 A 
ATOM      9  C   UNL     1       1.168  -0.685  -0.002  0.00  0.00    +0.002 A 
ATOM     10  C   UNL     1      -0.022   0.020   0.034  0.00  0.00    +0.002 A 
ATOM     11  C   UNL     1      -0.013   1.403   0.032  0.00  0.00    +0.025 A 
ATOM     12  C   UNL     1       1.192   2.084  -0.004  0.00  0.00    +0.058 A 
ATOM     13  N   UNL     1       1.223   3.484   0.045  0.00  0.00    -0.265 N 
ATOM     14  C   UNL     1       0.844   4.215  -1.022  0.00  0.00    +0.237 C 
ATOM     15  O   UNL     1       0.874   5.427  -0.968  0.00  0.00    -0.274 OA
ATOM     16  H   UNL     1       4.339   1.796  -0.904  0.00  0.00    +0.155 HD
ENDROOT
BRANCH  14  17
ATOM     17  C   UNL     1       0.382   3.528  -2.281  0.00  0.00    +0.201 C 
BRANCH  17  18
ATOM     18  N   UNL     1       0.027   4.538  -3.288  0.00  0.00    -0.319 N 
ATOM     19  C   UNL     1      -1.164   5.274  -2.890  0.00  0.00    +0.116 C 
ATOM     20  C   UNL     1      -1.672   6.097  -4.086  0.00  0.00    +0.093 C 
ATOM     21  S   UNL     1      -0.458   7.426  -4.357  0.00  0.00    -0.122 S 
ATOM     22  C   UNL     1       1.083   6.583  -4.167  0.00  0.00    +0.029 A 
ATOM     23  C   UNL     1       1.137   5.294  -3.649  0.00  0.00    +0.044 A 
ATOM     24  C   UNL     1       2.388   4.696  -3.475  0.00  0.00    +0.024 A 
ATOM     25  C   UNL     1       3.544   5.362  -3.826  0.00  0.00    +0.002 A 
ATOM     26  C   UNL     1       3.479   6.635  -4.360  0.00  0.00    +0.001 A 
ATOM     27  C   UNL     1       2.251   7.244  -4.529  0.00  0.00    +0.016 A 
ENDBRANCH  17  18
ENDBRANCH  14  17
TORSDOF 2
