REMARK  Name = ZINC33275454
REMARK  10 active torsions:
REMARK  status: ('A' for Active; 'I' for Inactive)
REMARK    1  A    between atoms: C_1  and  C_2
REMARK    2  A    between atoms: C_2  and  N_3
REMARK    3  A    between atoms: C_4  and  C_6
REMARK    4  A    between atoms: C_8  and  N_18
REMARK    5  A    between atoms: C_11  and  N_12
REMARK    6  A    between atoms: N_18  and  S_19
REMARK    7  A    between atoms: S_19  and  C_22
REMARK    8  A    between atoms: C_23  and  C_30
REMARK    9  A    between atoms: C_25  and  C_29
REMARK   10  A    between atoms: C_27  and  C_28
REMARK                            x       y       z     vdW  Elec       q    Type
REMARK                         _______ _______ _______ _____ _____    ______ ____
ROOT
ATOM      1  C   UNL     1       0.762  -2.527  -3.054  0.00  0.00    +0.059 A 
ATOM      2  C   UNL     1       0.511  -2.844  -1.716  0.00  0.00    +0.039 A 
ATOM      3  C   UNL     1       0.450  -4.168  -1.322  0.00  0.00    +0.049 A 
ATOM      4  C   UNL     1       0.639  -5.185  -2.253  0.00  0.00    +0.026 A 
ATOM      5  C   UNL     1       0.887  -4.882  -3.575  0.00  0.00    +0.026 A 
ATOM      6  C   UNL     1       0.946  -3.557  -3.988  0.00  0.00    +0.042 A 
ENDROOT
BRANCH   6   7
ATOM      7  N   UNL     1       1.191  -3.253  -5.324  0.00  0.00    -0.333 N 
ATOM      8  C   UNL     1       2.511  -3.746  -5.743  0.00  0.00    +0.086 C 
ATOM      9  C   UNL     1       2.775  -3.322  -7.190  0.00  0.00    -0.063 C 
ATOM     10  N   UNL     1       1.716  -3.860  -8.055  0.00  0.00    +0.381 N 
ATOM     11  C   UNL     1       0.396  -3.367  -7.636  0.00  0.00    -0.063 C 
ATOM     12  C   UNL     1       0.132  -3.790  -6.189  0.00  0.00    +0.086 C 
ATOM     13  H   UNL     1       1.897  -3.547  -9.094  0.00  0.00    -0.086 HD
ATOM     14  H   UNL     1       1.718  -4.958  -7.998  0.00  0.00    -0.086 HD
ENDBRANCH   6   7
BRANCH   1  16
ATOM     15  N   UNL     1       0.532  -0.134  -2.610  0.00  0.00    -0.312 N 
ATOM     16  C   UNL     1       0.827  -1.118  -3.482  0.00  0.00    +0.246 C 
ATOM     17  O   UNL     1       1.147  -0.843  -4.623  0.00  0.00    -0.270 OA
ATOM     18  H   UNL     1       0.243  -0.382  -1.578  0.00  0.00    +0.149 HD
BRANCH  15  20
ATOM     19  C   UNL     1       0.219   2.174  -1.864  0.00  0.00    +0.024 C 
ATOM     20  C   UNL     1       0.597   1.266  -3.036  0.00  0.00    +0.101 C 
ENDBRANCH  15  20
ENDBRANCH   1  16
BRANCH   3  21
ATOM     21  N   UNL     1       0.198  -4.487   0.018  0.00  0.00    -0.216 N 
ATOM     22  H   UNL     1       0.732  -3.955   0.820  0.00  0.00    +0.174 HD
BRANCH  21  23
ATOM     23  S   UNL     1      -0.903  -5.664   0.397  0.00  0.00    +0.073 S 
ATOM     24  O   UNL     1      -0.942  -5.743   1.815  0.00  0.00    -0.150 OA
ATOM     25  O   UNL     1      -2.061  -5.403  -0.384  0.00  0.00    -0.150 OA
BRANCH  23  26
ATOM     26  C   UNL     1      -0.245  -7.196  -0.174  0.00  0.00    +0.114 A 
ATOM     27  C   UNL     1       0.864  -7.744   0.442  0.00  0.00    -0.023 A 
ATOM     28  C   UNL     1       1.378  -8.948  -0.003  0.00  0.00    +0.008 A 
ATOM     29  C   UNL     1       0.788  -9.599  -1.070  0.00  0.00    -0.050 A 
ATOM     30  C   UNL     1      -0.318  -9.047  -1.690  0.00  0.00    +0.008 A 
ATOM     31  C   UNL     1      -0.834  -7.846  -1.242  0.00  0.00    -0.023 A 
ATOM     32  C   UNL     1      -2.040  -7.245  -1.918  0.00  0.00    +0.046 C 
ATOM     33  C   UNL     1       1.350 -10.909  -1.558  0.00  0.00    +0.044 C 
ATOM     34  C   UNL     1       1.510  -7.032   1.603  0.00  0.00    +0.046 C 
ENDBRANCH  23  26
ENDBRANCH  21  23
ENDBRANCH   3  21
TORSDOF 6
