REMARK  Name = ZINC44924225
REMARK  5 active torsions:
REMARK  status: ('A' for Active; 'I' for Inactive)
REMARK    1  A    between atoms: C_4  and  C_7
REMARK    2  A    between atoms: C_7  and  C_8
REMARK    3  A    between atoms: C_8  and  C_10
REMARK    4  A    between atoms: C_8  and  C_16
REMARK    5  A    between atoms: N_21  and  C_24
REMARK                            x       y       z     vdW  Elec       q    Type
REMARK                         _______ _______ _______ _____ _____    ______ ____
ROOT
ATOM      1  C   UNL     1       5.427  -1.856   1.498  0.00  0.00    +0.223 C 
ATOM      2  O   UNL     1       6.108  -1.966   0.500  0.00  0.00    -0.275 OA
ATOM      3  N   UNL     1       5.791  -2.481   2.635  0.00  0.00    -0.298 N 
ATOM      4  C   UNL     1       4.919  -2.451   3.818  0.00  0.00    +0.126 C 
ATOM      5  C   UNL     1       4.638  -3.893   4.256  0.00  0.00    +0.124 C 
ATOM      6  N   UNL     1       5.914  -4.618   4.335  0.00  0.00    -0.327 N 
ATOM      7  C   UNL     1       6.786  -4.648   3.153  0.00  0.00    +0.124 C 
ATOM      8  C   UNL     1       7.065  -3.210   2.713  0.00  0.00    +0.126 C 
ENDROOT
BRANCH   6   9
ATOM      9  C   UNL     1       6.292  -5.266   5.516  0.00  0.00    +0.032 A 
ATOM     10  C   UNL     1       5.518  -5.127   6.662  0.00  0.00    +0.025 A 
ATOM     11  C   UNL     1       5.886  -5.765   7.830  0.00  0.00    +0.029 A 
ATOM     12  C   UNL     1       7.030  -6.548   7.861  0.00  0.00    +0.067 A 
ATOM     13  C   UNL     1       7.810  -6.690   6.711  0.00  0.00    +0.069 A 
ATOM     14  C   UNL     1       7.435  -6.052   5.538  0.00  0.00    +0.051 A 
ATOM     15  N   UNL     1       8.875  -7.521   7.046  0.00  0.00    -0.306 N 
ATOM     16  H   UNL     1       9.586  -7.801   6.449  0.00  0.00    +0.170 HD
ATOM     17  C   UNL     1       8.752  -7.870   8.341  0.00  0.00    +0.325 A 
ATOM     18  O   UNL     1       9.520  -8.592   8.948  0.00  0.00    -0.247 OA
ATOM     19  N   UNL     1       7.649  -7.299   8.861  0.00  0.00    -0.306 N 
ATOM     20  H   UNL     1       7.337  -7.394   9.774  0.00  0.00    +0.170 HD
ENDBRANCH   6   9
BRANCH   1  21
ATOM     21  C   UNL     1       4.173  -1.020   1.466  0.00  0.00    +0.109 C 
BRANCH  21  22
ATOM     22  C   UNL     1       2.989  -1.902   1.169  0.00  0.00    -0.035 A 
ATOM     23  C   UNL     1       2.905  -2.561  -0.044  0.00  0.00    +0.004 A 
ATOM     24  C   UNL     1       1.818  -3.371  -0.316  0.00  0.00    +0.000 A 
ATOM     25  C   UNL     1       0.815  -3.522   0.623  0.00  0.00    +0.000 A 
ATOM     26  C   UNL     1       0.900  -2.863   1.836  0.00  0.00    +0.000 A 
ATOM     27  C   UNL     1       1.989  -2.057   2.111  0.00  0.00    +0.004 A 
ENDBRANCH  21  22
BRANCH  21  28
ATOM     28  C   UNL     1       4.300   0.048   0.378  0.00  0.00    +0.052 C 
BRANCH  28  32
ATOM     29  C   UNL     1       0.903   2.634   0.515  0.00  0.00    +0.000 A 
ATOM     30  C   UNL     1       2.028   2.930   1.262  0.00  0.00    +0.000 A 
ATOM     31  C   UNL     1       3.127   2.093   1.218  0.00  0.00    +0.003 A 
ATOM     32  C   UNL     1       3.102   0.960   0.427  0.00  0.00    -0.046 A 
ATOM     33  C   UNL     1       1.976   0.663  -0.320  0.00  0.00    +0.003 A 
ATOM     34  C   UNL     1       0.878   1.501  -0.276  0.00  0.00    +0.000 A 
ENDBRANCH  28  32
ENDBRANCH  21  28
ENDBRANCH   1  21
TORSDOF 5
