REMARK  Name = ZINC62476436
REMARK  4 active torsions:
REMARK  status: ('A' for Active; 'I' for Inactive)
REMARK    1  A    between atoms: C_1  and  C_2
REMARK    2  A    between atoms: C_4  and  C_25
REMARK    3  A    between atoms: C_9  and  C_10
REMARK    4  A    between atoms: C_10  and  N_11
REMARK                            x       y       z     vdW  Elec       q    Type
REMARK                         _______ _______ _______ _____ _____    ______ ____
ROOT
ATOM      1  N   UNL     1      -1.348   0.137   2.994  0.00  0.00    -0.295 N 
ATOM      2  C   UNL     1      -1.592   0.762   4.163  0.00  0.00    +0.303 C 
ATOM      3  O   UNL     1      -0.666   1.152   4.848  0.00  0.00    -0.253 OA
ATOM      4  N   UNL     1      -2.861   0.954   4.573  0.00  0.00    -0.282 N 
ATOM      5  C   UNL     1      -3.924   0.386   3.794  0.00  0.00    +0.113 C 
ATOM      6  C   UNL     1      -5.162   1.229   3.789  0.00  0.00    +0.007 C 
ATOM      7  C   UNL     1      -4.874   2.702   3.549  0.00  0.00    +0.008 C 
ATOM      8  C   UNL     1      -4.573   3.491   4.807  0.00  0.00    -0.009 C 
ATOM      9  C   UNL     1      -5.634   3.238   5.882  0.00  0.00    +0.007 C 
ATOM     10  C   UNL     1      -5.624   1.737   6.182  0.00  0.00    -0.009 C 
ATOM     11  C   UNL     1      -6.105   0.995   4.935  0.00  0.00    +0.008 C 
ATOM     12  C   UNL     1      -4.254   1.263   6.610  0.00  0.00    +0.026 C 
ATOM     13  C   UNL     1      -3.087   1.722   5.785  0.00  0.00    +0.078 C 
ATOM     14  C   UNL     1      -3.199   3.202   5.396  0.00  0.00    +0.026 C 
ATOM     15  H   UNL     1      -2.082  -0.241   2.485  0.00  0.00    +0.151 HD
ENDROOT
BRANCH   1  16
ATOM     16  C   UNL     1       0.024   0.028   2.494  0.00  0.00    +0.146 C 
BRANCH  16  25
ATOM     17  C   UNL     1      -0.032   1.487   0.003  0.00  0.00    +0.044 C 
ATOM     18  C   UNL     1      -0.004  -0.020   0.003  0.00  0.00    -0.039 A 
ATOM     19  C   UNL     1       0.000  -0.729  -1.207  0.00  0.00    +0.024 A 
ATOM     20  C   UNL     1       0.025  -2.082  -1.197  0.00  0.00    +0.016 A 
ATOM     21  N   UNL     1       0.047  -2.766  -0.025  0.00  0.00    -0.326 N 
ATOM     22  H   UNL     1       0.065  -3.736  -0.036  0.00  0.00    +0.169 HD
ATOM     23  C   UNL     1       0.043  -2.114   1.153  0.00  0.00    +0.254 A 
ATOM     24  O   UNL     1       0.063  -2.743   2.199  0.00  0.00    -0.268 OA
ATOM     25  C   UNL     1       0.022  -0.709   1.179  0.00  0.00    +0.037 A 
ATOM     26  C   UNL     1       0.029  -2.837  -2.501  0.00  0.00    +0.063 C 
ENDBRANCH  16  25
ENDBRANCH   1  16
TORSDOF 2
