REMARK  Name = ZINC22023942
REMARK  13 active torsions:
REMARK  status: ('A' for Active; 'I' for Inactive)
REMARK    1  A    between atoms: C_1  and  C_2
REMARK    2  A    between atoms: C_2  and  N_3
REMARK    3  A    between atoms: N_3  and  C_4
REMARK    4  A    between atoms: N_3  and  C_6
REMARK    5  A    between atoms: C_4  and  C_5
REMARK    6  A    between atoms: C_6  and  C_8
REMARK    7  A    between atoms: C_6  and  C_30
REMARK    8  A    between atoms: C_8  and  N_9
REMARK    9  A    between atoms: C_10  and  C_12
REMARK   10  A    between atoms: N_15  and  S_18
REMARK   11  A    between atoms: S_18  and  C_21
REMARK   12  A    between atoms: C_23  and  C_27
REMARK   13  A    between atoms: N_24  and  C_26
REMARK                            x       y       z     vdW  Elec       q    Type
REMARK                         _______ _______ _______ _____ _____    ______ ____
ROOT
ATOM      1  C   UNL     1      -3.876   3.389  -1.469  0.00  0.00    +0.077 C 
ATOM      2  C   UNL     1      -3.457   4.339  -0.345  0.00  0.00    +0.030 C 
ATOM      3  C   UNL     1      -1.994   4.072   0.025  0.00  0.00    +0.110 C 
ATOM      4  N   UNL     1      -1.840   2.648   0.349  0.00  0.00    -0.176 NA
ATOM      5  C   UNL     1      -2.291   1.648  -0.628  0.00  0.00    +0.110 C 
ATOM      6  C   UNL     1      -3.755   1.941  -0.988  0.00  0.00    +0.030 C 
ENDROOT
BRANCH   1   8
ATOM      7  N   UNL     1      -5.845   3.056  -2.929  0.00  0.00    -0.316 N 
ATOM      8  C   UNL     1      -5.304   3.671  -1.858  0.00  0.00    +0.216 C 
ATOM      9  O   UNL     1      -5.967   4.452  -1.209  0.00  0.00    -0.276 OA
ATOM     10  H   UNL     1      -5.272   2.288  -3.469  0.00  0.00    +0.149 HD
BRANCH   7  11
ATOM     11  C   UNL     1      -7.195   3.411  -3.373  0.00  0.00    +0.093 C 
BRANCH  11  12
ATOM     12  C   UNL     1      -7.614   2.488  -4.518  0.00  0.00    -0.020 C 
BRANCH  12  13
ATOM     13  C   UNL     1      -9.059   2.740  -4.864  0.00  0.00    -0.059 A 
ATOM     14  C   UNL     1     -10.001   2.851  -3.858  0.00  0.00    +0.002 A 
ATOM     15  C   UNL     1     -11.326   3.087  -4.175  0.00  0.00    +0.000 A 
ATOM     16  C   UNL     1     -11.710   3.203  -5.498  0.00  0.00    +0.000 A 
ATOM     17  C   UNL     1     -10.769   3.087  -6.504  0.00  0.00    +0.000 A 
ATOM     18  C   UNL     1      -9.444   2.855  -6.187  0.00  0.00    +0.002 A 
ENDBRANCH  12  13
BRANCH  12  19
ATOM     19  N   UNL     1      -7.447   1.088  -4.105  0.00  0.00    +0.385 N 
ATOM     20  H   UNL     1      -6.609   1.043  -3.395  0.00  0.00    -0.081 HD
BRANCH  19  22
ATOM     21  C   UNL     1      -8.600   1.012  -1.946  0.00  0.00    -0.017 C 
ATOM     22  C   UNL     1      -8.648   0.595  -3.417  0.00  0.00    -0.081 C 
ENDBRANCH  19  22
BRANCH  19  23
ATOM     23  C   UNL     1      -7.112   0.236  -5.254  0.00  0.00    -0.081 C 
ATOM     24  C   UNL     1      -5.659   0.481  -5.664  0.00  0.00    -0.017 C 
ENDBRANCH  19  23
ENDBRANCH  12  19
ENDBRANCH  11  12
ENDBRANCH   7  11
ENDBRANCH   1   8
BRANCH   4  25
ATOM     25  S   UNL     1      -1.166   2.178   1.787  0.00  0.00    +0.062 S 
ATOM     26  O   UNL     1      -0.650   0.869   1.585  0.00  0.00    -0.153 OA
ATOM     27  O   UNL     1      -0.353   3.257   2.226  0.00  0.00    -0.153 OA
BRANCH  25  28
ATOM     28  C   UNL     1      -2.478   2.028   2.954  0.00  0.00    +0.124 A 
ATOM     29  C   UNL     1      -3.225   0.875   3.209  0.00  0.00    +0.061 A 
ATOM     30  C   UNL     1      -4.142   1.194   4.187  0.00  0.00    +0.106 A 
ATOM     31  N   UNL     1      -3.952   2.517   4.518  0.00  0.00    -0.344 N 
ATOM     32  C   UNL     1      -2.937   3.009   3.767  0.00  0.00    +0.114 A 
ATOM     33  C   UNL     1      -4.716   3.266   5.519  0.00  0.00    +0.149 C 
BRANCH  30  34
ATOM     34  C   UNL     1      -5.139   0.289   4.769  0.00  0.00    +0.258 C 
ATOM     35  O   UNL     1      -5.956   0.715   5.565  0.00  0.00    -0.269 OA
ATOM     36  N   UNL     1      -5.151  -1.013   4.424  0.00  0.00    -0.324 N 
ATOM     37  H   UNL     1      -5.899  -1.691   4.861  0.00  0.00    +0.145 HD
ATOM     38  H   UNL     1      -4.412  -1.398   3.705  0.00  0.00    +0.145 HD
ENDBRANCH  30  34
ENDBRANCH  25  28
ENDBRANCH   4  25
TORSDOF 10
