REMARK  Name = ZINC16271270
REMARK  7 active torsions:
REMARK  status: ('A' for Active; 'I' for Inactive)
REMARK    1  A    between atoms: C_1  and  N_2
REMARK    2  A    between atoms: C_6  and  C_7
REMARK    3  A    between atoms: N_9  and  N_10
REMARK    4  A    between atoms: C_11  and  C_13
REMARK    5  A    between atoms: C_16  and  C_18
REMARK    6  A    between atoms: C_21  and  O_24
REMARK    7  A    between atoms: O_24  and  C_25
REMARK                            x       y       z     vdW  Elec       q    Type
REMARK                         _______ _______ _______ _____ _____    ______ ____
ROOT
ATOM      1  N   UNL     1      -0.038   4.181   0.930  0.00  0.00    -0.229 N 
ATOM      2  C   UNL     1       1.132   3.532   1.095  0.00  0.00    +0.279 C 
ATOM      3  O   UNL     1       2.181   4.143   1.025  0.00  0.00    -0.267 OA
ATOM      4  H   UNL     1      -0.875   3.694   0.987  0.00  0.00    +0.173 HD
ENDROOT
BRANCH   2   5
ATOM      5  C   UNL     1       1.139   2.083   1.361  0.00  0.00    +0.135 A 
ATOM      6  C   UNL     1       2.325   1.414   1.530  0.00  0.00    +0.080 A 
ATOM      7  S   UNL     1       1.772  -0.209   1.805  0.00  0.00    -0.075 S 
ATOM      8  C   UNL     1       0.020   0.111   1.677  0.00  0.00    +0.109 A 
ATOM      9  N   UNL     1       0.001   1.409   1.439  0.00  0.00    -0.234 NA
BRANCH   8  10
ATOM     10  C   UNL     1      -1.112  -0.832   1.805  0.00  0.00    +0.007 A 
ATOM     11  C   UNL     1      -2.423  -0.371   1.675  0.00  0.00    +0.014 A 
ATOM     12  C   UNL     1      -3.476  -1.254   1.789  0.00  0.00    +0.046 A 
ATOM     13  C   UNL     1      -3.234  -2.597   2.043  0.00  0.00    +0.120 A 
ATOM     14  C   UNL     1      -1.931  -3.058   2.179  0.00  0.00    +0.046 A 
ATOM     15  C   UNL     1      -0.873  -2.183   2.061  0.00  0.00    +0.014 A 
BRANCH  13  16
ATOM     16  O   UNL     1      -4.274  -3.463   2.160  0.00  0.00    -0.495 OA
ATOM     17  C   UNL     1      -5.588  -2.922   2.009  0.00  0.00    +0.277 C 
ENDBRANCH  13  16
ENDBRANCH   8  10
ENDBRANCH   2   5
BRANCH   1  20
ATOM     18  C   UNL     1      -1.215   6.208   0.513  0.00  0.00    +0.277 C 
ATOM     19  O   UNL     1      -2.259   5.582   0.481  0.00  0.00    -0.267 OA
ATOM     20  N   UNL     1      -0.045   5.559   0.678  0.00  0.00    -0.229 N 
ATOM     21  H   UNL     1       0.791   6.046   0.622  0.00  0.00    +0.173 HD
BRANCH  18  27
ATOM     22  C   UNL     1      -3.737   7.998   0.340  0.00  0.00    +0.149 C 
ATOM     23  N   UNL     1      -2.350   8.466   0.295  0.00  0.00    -0.345 N 
ATOM     24  C   UNL     1      -1.954   9.757   0.171  0.00  0.00    +0.101 A 
ATOM     25  C   UNL     1      -0.600   9.801   0.167  0.00  0.00    +0.036 A 
ATOM     26  C   UNL     1      -0.127   8.491   0.299  0.00  0.00    +0.047 A 
ATOM     27  C   UNL     1      -1.231   7.668   0.372  0.00  0.00    +0.107 A 
ATOM     28 BR   UNL     1       0.463  11.358   0.017  0.00  0.00    -0.049 Br
ENDBRANCH  18  27
ENDBRANCH   1  20
TORSDOF 5
