REMARK  Name = ZINC58264182
REMARK  4 active torsions:
REMARK  status: ('A' for Active; 'I' for Inactive)
REMARK    1  A    between atoms: C_1  and  C_2
REMARK    2  A    between atoms: N_10  and  C_13
REMARK    3  A    between atoms: C_13  and  C_14
REMARK    4  A    between atoms: C_17  and  C_19
REMARK                            x       y       z     vdW  Elec       q    Type
REMARK                         _______ _______ _______ _____ _____    ______ ____
ROOT
ATOM      1  C   UNL     1      -0.018   1.503   0.010  0.00  0.00    +0.044 C 
ATOM      2  C   UNL     1       0.002  -0.004   0.002  0.00  0.00    -0.050 A 
ATOM      3  C   UNL     1       0.006  -0.686  -1.208  0.00  0.00    +0.005 A 
ATOM      4  C   UNL     1       0.024  -2.062  -1.242  0.00  0.00    +0.029 A 
ATOM      5  C   UNL     1       0.040  -2.783  -0.046  0.00  0.00    +0.078 A 
ATOM      6  C   UNL     1       0.037  -2.087   1.182  0.00  0.00    +0.065 A 
ATOM      7  C   UNL     1       0.023  -0.693   1.195  0.00  0.00    +0.018 A 
ATOM      8  C   UNL     1       0.053  -2.875   2.423  0.00  0.00    +0.262 A 
ATOM      9  O   UNL     1       0.051  -2.337   3.515  0.00  0.00    -0.267 OA
ATOM     10  N   UNL     1       0.071  -4.223   2.304  0.00  0.00    -0.293 N 
ATOM     11  C   UNL     1       0.073  -4.810   1.079  0.00  0.00    +0.203 A 
ATOM     12  N   UNL     1       0.058  -4.140  -0.034  0.00  0.00    -0.237 NA
ENDROOT
BRANCH  10  13
ATOM     13  C   UNL     1       0.087  -5.058   3.508  0.00  0.00    +0.184 C 
BRANCH  13  14
ATOM     14  C   UNL     1      -1.327  -5.363   3.928  0.00  0.00    +0.100 A 
ATOM     15  C   UNL     1      -2.027  -6.466   3.608  0.00  0.00    +0.222 A 
ATOM     16  O   UNL     1      -3.244  -6.349   4.179  0.00  0.00    -0.443 OA
ATOM     17  C   UNL     1      -3.275  -5.178   4.840  0.00  0.00    +0.234 A 
ATOM     18  N   UNL     1      -2.110  -4.585   4.691  0.00  0.00    -0.212 NA
BRANCH  17  19
ATOM     19  C   UNL     1      -4.415  -4.652   5.605  0.00  0.00    +0.074 A 
ATOM     20  C   UNL     1      -5.658  -5.219   5.816  0.00  0.00    +0.021 A 
ATOM     21  C   UNL     1      -6.572  -4.528   6.577  0.00  0.00    +0.008 A 
ATOM     22  C   UNL     1      -6.228  -3.319   7.094  0.00  0.00    +0.046 A 
ATOM     23  S   UNL     1      -4.553  -3.120   6.510  0.00  0.00    -0.092 S 
ENDBRANCH  17  19
ENDBRANCH  13  14
ENDBRANCH  10  13
TORSDOF 3
