REMARK  Name = ZINC39543255
REMARK  11 active torsions:
REMARK  status: ('A' for Active; 'I' for Inactive)
REMARK    1  A    between atoms: C_1  and  C_2
REMARK    2  A    between atoms: C_2  and  N_3
REMARK    3  A    between atoms: N_3  and  C_4
REMARK    4  A    between atoms: C_4  and  C_5
REMARK    5  A    between atoms: N_7  and  C_8
REMARK    6  A    between atoms: C_8  and  C_9
REMARK    7  A    between atoms: C_16  and  C_18
REMARK    8  A    between atoms: C_18  and  N_19
REMARK    9  A    between atoms: C_24  and  C_31
REMARK   10  A    between atoms: C_27  and  C_29
REMARK   11  A    between atoms: C_27  and  C_30
REMARK                            x       y       z     vdW  Elec       q    Type
REMARK                         _______ _______ _______ _____ _____    ______ ____
ROOT
ATOM      1  N   UNL     1       0.937  -0.550  -1.306  0.00  0.00    -0.292 N 
ATOM      2  C   UNL     1       0.195  -0.764  -2.411  0.00  0.00    +0.234 C 
ATOM      3  O   UNL     1       0.724  -1.155  -3.430  0.00  0.00    -0.274 OA
ENDROOT
BRANCH   1   5
ATOM      4  C   UNL     1       0.294   1.453  -0.058  0.00  0.00    +0.024 C 
ATOM      5  C   UNL     1       0.298  -0.077  -0.075  0.00  0.00    +0.105 C 
ENDBRANCH   1   5
BRANCH   1   6
ATOM      6  C   UNL     1       2.381  -0.790  -1.336  0.00  0.00    +0.203 C 
BRANCH   6   7
ATOM      7  C   UNL     1       2.661  -2.217  -0.941  0.00  0.00    +0.231 C 
ATOM      8  O   UNL     1       1.744  -2.961  -0.663  0.00  0.00    -0.274 OA
ATOM      9  N   UNL     1       3.931  -2.668  -0.898  0.00  0.00    -0.310 N 
ATOM     10  H   UNL     1       4.664  -2.074  -1.121  0.00  0.00    +0.149 HD
BRANCH   9  11
ATOM     11  C   UNL     1       4.203  -4.055  -0.514  0.00  0.00    +0.139 C 
BRANCH  11  12
ATOM     12  C   UNL     1       5.689  -4.303  -0.545  0.00  0.00    -0.030 A 
ATOM     13  C   UNL     1       6.293  -4.743  -1.708  0.00  0.00    +0.008 A 
ATOM     14  C   UNL     1       7.655  -4.970  -1.738  0.00  0.00    +0.038 A 
ATOM     15  C   UNL     1       8.417  -4.755  -0.602  0.00  0.00    +0.123 A 
ATOM     16  C   UNL     1       7.812  -4.314   0.563  0.00  0.00    +0.038 A 
ATOM     17  C   UNL     1       6.450  -4.083   0.589  0.00  0.00    +0.008 A 
ATOM     18  F   UNL     1       9.749  -4.977  -0.629  0.00  0.00    -0.205 F 
ENDBRANCH  11  12
ENDBRANCH   9  11
ENDBRANCH   6   7
ENDBRANCH   1   6
BRANCH   2  19
ATOM     19  C   UNL     1      -1.291  -0.516  -2.380  0.00  0.00    +0.213 C 
BRANCH  19  20
ATOM     20  N   UNL     1      -1.864  -0.820  -3.694  0.00  0.00    -0.215 N 
ATOM     21  C   UNL     1      -1.986   0.077  -4.694  0.00  0.00    +0.247 C 
ATOM     22  O   UNL     1      -1.657   1.244  -4.677  0.00  0.00    -0.273 OA
ATOM     23  C   UNL     1      -2.621  -0.678  -5.839  0.00  0.00    +0.113 C 
ATOM     24  C   UNL     1      -3.967  -0.061  -6.202  0.00  0.00    +0.038 C 
ATOM     25  C   UNL     1      -4.606  -0.858  -7.341  0.00  0.00    -0.011 C 
ATOM     26  C   UNL     1      -3.676  -0.844  -8.556  0.00  0.00    +0.009 C 
ATOM     27  C   UNL     1      -2.339  -1.487  -8.184  0.00  0.00    -0.032 C 
ATOM     28  C   UNL     1      -1.691  -0.692  -7.047  0.00  0.00    +0.041 C 
ATOM     29  C   UNL     1      -1.413  -1.482  -9.402  0.00  0.00    +0.011 C 
ATOM     30  C   UNL     1      -2.575  -2.928  -7.728  0.00  0.00    +0.011 C 
ATOM     31  C   UNL     1      -5.947  -0.224  -7.718  0.00  0.00    +0.007 C 
ATOM     32  N   UNL     1      -2.803  -2.037  -5.313  0.00  0.00    -0.285 N 
ATOM     33  C   UNL     1      -2.326  -2.024  -4.053  0.00  0.00    +0.310 C 
ATOM     34  O   UNL     1      -2.318  -2.996  -3.324  0.00  0.00    -0.252 OA
ATOM     35  H   UNL     1      -3.187  -2.794  -5.781  0.00  0.00    +0.151 HD
ENDBRANCH  19  20
ENDBRANCH   2  19
TORSDOF 7
