REMARK  Name = ZINC36366551
REMARK  3 active torsions:
REMARK  status: ('A' for Active; 'I' for Inactive)
REMARK    1  A    between atoms: C_5  and  N_7
REMARK    2  A    between atoms: C_16  and  C_18
REMARK    3  A    between atoms: C_21  and  O_24
REMARK                            x       y       z     vdW  Elec       q    Type
REMARK                         _______ _______ _______ _____ _____    ______ ____
ROOT
ATOM      1  N   UNL     1       1.235  -2.084  -0.022  0.00  0.00    -0.284 N 
ATOM      2  C   UNL     1       0.780  -2.900  -1.019  0.00  0.00    +0.205 A 
ATOM      3  N   UNL     1       0.970  -4.145  -0.663  0.00  0.00    -0.238 NA
ATOM      4  C   UNL     1       1.538  -4.177   0.541  0.00  0.00    +0.089 A 
ATOM      5  C   UNL     1       1.719  -2.893   0.958  0.00  0.00    +0.133 A 
ATOM      6  N   UNL     1       2.307  -2.589   2.187  0.00  0.00    -0.270 N 
ATOM      7  C   UNL     1       2.448  -3.588   3.086  0.00  0.00    +0.219 C 
ATOM      8  O   UNL     1       3.060  -3.374   4.111  0.00  0.00    -0.275 OA
ATOM      9  C   UNL     1       1.873  -4.956   2.855  0.00  0.00    +0.110 C 
ATOM     10  C   UNL     1       1.951  -5.358   1.383  0.00  0.00    +0.080 C 
ATOM     11  H   UNL     1       2.604  -1.688   2.390  0.00  0.00    +0.156 HD
ENDROOT
BRANCH   1  16
ATOM     12  C   UNL     1      -0.017   1.377   0.010  0.00  0.00    +0.002 A 
ATOM     13  C   UNL     1       1.170   2.087   0.002  0.00  0.00    +0.003 A 
ATOM     14  C   UNL     1       2.380   1.418  -0.013  0.00  0.00    +0.040 A 
ATOM     15  C   UNL     1       2.405   0.035  -0.021  0.00  0.00    +0.147 A 
ATOM     16  C   UNL     1       1.214  -0.681  -0.013  0.00  0.00    +0.084 A 
ATOM     17  C   UNL     1       0.002  -0.004   0.002  0.00  0.00    +0.029 A 
ATOM     18  F   UNL     1       3.587  -0.620  -0.038  0.00  0.00    -0.203 F 
ENDBRANCH   1  16
BRANCH  10  19
ATOM     19  C   UNL     1       3.368  -5.747   1.050  0.00  0.00    -0.038 A 
ATOM     20  C   UNL     1       4.394  -4.838   1.234  0.00  0.00    +0.008 A 
ATOM     21  C   UNL     1       5.694  -5.192   0.930  0.00  0.00    +0.045 A 
ATOM     22  C   UNL     1       5.970  -6.461   0.440  0.00  0.00    +0.117 A 
ATOM     23  C   UNL     1       4.939  -7.370   0.257  0.00  0.00    +0.045 A 
ATOM     24  C   UNL     1       3.641  -7.013   0.567  0.00  0.00    +0.008 A 
BRANCH  22  25
ATOM     25  O   UNL     1       7.248  -6.811   0.140  0.00  0.00    -0.507 OA
ATOM     26  H   UNL     1       7.732  -7.207   0.878  0.00  0.00    +0.292 HD
ENDBRANCH  22  25
ENDBRANCH  10  19
TORSDOF 3
