REMARK  Name = ZINC20765627
REMARK  6 active torsions:
REMARK  status: ('A' for Active; 'I' for Inactive)
REMARK    1  A    between atoms: C_1  and  C_2
REMARK    2  A    between atoms: C_6  and  C_30
REMARK    3  A    between atoms: C_7  and  N_8
REMARK    4  A    between atoms: N_8  and  S_9
REMARK    5  A    between atoms: S_9  and  C_12
REMARK    6  A    between atoms: C_22  and  C_24
REMARK                            x       y       z     vdW  Elec       q    Type
REMARK                         _______ _______ _______ _____ _____    ______ ____
ROOT
ATOM      1  C   UNL     1       4.266   3.901   0.570  0.00  0.00    +0.109 A 
ATOM      2  C   UNL     1       2.995   3.466   0.239  0.00  0.00    +0.030 A 
ATOM      3  C   UNL     1       2.700   2.118   0.268  0.00  0.00    +0.026 A 
ATOM      4  C   UNL     1       3.678   1.199   0.629  0.00  0.00    +0.040 A 
ATOM      5  C   UNL     1       4.952   1.634   0.956  0.00  0.00    -0.024 A 
ATOM      6  C   UNL     1       5.240   2.989   0.926  0.00  0.00    +0.034 A 
ATOM      7  C   UNL     1       6.040   0.666   1.340  0.00  0.00    +0.038 C 
ATOM      8  C   UNL     1       5.438  -0.661   1.802  0.00  0.00    +0.024 C 
ATOM      9  C   UNL     1       4.443  -1.149   0.746  0.00  0.00    +0.114 C 
ATOM     10  N   UNL     1       3.356  -0.165   0.656  0.00  0.00    -0.267 N 
ATOM     11  C   UNL     1       2.071  -0.566   0.606  0.00  0.00    +0.251 C 
ATOM     12  O   UNL     1       1.181   0.255   0.493  0.00  0.00    -0.270 OA
ENDROOT
BRANCH  11  13
ATOM     13  C   UNL     1       1.742  -2.005   0.689  0.00  0.00    +0.037 A 
ATOM     14  C   UNL     1       0.541  -2.417   1.269  0.00  0.00    +0.013 A 
ATOM     15  C   UNL     1       0.240  -3.762   1.343  0.00  0.00    +0.001 A 
ATOM     16  C   UNL     1       1.127  -4.700   0.846  0.00  0.00    +0.000 A 
ATOM     17  C   UNL     1       2.319  -4.298   0.271  0.00  0.00    +0.001 A 
ATOM     18  C   UNL     1       2.631  -2.957   0.189  0.00  0.00    +0.013 A 
ENDBRANCH  11  13
BRANCH   1  19
ATOM     19  S   UNL     1       4.644   5.621   0.535  0.00  0.00    +0.072 S 
ATOM     20  O   UNL     1       6.030   5.727   0.244  0.00  0.00    -0.150 OA
ATOM     21  O   UNL     1       3.647   6.240  -0.267  0.00  0.00    -0.150 OA
BRANCH  19  22
ATOM     22  N   UNL     1       4.438   6.199   2.074  0.00  0.00    -0.216 N 
ATOM     23  H   UNL     1       3.615   6.894   2.295  0.00  0.00    +0.174 HD
BRANCH  22  30
ATOM     24  C   UNL     1       3.503   4.306   3.981  0.00  0.00    +0.046 C 
ATOM     25  C   UNL     1       4.895   4.880   4.043  0.00  0.00    -0.028 A 
ATOM     26  C   UNL     1       5.761   4.487   5.045  0.00  0.00    +0.005 A 
ATOM     27  C   UNL     1       7.036   5.019   5.106  0.00  0.00    +0.001 A 
ATOM     28  C   UNL     1       7.451   5.941   4.162  0.00  0.00    +0.005 A 
ATOM     29  C   UNL     1       6.591   6.334   3.155  0.00  0.00    -0.028 A 
ATOM     30  C   UNL     1       5.310   5.803   3.091  0.00  0.00    +0.054 A 
ATOM     31  C   UNL     1       7.044   7.339   2.127  0.00  0.00    +0.046 C 
ENDBRANCH  22  30
ENDBRANCH  19  22
ENDBRANCH   1  19
TORSDOF 4
