REMARK  Name = ZINC60554935
REMARK  6 active torsions:
REMARK  status: ('A' for Active; 'I' for Inactive)
REMARK    1  A    between atoms: C_1  and  C_2
REMARK    2  A    between atoms: N_6  and  C_8
REMARK    3  A    between atoms: C_8  and  C_9
REMARK    4  A    between atoms: C_8  and  C_10
REMARK    5  A    between atoms: C_10  and  N_11
REMARK    6  A    between atoms: C_12  and  C_14
REMARK                            x       y       z     vdW  Elec       q    Type
REMARK                         _______ _______ _______ _____ _____    ______ ____
ROOT
ATOM      1  N   UNL     1       0.580  -0.412   3.507  0.00  0.00    -0.312 N 
ATOM      2  C   UNL     1       0.077   0.345   4.502  0.00  0.00    +0.260 C 
ATOM      3  O   UNL     1      -0.276  -0.174   5.543  0.00  0.00    -0.269 OA
ATOM      4  H   UNL     1       0.862   0.003   2.677  0.00  0.00    +0.149 HD
ENDROOT
BRANCH   2   5
ATOM      5  C   UNL     1      -0.044   1.805   4.329  0.00  0.00    +0.105 A 
ATOM      6  C   UNL     1      -0.547   2.548   5.346  0.00  0.00    +0.039 A 
ATOM      7  C   UNL     1      -0.671   3.996   5.184  0.00  0.00    -0.011 A 
ATOM      8  C   UNL     1      -1.182   4.809   6.198  0.00  0.00    +0.009 A 
ATOM      9  C   UNL     1      -1.277   6.168   5.996  0.00  0.00    +0.001 A 
ATOM     10  C   UNL     1      -0.872   6.737   4.796  0.00  0.00    +0.001 A 
ATOM     11  C   UNL     1      -0.365   5.954   3.781  0.00  0.00    +0.014 A 
ATOM     12  C   UNL     1      -0.258   4.577   3.962  0.00  0.00    +0.046 A 
ATOM     13  C   UNL     1       0.276   3.697   2.913  0.00  0.00    +0.257 A 
ATOM     14  O   UNL     1       0.641   4.162   1.849  0.00  0.00    -0.267 OA
ATOM     15  N   UNL     1       0.363   2.372   3.141  0.00  0.00    -0.318 N 
ATOM     16  H   UNL     1       0.720   1.798   2.445  0.00  0.00    +0.169 HD
ENDBRANCH   2   5
BRANCH   1  17
ATOM     17  C   UNL     1       0.700  -1.862   3.680  0.00  0.00    +0.089 C 
BRANCH  17  18
ATOM     18  C   UNL     1       1.400  -2.464   2.460  0.00  0.00    -0.054 C 
ATOM     19  C   UNL     1       1.450  -3.987   2.601  0.00  0.00    -0.012 C 
BRANCH  18  25
ATOM     20  C   UNL     1       1.452  -2.604  -2.433  0.00  0.00    +0.005 C 
ATOM     21  C   UNL     1       0.673  -2.127  -1.206  0.00  0.00    -0.031 C 
ATOM     22  C   UNL     1      -0.730  -2.741  -1.220  0.00  0.00    -0.001 C 
ATOM     23  C   UNL     1      -1.474  -2.320   0.050  0.00  0.00    -0.018 C 
ATOM     24  C   UNL     1      -0.664  -2.751   1.275  0.00  0.00    -0.078 C 
ATOM     25  N   UNL     1       0.656  -2.110   1.244  0.00  0.00    +0.383 N 
ATOM     26  C   UNL     1       1.403  -2.564   0.065  0.00  0.00    -0.075 C 
ATOM     27  H   UNL     1       0.541  -1.108   1.202  0.00  0.00    -0.081 HD
ENDBRANCH  18  25
ENDBRANCH  17  18
ENDBRANCH   1  17
TORSDOF 4
