REMARK  Name = ZINC35757914
REMARK  13 active torsions:
REMARK  status: ('A' for Active; 'I' for Inactive)
REMARK    1  A    between atoms: C_1  and  C_2
REMARK    2  A    between atoms: C_5  and  C_8
REMARK    3  A    between atoms: C_8  and  N_9
REMARK    4  A    between atoms: C_10  and  C_34
REMARK    5  A    between atoms: C_12  and  C_17
REMARK    6  A    between atoms: C_21  and  N_23
REMARK    7  A    between atoms: C_24  and  C_26
REMARK    8  A    between atoms: C_31  and  O_32
REMARK    9  A    between atoms: O_32  and  C_33
REMARK   10  A    between atoms: N_36  and  C_37
REMARK   11  A    between atoms: C_37  and  C_38
REMARK   12  A    between atoms: C_38  and  C_39
REMARK   13  A    between atoms: C_38  and  C_40
REMARK                            x       y       z     vdW  Elec       q    Type
REMARK                         _______ _______ _______ _____ _____    ______ ____
ROOT
ATOM      1  N   UNL     1       1.591  -5.124   0.301  0.00  0.00    -0.248 N 
ATOM      2  C   UNL     1       2.342  -5.368  -0.946  0.00  0.00    +0.210 C 
ATOM      3  C   UNL     1       3.650  -6.007  -0.420  0.00  0.00    +0.238 C 
ATOM      4  O   UNL     1       3.708  -5.505   0.929  0.00  0.00    -0.440 OA
ATOM      5  C   UNL     1       2.453  -5.236   1.328  0.00  0.00    +0.405 C 
ATOM      6  O   UNL     1       2.131  -5.111   2.493  0.00  0.00    -0.226 OA
ENDROOT
BRANCH   3   7
ATOM      7  C   UNL     1       4.837  -5.538  -1.221  0.00  0.00    -0.003 A 
ATOM      8  C   UNL     1       5.468  -4.352  -0.892  0.00  0.00    +0.007 A 
ATOM      9  C   UNL     1       6.558  -3.919  -1.624  0.00  0.00    +0.002 A 
ATOM     10  C   UNL     1       7.021  -4.670  -2.687  0.00  0.00    +0.023 A 
ATOM     11  C   UNL     1       6.390  -5.862  -3.020  0.00  0.00    +0.034 A 
ATOM     12  C   UNL     1       5.299  -6.297  -2.279  0.00  0.00    +0.030 A 
BRANCH  11  13
ATOM     13  N   UNL     1       6.856  -6.625  -4.095  0.00  0.00    -0.281 N 
ATOM     14  C   UNL     1       8.173  -6.651  -4.382  0.00  0.00    +0.252 C 
ATOM     15  O   UNL     1       8.966  -6.090  -3.651  0.00  0.00    -0.270 OA
ATOM     16  H   UNL     1       6.232  -7.135  -4.634  0.00  0.00    +0.155 HD
BRANCH  14  17
ATOM     17  C   UNL     1       8.652  -7.360  -5.584  0.00  0.00    +0.079 A 
ATOM     18  C   UNL     1       7.743  -8.000  -6.430  0.00  0.00    +0.017 A 
ATOM     19  C   UNL     1       8.197  -8.660  -7.551  0.00  0.00    +0.001 A 
ATOM     20  C   UNL     1       9.551  -8.692  -7.844  0.00  0.00    +0.004 A 
ATOM     21  C   UNL     1      10.460  -8.064  -7.016  0.00  0.00    +0.046 A 
ATOM     22  C   UNL     1      10.020  -7.389  -5.886  0.00  0.00    +0.132 A 
BRANCH  22  23
ATOM     23  O   UNL     1      10.911  -6.766  -5.075  0.00  0.00    -0.494 OA
ATOM     24  C   UNL     1      12.289  -6.839  -5.447  0.00  0.00    +0.277 C 
ENDBRANCH  22  23
ENDBRANCH  14  17
ENDBRANCH  11  13
ENDBRANCH   3   7
BRANCH   2  25
ATOM     25  C   UNL     1       2.624  -4.073  -1.665  0.00  0.00    +0.238 C 
ATOM     26  O   UNL     1       2.553  -3.020  -1.067  0.00  0.00    -0.274 OA
ATOM     27  N   UNL     1       2.955  -4.086  -2.971  0.00  0.00    -0.313 N 
ATOM     28  H   UNL     1       3.011  -4.928  -3.449  0.00  0.00    +0.149 HD
BRANCH  27  29
ATOM     29  C   UNL     1       3.228  -2.827  -3.670  0.00  0.00    +0.107 C 
BRANCH  29  30
ATOM     30  C   UNL     1       3.577  -3.120  -5.130  0.00  0.00    -0.000 C 
ATOM     31  C   UNL     1       2.357  -3.717  -5.835  0.00  0.00    +0.009 C 
ATOM     32  C   UNL     1       3.984  -1.821  -5.828  0.00  0.00    +0.009 C 
ENDBRANCH  29  30
ENDBRANCH  27  29
ENDBRANCH   2  25
BRANCH   1  33
ATOM     33  C   UNL     1       0.163  -4.810   0.402  0.00  0.00    +0.147 C 
BRANCH  33  38
ATOM     34  C   UNL     1      -0.573   0.917   0.159  0.00  0.00    +0.044 C 
ATOM     35  C   UNL     1      -0.381  -0.577   0.222  0.00  0.00    -0.050 A 
ATOM     36  C   UNL     1      -0.390  -1.325  -0.940  0.00  0.00    +0.003 A 
ATOM     37  C   UNL     1      -0.214  -2.694  -0.882  0.00  0.00    +0.005 A 
ATOM     38  C   UNL     1      -0.028  -3.316   0.338  0.00  0.00    -0.030 A 
ATOM     39  C   UNL     1      -0.018  -2.568   1.501  0.00  0.00    +0.005 A 
ATOM     40  C   UNL     1      -0.190  -1.198   1.442  0.00  0.00    +0.003 A 
ENDBRANCH  33  38
ENDBRANCH   1  33
TORSDOF 9
