REMARK  Name = ZINC33519463
REMARK  12 active torsions:
REMARK  status: ('A' for Active; 'I' for Inactive)
REMARK    1  A    between atoms: C_1  and  C_2
REMARK    2  A    between atoms: C_2  and  O_3
REMARK    3  A    between atoms: O_3  and  C_4
REMARK    4  A    between atoms: C_4  and  C_5
REMARK    5  A    between atoms: C_5  and  C_6
REMARK    6  A    between atoms: C_6  and  N_7
REMARK    7  A    between atoms: N_7  and  C_8
REMARK    8  A    between atoms: C_9  and  C_20
REMARK    9  A    between atoms: C_14  and  C_19
REMARK   10  A    between atoms: N_24  and  C_28
REMARK   11  A    between atoms: C_28  and  C_30
REMARK   12  A    between atoms: C_28  and  C_31
REMARK                            x       y       z     vdW  Elec       q    Type
REMARK                         _______ _______ _______ _____ _____    ______ ____
ROOT
ATOM      1  C   UNL     1       3.833  -0.398   0.113  0.00  0.00    +0.134 A 
ATOM      2  C   UNL     1       2.563   0.220   0.036  0.00  0.00    +0.081 A 
ATOM      3  C   UNL     1       1.413  -0.605   0.030  0.00  0.00    +0.267 A 
ATOM      4  O   UNL     1       0.299  -0.115  -0.031  0.00  0.00    -0.267 OA
ATOM      5  N   UNL     1       1.572  -1.945   0.087  0.00  0.00    -0.267 N 
ATOM      6  C   UNL     1       0.470  -2.748   0.076  0.00  0.00    +0.099 A 
ATOM      7  C   UNL     1       0.593  -4.093   0.138  0.00  0.00    -0.034 A 
ATOM      8  C   UNL     1       1.864  -4.680   0.213  0.00  0.00    +0.008 A 
ATOM      9  C   UNL     1       2.972  -3.885   0.224  0.00  0.00    +0.047 A 
ATOM     10  C   UNL     1       2.825  -2.488   0.160  0.00  0.00    +0.142 A 
ATOM     11  N   UNL     1       3.914  -1.720   0.172  0.00  0.00    -0.214 NA
ATOM     12  C   UNL     1      -0.637  -4.962   0.124  0.00  0.00    +0.045 C 
ENDROOT
BRANCH   2  13
ATOM     13  C   UNL     1       2.445   1.628  -0.028  0.00  0.00    +0.037 C 
ATOM     14  C   UNL     1       1.953   2.222  -1.154  0.00  0.00    +0.077 C 
ATOM     15  C   UNL     1       1.598   1.639  -2.404  0.00  0.00    +0.259 C 
ATOM     16  O   UNL     1       1.714   0.440  -2.591  0.00  0.00    -0.269 OA
ATOM     17  N   UNL     1       1.143   2.435  -3.356  0.00  0.00    -0.248 N 
ATOM     18  C   UNL     1       1.009   3.763  -3.146  0.00  0.00    +0.121 C 
ATOM     19  S   UNL     1       0.443   4.968  -4.221  0.00  0.00    -0.027 S 
ATOM     20  S   UNL     1       1.581   3.943  -1.462  0.00  0.00    -0.061 S 
BRANCH  17  21
ATOM     21  C   UNL     1       0.774   1.868  -4.655  0.00  0.00    +0.110 C 
ATOM     22  C   UNL     1      -0.382   0.883  -4.472  0.00  0.00    +0.033 C 
BRANCH  21  23
ATOM     23  C   UNL     1       1.959   1.148  -5.245  0.00  0.00    -0.027 A 
ATOM     24  C   UNL     1       3.229   1.673  -5.098  0.00  0.00    +0.005 A 
ATOM     25  C   UNL     1       4.317   1.011  -5.636  0.00  0.00    +0.000 A 
ATOM     26  C   UNL     1       4.134  -0.172  -6.326  0.00  0.00    +0.000 A 
ATOM     27  C   UNL     1       2.863  -0.695  -6.477  0.00  0.00    +0.000 A 
ATOM     28  C   UNL     1       1.776  -0.035  -5.936  0.00  0.00    +0.005 A 
ENDBRANCH  21  23
ENDBRANCH  17  21
ENDBRANCH   2  13
BRANCH   1  29
ATOM     29  N   UNL     1       4.978   0.368   0.128  0.00  0.00    -0.328 N 
ATOM     30  H   UNL     1       4.907   1.465   0.079  0.00  0.00    +0.147 HD
BRANCH  29  31
ATOM     31  C   UNL     1       6.291  -0.278   0.208  0.00  0.00    +0.105 C 
BRANCH  31  32
ATOM     32  C   UNL     1       7.386   0.791   0.207  0.00  0.00    +0.047 C 
BRANCH  32  33
ATOM     33  C   UNL     1       8.757   0.116   0.291  0.00  0.00    +0.161 C 
BRANCH  33  34
ATOM     34  O   UNL     1       9.779   1.114   0.290  0.00  0.00    -0.380 OA
BRANCH  34  36
ATOM     35  C   UNL     1      12.113   1.739   0.358  0.00  0.00    +0.034 C 
ATOM     36  C   UNL     1      11.105   0.588   0.366  0.00  0.00    +0.156 C 
ENDBRANCH  34  36
ENDBRANCH  33  34
ENDBRANCH  32  33
ENDBRANCH  31  32
ENDBRANCH  29  31
ENDBRANCH   1  29
TORSDOF 9
