REMARK  Name = ZINC13511266
REMARK  4 active torsions:
REMARK  status: ('A' for Active; 'I' for Inactive)
REMARK    1  A    between atoms: C_4  and  N_7
REMARK    2  A    between atoms: C_11  and  C_20
REMARK    3  A    between atoms: C_12  and  N_14
REMARK    4  A    between atoms: N_24  and  C_26
REMARK                            x       y       z     vdW  Elec       q    Type
REMARK                         _______ _______ _______ _____ _____    ______ ____
ROOT
ATOM      1  N   UNL     1      -0.984  -4.537  -0.436  0.00  0.00    -0.327 N 
ATOM      2  C   UNL     1      -0.188  -3.870   0.481  0.00  0.00    +0.102 A 
ATOM      3  C   UNL     1       0.500  -4.603   1.453  0.00  0.00    +0.009 A 
ATOM      4  C   UNL     1       1.285  -3.945   2.352  0.00  0.00    -0.018 A 
ATOM      5  C   UNL     1       1.374  -2.545   2.275  0.00  0.00    +0.093 A 
ATOM      6  C   UNL     1       0.655  -1.870   1.274  0.00  0.00    +0.118 A 
ATOM      7  N   UNL     1      -0.097  -2.550   0.423  0.00  0.00    -0.331 N 
ATOM      8  C   UNL     1       2.062  -4.670   3.417  0.00  0.00    +0.052 C 
ATOM      9  C   UNL     1       1.518  -6.090   3.584  0.00  0.00    +0.090 C 
ATOM     10  N   UNL     1       1.429  -6.714   2.254  0.00  0.00    -0.295 NA
ATOM     11  C   UNL     1       0.348  -6.100   1.476  0.00  0.00    +0.123 C 
ATOM     12  H   UNL     1      -1.070  -5.633  -0.395  0.00  0.00    +0.148 HD
ATOM     13  H   UNL     1      -0.654  -1.994  -0.344  0.00  0.00    +0.168 HD
ENDROOT
BRANCH   1  17
ATOM     14  C   UNL     1      -4.068  -3.408  -3.159  0.00  0.00    +0.000 C 
ATOM     15  C   UNL     1      -2.739  -3.900  -3.734  0.00  0.00    +0.002 C 
ATOM     16  C   UNL     1      -1.980  -4.687  -2.664  0.00  0.00    +0.022 C 
ATOM     17  C   UNL     1      -1.710  -3.783  -1.460  0.00  0.00    +0.072 C 
ATOM     18  C   UNL     1      -3.040  -3.291  -0.884  0.00  0.00    +0.022 C 
ATOM     19  C   UNL     1      -3.799  -2.503  -1.954  0.00  0.00    +0.002 C 
ENDBRANCH   1  17
BRANCH   6  20
ATOM     20  N   UNL     1       0.729  -0.491   1.181  0.00  0.00    -0.316 N 
ATOM     21  C   UNL     1      -0.566   0.080   0.790  0.00  0.00    +0.106 C 
ATOM     22  C   UNL     1      -0.487   1.607   0.838  0.00  0.00    +0.019 C 
ATOM     23  C   UNL     1       0.612   2.087  -0.114  0.00  0.00    +0.003 C 
ATOM     24  C   UNL     1       1.941   1.440   0.286  0.00  0.00    +0.019 C 
ATOM     25  C   UNL     1       1.792  -0.083   0.254  0.00  0.00    +0.106 C 
ENDBRANCH   6  20
BRANCH  10  26
ATOM     26  C   UNL     1       1.237  -8.166   2.366  0.00  0.00    +0.057 C 
ATOM     27  C   UNL     1      -0.031  -8.453   3.173  0.00  0.00    +0.019 C 
ATOM     28  C   UNL     1      -0.230  -9.965   3.290  0.00  0.00    +0.002 C 
ATOM     29  C   UNL     1       0.976 -10.585   3.998  0.00  0.00    +0.000 C 
ATOM     30  C   UNL     1       2.244 -10.299   3.192  0.00  0.00    +0.002 C 
ATOM     31  C   UNL     1       2.443  -8.786   3.075  0.00  0.00    +0.019 C 
ENDBRANCH  10  26
BRANCH   5  32
ATOM     32  C   UNL     1       2.186  -1.816   3.204  0.00  0.00    +0.103 C 
ATOM     33  N   UNL     1       2.829  -1.238   3.940  0.00  0.00    -0.191 NA
ENDBRANCH   5  32
TORSDOF 4
