REMARK  Name = ZINC38661346
REMARK  9 active torsions:
REMARK  status: ('A' for Active; 'I' for Inactive)
REMARK    1  A    between atoms: C_1  and  C_2
REMARK    2  A    between atoms: C_5  and  O_8
REMARK    3  A    between atoms: O_8  and  C_9
REMARK    4  A    between atoms: C_9  and  C_10
REMARK    5  A    between atoms: C_10  and  C_12
REMARK    6  A    between atoms: C_10  and  O_31
REMARK    7  A    between atoms: C_12  and  S_13
REMARK    8  A    between atoms: S_13  and  C_14
REMARK    9  A    between atoms: C_22  and  C_30
REMARK                            x       y       z     vdW  Elec       q    Type
REMARK                         _______ _______ _______ _____ _____    ______ ____
ROOT
ATOM      1  C   UNL     1      -0.130  -9.456   3.777  0.00  0.00    +0.182 C 
ATOM      2  N   UNL     1      -0.219  -8.612   4.790  0.00  0.00    -0.151 NA
ATOM      3  C   UNL     1      -0.316  -9.015   6.057  0.00  0.00    +0.272 C 
ATOM      4  O   UNL     1      -0.399  -8.208   6.968  0.00  0.00    -0.268 OA
ATOM      5  C   UNL     1      -0.322 -10.489   6.328  0.00  0.00    +0.071 C 
ATOM      6  C   UNL     1      -0.348 -11.106   7.521  0.00  0.00    -0.042 C 
ATOM      7  C   UNL     1      -0.208 -10.381   8.857  0.00  0.00    +0.033 C 
ATOM      8  C   UNL     1       0.959 -11.045   9.600  0.00  0.00    +0.008 C 
ATOM      9  C   UNL     1       0.747 -12.556   9.674  0.00  0.00    -0.012 C 
ATOM     10  C   UNL     1       0.744 -13.175   8.274  0.00  0.00    +0.022 C 
ATOM     11  C   UNL     1      -0.459 -12.627   7.500  0.00  0.00    +0.080 C 
ATOM     12  S   UNL     1      -0.278 -12.998   5.715  0.00  0.00    -0.097 S 
ATOM     13  C   UNL     1      -0.228 -11.329   5.114  0.00  0.00    +0.112 C 
ATOM     14  N   UNL     1      -0.141 -10.781   3.929  0.00  0.00    -0.217 NA
ATOM     15  C   UNL     1       1.874 -13.182  10.498  0.00  0.00    +0.007 C 
ENDROOT
BRANCH   1  16
ATOM     16  S   UNL     1       0.002  -8.800   2.147  0.00  0.00    -0.086 S 
BRANCH  16  17
ATOM     17  C   UNL     1      -0.020  -7.003   2.395  0.00  0.00    +0.112 C 
BRANCH  17  18
ATOM     18  C   UNL     1       0.090  -6.300   1.040  0.00  0.00    +0.162 C 
BRANCH  18  19
ATOM     19  O   UNL     1       1.313  -6.679   0.405  0.00  0.00    -0.388 OA
ATOM     20  H   UNL     1       2.106  -6.450   0.910  0.00  0.00    +0.210 HD
ENDBRANCH  18  19
BRANCH  18  21
ATOM     21  C   UNL     1       0.072  -4.785   1.249  0.00  0.00    +0.261 C 
BRANCH  21  22
ATOM     22  O   UNL     1       0.057  -4.129  -0.021  0.00  0.00    -0.489 OA
BRANCH  22  27
ATOM     23  C   UNL     1      -0.018   1.503   0.010  0.00  0.00    +0.044 C 
ATOM     24  C   UNL     1       0.002  -0.004   0.002  0.00  0.00    -0.050 A 
ATOM     25  C   UNL     1       0.006  -0.688  -1.200  0.00  0.00    +0.007 A 
ATOM     26  C   UNL     1       0.024  -2.069  -1.210  0.00  0.00    +0.046 A 
ATOM     27  C   UNL     1       0.039  -2.770  -0.013  0.00  0.00    +0.121 A 
ATOM     28  C   UNL     1       0.036  -2.082   1.191  0.00  0.00    +0.046 A 
ATOM     29  C   UNL     1       0.023  -0.701   1.196  0.00  0.00    +0.007 A 
ENDBRANCH  22  27
ENDBRANCH  21  22
ENDBRANCH  18  21
ENDBRANCH  17  18
ENDBRANCH  16  17
ENDBRANCH   1  16
TORSDOF 7
