REMARK  Name = ZINC36305193
REMARK  14 active torsions:
REMARK  status: ('A' for Active; 'I' for Inactive)
REMARK    1  A    between atoms: C_1  and  N_2
REMARK    2  A    between atoms: C_3  and  O_31
REMARK    3  A    between atoms: C_4  and  C_13
REMARK    4  A    between atoms: C_5  and  C_7
REMARK    5  A    between atoms: C_13  and  N_14
REMARK    6  A    between atoms: N_14  and  C_15
REMARK    7  A    between atoms: N_14  and  C_19
REMARK    8  A    between atoms: C_15  and  C_16
REMARK    9  A    between atoms: C_19  and  C_20
REMARK   10  A    between atoms: C_20  and  C_22
REMARK   11  A    between atoms: C_20  and  O_30
REMARK   12  A    between atoms: C_22  and  O_23
REMARK   13  A    between atoms: O_23  and  C_24
REMARK   14  A    between atoms: O_31  and  C_32
REMARK                            x       y       z     vdW  Elec       q    Type
REMARK                         _______ _______ _______ _____ _____    ______ ____
ROOT
ATOM      1  C   UNL     1      -3.435  -6.482   0.114  0.00  0.00    +0.176 C 
ATOM      2  N   UNL     1      -2.226  -5.656   0.172  0.00  0.00    -0.235 N 
ATOM      3  C   UNL     1      -1.621  -5.053  -0.883  0.00  0.00    +0.221 A 
ATOM      4  C   UNL     1      -0.536  -4.386  -0.411  0.00  0.00    +0.025 A 
ATOM      5  C   UNL     1      -0.477  -4.589   0.980  0.00  0.00    +0.098 A 
ATOM      6  N   UNL     1      -1.496  -5.347   1.327  0.00  0.00    -0.168 NA
ENDROOT
BRANCH   5   7
ATOM      7  C   UNL     1       0.551  -4.040   1.898  0.00  0.00    +0.002 A 
ATOM      8  C   UNL     1       1.896  -4.060   1.534  0.00  0.00    +0.010 A 
ATOM      9  C   UNL     1       2.849  -3.548   2.392  0.00  0.00    +0.001 A 
ATOM     10  C   UNL     1       2.470  -3.015   3.611  0.00  0.00    +0.000 A 
ATOM     11  C   UNL     1       1.137  -2.992   3.977  0.00  0.00    +0.001 A 
ATOM     12  C   UNL     1       0.175  -3.496   3.125  0.00  0.00    +0.010 A 
ENDBRANCH   5   7
BRANCH   4  13
ATOM     13  C   UNL     1       0.432  -3.573  -1.232  0.00  0.00    -0.035 C 
BRANCH  13  14
ATOM     14  N   UNL     1       1.482  -4.452  -1.763  0.00  0.00    +0.384 N 
ATOM     15  H   UNL     1       1.933  -4.936  -1.001  0.00  0.00    -0.081 HD
BRANCH  14  16
ATOM     16  C   UNL     1       2.474  -3.647  -2.488  0.00  0.00    -0.075 C 
BRANCH  16  17
ATOM     17  C   UNL     1       3.104  -2.631  -1.533  0.00  0.00    -0.028 C 
ATOM     18  C   UNL     1       2.844  -1.149  -1.807  0.00  0.00    +0.002 C 
ATOM     19  C   UNL     1       4.225  -1.747  -2.081  0.00  0.00    +0.002 C 
ENDBRANCH  16  17
ENDBRANCH  14  16
BRANCH  14  20
ATOM     20  C   UNL     1       0.883  -5.433  -2.678  0.00  0.00    -0.043 C 
BRANCH  20  21
ATOM     21  C   UNL     1       1.938  -6.465  -3.081  0.00  0.00    +0.135 C 
BRANCH  21  22
ATOM     22  O   UNL     1       2.913  -5.848  -3.923  0.00  0.00    -0.390 OA
ATOM     23  H   UNL     1       2.549  -5.478  -4.740  0.00  0.00    +0.210 HD
ENDBRANCH  21  22
BRANCH  21  24
ATOM     24  C   UNL     1       1.265  -7.614  -3.836  0.00  0.00    +0.258 C 
BRANCH  24  25
ATOM     25  O   UNL     1       2.229  -8.633  -4.109  0.00  0.00    -0.489 OA
BRANCH  25  26
ATOM     26  C   UNL     1       1.792  -9.732  -4.779  0.00  0.00    +0.121 A 
ATOM     27  C   UNL     1       0.464  -9.824  -5.170  0.00  0.00    +0.045 A 
ATOM     28  C   UNL     1       0.022 -10.942  -5.851  0.00  0.00    +0.004 A 
ATOM     29  C   UNL     1       0.901 -11.968  -6.143  0.00  0.00    +0.000 A 
ATOM     30  C   UNL     1       2.225 -11.878  -5.754  0.00  0.00    +0.004 A 
ATOM     31  C   UNL     1       2.674 -10.760  -5.078  0.00  0.00    +0.045 A 
ENDBRANCH  25  26
ENDBRANCH  24  25
ENDBRANCH  21  24
ENDBRANCH  20  21
ENDBRANCH  14  20
ENDBRANCH  13  14
ENDBRANCH   4  13
BRANCH   3  32
ATOM     32  O   UNL     1      -2.027  -5.106  -2.177  0.00  0.00    -0.438 OA
BRANCH  32  33
ATOM     33  C   UNL     1      -2.876  -4.143  -2.619  0.00  0.00    +0.130 A 
ATOM     34  C   UNL     1      -3.218  -3.083  -1.791  0.00  0.00    +0.048 A 
ATOM     35  C   UNL     1      -4.081  -2.104  -2.243  0.00  0.00    +0.023 A 
ATOM     36  C   UNL     1      -4.606  -2.180  -3.521  0.00  0.00    +0.041 A 
ATOM     37  C   UNL     1      -4.266  -3.235  -4.349  0.00  0.00    +0.023 A 
ATOM     38  C   UNL     1      -3.399  -4.213  -3.903  0.00  0.00    +0.048 A 
ATOM     39 CL   UNL     1      -5.691  -0.949  -4.087  0.00  0.00    -0.084 Cl
ENDBRANCH  32  33
ENDBRANCH   3  32
TORSDOF 13
