REMARK  Name = ZINC05834992
REMARK  5 active torsions:
REMARK  status: ('A' for Active; 'I' for Inactive)
REMARK    1  A    between atoms: C_1  and  C_2
REMARK    2  A    between atoms: C_2  and  C_23
REMARK    3  A    between atoms: C_7  and  C_11
REMARK    4  A    between atoms: N_12  and  N_13
REMARK    5  A    between atoms: N_16  and  C_17
REMARK                            x       y       z     vdW  Elec       q    Type
REMARK                         _______ _______ _______ _____ _____    ______ ____
ROOT
ATOM      1  N   UNL     1      -4.601   1.306  -3.985  0.00  0.00    -0.191 N 
ATOM      2  C   UNL     1      -3.949   0.860  -2.893  0.00  0.00    +0.319 C 
ATOM      3  O   UNL     1      -4.310  -0.164  -2.345  0.00  0.00    -0.251 OA
ATOM      4  N   UNL     1      -2.897   1.548  -2.408  0.00  0.00    -0.295 N 
ATOM      5  H   UNL     1      -5.358   0.811  -4.334  0.00  0.00    +0.179 HD
ATOM      6  H   UNL     1      -2.608   2.365  -2.844  0.00  0.00    +0.151 HD
ENDROOT
BRANCH   4   7
ATOM      7  C   UNL     1      -2.188   1.063  -1.221  0.00  0.00    +0.074 C 
ATOM      8  C   UNL     1      -0.753   1.593  -1.232  0.00  0.00    +0.022 C 
ATOM      9  C   UNL     1      -0.013   1.086   0.008  0.00  0.00    +0.002 C 
ATOM     10  C   UNL     1      -0.729   1.579   1.267  0.00  0.00    +0.000 C 
ATOM     11  C   UNL     1      -2.164   1.050   1.278  0.00  0.00    +0.002 C 
ATOM     12  C   UNL     1      -2.904   1.556   0.038  0.00  0.00    +0.022 C 
ENDBRANCH   4   7
BRANCH   1  14
ATOM     13  C   UNL     1      -4.813   2.917  -5.668  0.00  0.00    +0.134 C 
ATOM     14  N   UNL     1      -4.184   2.486  -4.615  0.00  0.00    -0.187 NA
BRANCH  13  20
ATOM     15  C   UNL     1      -6.367   6.780  -8.355  0.00  0.00    +0.012 C 
ATOM     16  C   UNL     1      -5.371   6.193  -7.353  0.00  0.00    -0.025 C 
ATOM     17  C   UNL     1      -3.898   6.398  -7.746  0.00  0.00    -0.000 C 
ATOM     18  C   UNL     1      -2.926   6.118  -6.593  0.00  0.00    +0.031 C 
ATOM     19  C   UNL     1      -3.342   4.860  -5.869  0.00  0.00    -0.021 C 
ATOM     20  C   UNL     1      -4.377   4.152  -6.329  0.00  0.00    -0.028 C 
ATOM     21  C   UNL     1      -5.088   4.685  -7.561  0.00  0.00    +0.026 C 
ATOM     22  C   UNL     1      -4.080   5.147  -8.630  0.00  0.00    +0.013 C 
ATOM     23  C   UNL     1      -5.684   6.571  -5.904  0.00  0.00    +0.012 C 
ENDBRANCH  13  20
ENDBRANCH   1  14
TORSDOF 3
