REMARK  Name = ZINC39220753
REMARK  6 active torsions:
REMARK  status: ('A' for Active; 'I' for Inactive)
REMARK    1  A    between atoms: C_4  and  C_7
REMARK    2  A    between atoms: C_7  and  C_8
REMARK    3  A    between atoms: N_12  and  C_16
REMARK    4  A    between atoms: C_16  and  C_17
REMARK    5  A    between atoms: N_19  and  C_20
REMARK    6  A    between atoms: C_23  and  N_26
REMARK                            x       y       z     vdW  Elec       q    Type
REMARK                         _______ _______ _______ _____ _____    ______ ____
ROOT
ATOM      1  C   UNL     1       6.394  -3.819   2.240  0.00  0.00    +0.214 C 
ENDROOT
BRANCH   1   5
ATOM      2  C   UNL     1       4.210  -0.945   1.365  0.00  0.00    +0.165 C 
ATOM      3  C   UNL     1       5.557  -1.640   1.383  0.00  0.00    +0.244 C 
ATOM      4  O   UNL     1       6.603  -1.223   0.934  0.00  0.00    -0.273 OA
ATOM      5  N   UNL     1       5.350  -2.819   2.003  0.00  0.00    -0.216 N 
ATOM      6  C   UNL     1       4.073  -2.963   2.376  0.00  0.00    +0.310 C 
ATOM      7  O   UNL     1       3.644  -3.943   2.953  0.00  0.00    -0.252 OA
ATOM      8  N   UNL     1       3.315  -1.899   2.042  0.00  0.00    -0.287 N 
ATOM      9  H   UNL     1       2.367  -1.783   2.213  0.00  0.00    +0.151 HD
BRANCH   2  10
ATOM     10  C   UNL     1       3.749  -0.701  -0.073  0.00  0.00    +0.067 C 
BRANCH  10  14
ATOM     11  C   UNL     1       0.051   1.436  -0.043  0.00  0.00    +0.000 A 
ATOM     12  C   UNL     1       1.248   2.127  -0.063  0.00  0.00    +0.000 A 
ATOM     13  C   UNL     1       2.445   1.435  -0.073  0.00  0.00    +0.004 A 
ATOM     14  C   UNL     1       2.445   0.053  -0.061  0.00  0.00    -0.045 A 
ATOM     15  C   UNL     1       1.247  -0.638  -0.040  0.00  0.00    +0.004 A 
ATOM     16  C   UNL     1       0.050   0.054  -0.032  0.00  0.00    +0.000 A 
ENDBRANCH  10  14
ENDBRANCH   2  10
ENDBRANCH   1   5
BRANCH   1  17
ATOM     17  C   UNL     1       7.050  -3.556   3.571  0.00  0.00    +0.235 C 
ATOM     18  O   UNL     1       6.681  -2.625   4.255  0.00  0.00    -0.274 OA
ATOM     19  N   UNL     1       8.046  -4.356   4.002  0.00  0.00    -0.284 N 
ATOM     20  H   UNL     1       8.297  -5.138   3.486  0.00  0.00    +0.155 HD
BRANCH  19  21
ATOM     21  C   UNL     1       8.718  -4.057   5.195  0.00  0.00    +0.034 A 
ATOM     22  C   UNL     1      10.077  -4.319   5.310  0.00  0.00    +0.025 A 
ATOM     23  C   UNL     1      10.739  -4.024   6.485  0.00  0.00    +0.025 A 
ATOM     24  C   UNL     1      10.046  -3.467   7.552  0.00  0.00    +0.030 A 
ATOM     25  C   UNL     1       8.687  -3.206   7.436  0.00  0.00    +0.025 A 
ATOM     26  C   UNL     1       8.026  -3.495   6.259  0.00  0.00    +0.025 A 
BRANCH  24  27
ATOM     27  N   UNL     1      10.717  -3.169   8.743  0.00  0.00    -0.330 N 
ATOM     28  C   UNL     1       9.977  -2.700   9.922  0.00  0.00    +0.105 C 
ATOM     29  C   UNL     1      10.328  -3.597  11.113  0.00  0.00    +0.019 C 
ATOM     30  C   UNL     1      11.847  -3.625  11.295  0.00  0.00    +0.003 C 
ATOM     31  C   UNL     1      12.502  -4.210  10.041  0.00  0.00    +0.019 C 
ATOM     32  C   UNL     1      12.175  -3.325   8.840  0.00  0.00    +0.105 C 
ENDBRANCH  24  27
ENDBRANCH  19  21
ENDBRANCH   1  17
TORSDOF 6
