REMARK  Name = ZINC36229615
REMARK  14 active torsions:
REMARK  status: ('A' for Active; 'I' for Inactive)
REMARK    1  A    between atoms: C_1  and  C_2
REMARK    2  A    between atoms: C_2  and  C_3
REMARK    3  A    between atoms: C_3  and  C_4
REMARK    4  A    between atoms: C_4  and  C_31
REMARK    5  A    between atoms: N_7  and  C_11
REMARK    6  A    between atoms: C_11  and  C_12
REMARK    7  A    between atoms: N_14  and  C_15
REMARK    8  A    between atoms: C_16  and  C_26
REMARK    9  A    between atoms: C_21  and  C_25
REMARK   10  A    between atoms: C_26  and  O_28
REMARK   11  A    between atoms: O_28  and  C_29
REMARK   12  A    between atoms: C_29  and  C_30
REMARK   13  A    between atoms: C_31  and  C_32
REMARK   14  A    between atoms: C_32  and  C_33
REMARK                            x       y       z     vdW  Elec       q    Type
REMARK                         _______ _______ _______ _____ _____    ______ ____
ROOT
ATOM      1  C   UNL     1      -2.646  -3.082  -1.420  0.00  0.00    +0.236 C 
ATOM      2  O   UNL     1      -2.273  -1.943  -1.604  0.00  0.00    -0.274 OA
ATOM      3  N   UNL     1      -3.779  -3.522  -2.002  0.00  0.00    -0.278 N 
ATOM      4  H   UNL     1      -4.078  -4.433  -1.855  0.00  0.00    +0.155 HD
ENDROOT
BRANCH   3   5
ATOM      5  C   UNL     1      -4.518  -2.673  -2.811  0.00  0.00    +0.086 A 
ATOM      6  C   UNL     1      -5.701  -2.948  -3.480  0.00  0.00    +0.091 A 
ATOM      7  C   UNL     1      -6.282  -1.876  -4.270  0.00  0.00    -0.021 A 
ATOM      8  C   UNL     1      -5.574  -0.726  -4.246  0.00  0.00    -0.004 A 
ATOM      9  S   UNL     1      -4.191  -1.072  -3.199  0.00  0.00    -0.077 S 
ATOM     10  C   UNL     1      -5.907   0.551  -4.954  0.00  0.00    +0.046 C 
ATOM     11  C   UNL     1      -6.974   0.249  -6.016  0.00  0.00    -0.009 C 
ATOM     12  C   UNL     1      -8.088  -0.586  -5.377  0.00  0.00    +0.008 C 
ATOM     13  C   UNL     1      -7.572  -1.993  -5.068  0.00  0.00    +0.037 C 
ATOM     14  C   UNL     1      -7.555   1.561  -6.547  0.00  0.00    +0.008 C 
BRANCH   6  15
ATOM     15  C   UNL     1      -6.338  -4.264  -3.396  0.00  0.00    +0.342 C 
ATOM     16  O   UNL     1      -7.152  -4.491  -2.521  0.00  0.00    -0.245 OA
BRANCH  15  17
ATOM     17  O   UNL     1      -6.021  -5.226  -4.287  0.00  0.00    -0.461 OA
BRANCH  17  18
ATOM     18  C   UNL     1      -6.680  -6.485  -4.145  0.00  0.00    +0.229 C 
ATOM     19  C   UNL     1      -6.196  -7.441  -5.238  0.00  0.00    +0.048 C 
ENDBRANCH  17  18
ENDBRANCH  15  17
ENDBRANCH   6  15
ENDBRANCH   3   5
BRANCH   1  20
ATOM     20  C   UNL     1      -1.842  -4.005  -0.541  0.00  0.00    +0.214 C 
BRANCH  20  24
ATOM     21  C   UNL     1       0.763  -2.041   1.233  0.00  0.00    +0.113 C 
ATOM     22  C   UNL     1      -0.644  -2.592   1.117  0.00  0.00    +0.247 C 
ATOM     23  O   UNL     1      -1.560  -2.434   1.896  0.00  0.00    -0.273 OA
ATOM     24  N   UNL     1      -0.666  -3.295  -0.033  0.00  0.00    -0.215 N 
ATOM     25  C   UNL     1       0.519  -3.264  -0.653  0.00  0.00    +0.310 C 
ATOM     26  O   UNL     1       0.745  -3.824  -1.708  0.00  0.00    -0.252 OA
ATOM     27  N   UNL     1       1.433  -2.543   0.021  0.00  0.00    -0.285 N 
ATOM     28  H   UNL     1       2.354  -2.385  -0.239  0.00  0.00    +0.151 HD
BRANCH  21  29
ATOM     29  C   UNL     1       0.742  -0.511   1.242  0.00  0.00    +0.035 C 
BRANCH  29  31
ATOM     30  C   UNL     1      -0.019   1.526   0.010  0.00  0.00    +0.004 C 
ATOM     31  C   UNL     1       0.002  -0.004   0.002  0.00  0.00    -0.001 C 
ENDBRANCH  29  31
ENDBRANCH  21  29
BRANCH  21  32
ATOM     32  C   UNL     1       1.452  -2.575   2.490  0.00  0.00    +0.035 C 
BRANCH  32  33
ATOM     33  C   UNL     1       1.571  -4.098   2.399  0.00  0.00    -0.001 C 
ATOM     34  C   UNL     1       2.260  -4.632   3.656  0.00  0.00    +0.004 C 
ENDBRANCH  32  33
ENDBRANCH  21  32
ENDBRANCH  20  24
ENDBRANCH   1  20
TORSDOF 10
