REMARK  Name = ZINC12550766
REMARK  14 active torsions:
REMARK  status: ('A' for Active; 'I' for Inactive)
REMARK    1  A    between atoms: C_1  and  C_2
REMARK    2  A    between atoms: C_2  and  C_3
REMARK    3  A    between atoms: C_2  and  C_4
REMARK    4  A    between atoms: C_2  and  C_5
REMARK    5  A    between atoms: C_10  and  O_11
REMARK    6  A    between atoms: O_11  and  C_12
REMARK    7  A    between atoms: C_12  and  C_13
REMARK    8  A    between atoms: C_13  and  C_15
REMARK    9  A    between atoms: C_13  and  O_33
REMARK   10  A    between atoms: C_15  and  S_16
REMARK   11  A    between atoms: S_16  and  C_17
REMARK   12  A    between atoms: C_20  and  C_28
REMARK   13  A    between atoms: N_21  and  C_22
REMARK   14  A    between atoms: C_28  and  N_67
REMARK                            x       y       z     vdW  Elec       q    Type
REMARK                         _______ _______ _______ _____ _____    ______ ____
ROOT
ATOM      1  C   UNL     1      -2.047   1.735   2.970  0.00  0.00    +0.196 A 
ATOM      2  N   UNL     1      -1.265   2.788   2.899  0.00  0.00    -0.122 NA
ATOM      3  N   UNL     1      -0.481   2.683   1.886  0.00  0.00    -0.135 NA
ATOM      4  C   UNL     1      -0.718   1.572   1.248  0.00  0.00    +0.122 A 
ATOM      5  N   UNL     1      -1.723   0.924   1.917  0.00  0.00    -0.276 N 
ENDROOT
BRANCH   5   6
ATOM      6  C   UNL     1      -2.298  -0.312   1.591  0.00  0.00    +0.050 A 
ATOM      7  C   UNL     1      -3.018  -0.455   0.413  0.00  0.00    +0.026 A 
ATOM      8  C   UNL     1      -3.579  -1.676   0.092  0.00  0.00    +0.002 A 
ATOM      9  C   UNL     1      -3.434  -2.752   0.948  0.00  0.00    +0.000 A 
ATOM     10  C   UNL     1      -2.722  -2.611   2.125  0.00  0.00    +0.002 A 
ATOM     11  C   UNL     1      -2.154  -1.394   2.449  0.00  0.00    +0.026 A 
ENDBRANCH   5   6
BRANCH   1  12
ATOM     12  S   UNL     1      -3.280   1.426   4.190  0.00  0.00    -0.083 S 
BRANCH  12  13
ATOM     13  C   UNL     1      -3.103   2.917   5.201  0.00  0.00    +0.112 C 
BRANCH  13  14
ATOM     14  C   UNL     1      -4.103   2.871   6.357  0.00  0.00    +0.162 C 
BRANCH  14  15
ATOM     15  O   UNL     1      -3.777   1.784   7.226  0.00  0.00    -0.388 OA
ATOM     16  H   UNL     1      -2.893   1.843   7.615  0.00  0.00    +0.210 HD
ENDBRANCH  14  15
BRANCH  14  17
ATOM     17  C   UNL     1      -4.040   4.185   7.139  0.00  0.00    +0.261 C 
BRANCH  17  18
ATOM     18  O   UNL     1      -5.054   4.189   8.146  0.00  0.00    -0.489 OA
BRANCH  18  24
ATOM     19  C   UNL     1      -6.096   5.364   9.934  0.00  0.00    -0.000 A 
ATOM     20  C   UNL     1      -6.176   6.487  10.734  0.00  0.00    +0.008 A 
ATOM     21  C   UNL     1      -5.300   7.539  10.541  0.00  0.00    +0.001 A 
ATOM     22  C   UNL     1      -4.342   7.470   9.547  0.00  0.00    +0.004 A 
ATOM     23  C   UNL     1      -4.254   6.348   8.748  0.00  0.00    +0.046 A 
ATOM     24  C   UNL     1      -5.135   5.293   8.935  0.00  0.00    +0.124 A 
BRANCH  19  26
ATOM     25  C   UNL     1      -7.999   4.549  11.299  0.00  0.00    +0.015 C 
ATOM     26  C   UNL     1      -7.050   4.217  10.145  0.00  0.00    -0.009 C 
ATOM     27  C   UNL     1      -7.861   3.986   8.868  0.00  0.00    +0.015 C 
ATOM     28  C   UNL     1      -6.260   2.951  10.482  0.00  0.00    +0.015 C 
ENDBRANCH  19  26
ENDBRANCH  18  24
ENDBRANCH  17  18
ENDBRANCH  14  17
ENDBRANCH  13  14
ENDBRANCH  12  13
ENDBRANCH   1  12
BRANCH   4  29
ATOM     29  C   UNL     1      -0.013   1.086   0.008  0.00  0.00    -0.001 C 
BRANCH  29  34
ATOM     30  C   UNL     1      -0.919   3.043  -1.121  0.00  0.00    -0.078 C 
ATOM     31  C   UNL     1      -1.170   3.430  -2.600  0.00  0.00    -0.020 C 
ATOM     32  C   UNL     1      -0.211   2.493  -3.369  0.00  0.00    -0.020 C 
ATOM     33  C   UNL     1       0.064   1.321  -2.409  0.00  0.00    -0.078 C 
ATOM     34  N   UNL     1      -0.725   1.587  -1.205  0.00  0.00    +0.384 N 
ATOM     35  H   UNL     1      -1.637   1.120  -1.278  0.00  0.00    -0.081 HD
ENDBRANCH  29  34
ENDBRANCH   4  29
TORSDOF 11
