REMARK  Name = ZINC41394154
REMARK  5 active torsions:
REMARK  status: ('A' for Active; 'I' for Inactive)
REMARK    1  A    between atoms: C_1  and  C_2
REMARK    2  A    between atoms: C_7  and  N_11
REMARK    3  A    between atoms: N_25  and  C_26
REMARK    4  A    between atoms: C_26  and  C_27
REMARK    5  A    between atoms: C_26  and  C_28
REMARK                            x       y       z     vdW  Elec       q    Type
REMARK                         _______ _______ _______ _____ _____    ______ ____
ROOT
ATOM      1  N   UNL     1      -0.353  -6.288   0.013  0.00  0.00    -0.285 N 
ATOM      2  C   UNL     1      -0.232  -7.200  -1.008  0.00  0.00    +0.204 A 
ATOM      3  N   UNL     1      -0.243  -6.782  -2.256  0.00  0.00    -0.208 NA
ATOM      4  C   UNL     1      -0.128  -7.642  -3.262  0.00  0.00    +0.117 A 
ATOM      5  C   UNL     1       0.010  -9.024  -3.052  0.00  0.00    +0.076 A 
ATOM      6  C   UNL     1       0.126  -9.846  -4.258  0.00  0.00    -0.023 A 
ATOM      7  C   UNL     1       0.090  -9.203  -5.442  0.00  0.00    -0.004 A 
ATOM      8  S   UNL     1      -0.098  -7.489  -5.030  0.00  0.00    -0.073 S 
ATOM      9  C   UNL     1       0.188  -9.810  -6.809  0.00  0.00    +0.043 C 
ATOM     10  C   UNL     1       0.709 -11.247  -6.663  0.00  0.00    +0.005 C 
ATOM     11  C   UNL     1      -0.088 -11.950  -5.561  0.00  0.00    +0.005 C 
ATOM     12  C   UNL     1       0.281 -11.363  -4.198  0.00  0.00    +0.037 C 
ATOM     13  C   UNL     1       0.019  -9.449  -1.685  0.00  0.00    +0.264 A 
ATOM     14  O   UNL     1       0.135 -10.630  -1.406  0.00  0.00    -0.267 OA
ATOM     15  N   UNL     1      -0.097  -8.525  -0.713  0.00  0.00    -0.278 N 
ATOM     16  H   UNL     1      -0.192  -6.562   0.929  0.00  0.00    +0.155 HD
ENDROOT
BRANCH   1  23
ATOM     17  C   UNL     1      -3.076   1.002  -0.143  0.00  0.00    +0.073 C 
ATOM     18  C   UNL     1      -2.545  -0.408  -0.120  0.00  0.00    +0.076 A 
ATOM     19  N   UNL     1      -1.824  -1.026  -1.016  0.00  0.00    -0.244 NA
ATOM     20  C   UNL     1      -1.412  -2.303  -0.868  0.00  0.00    +0.079 A 
ATOM     21  C   UNL     1      -0.634  -3.080  -1.759  0.00  0.00    +0.031 A 
ATOM     22  C   UNL     1      -0.302  -4.363  -1.459  0.00  0.00    +0.025 A 
ATOM     23  C   UNL     1      -0.710  -4.965  -0.270  0.00  0.00    +0.035 A 
ATOM     24  C   UNL     1      -1.474  -4.235   0.630  0.00  0.00    +0.040 A 
ATOM     25  C   UNL     1      -1.812  -2.938   0.331  0.00  0.00    +0.041 A 
ATOM     26  S   UNL     1      -2.734  -1.657   1.145  0.00  0.00    -0.072 S 
ENDBRANCH   1  23
BRANCH  15  27
ATOM     27  C   UNL     1      -0.083  -8.952   0.688  0.00  0.00    +0.087 C 
ATOM     28  C   UNL     1      -1.320  -9.807   0.974  0.00  0.00    +0.031 C 
ATOM     29  C   UNL     1       1.179  -9.774   0.959  0.00  0.00    +0.031 C 
ENDBRANCH  15  27
TORSDOF 2
