REMARK  Name = ZINC39457993
REMARK  8 active torsions:
REMARK  status: ('A' for Active; 'I' for Inactive)
REMARK    1  A    between atoms: C_1  and  C_2
REMARK    2  A    between atoms: C_2  and  O_3
REMARK    3  A    between atoms: O_3  and  C_4
REMARK    4  A    between atoms: C_5  and  C_28
REMARK    5  A    between atoms: N_6  and  O_26
REMARK    6  A    between atoms: C_18  and  C_19
REMARK    7  A    between atoms: C_24  and  O_25
REMARK    8  A    between atoms: O_26  and  C_27
REMARK                            x       y       z     vdW  Elec       q    Type
REMARK                         _______ _______ _______ _____ _____    ______ ____
ROOT
ATOM      1  C   UNL     1      -1.499  -1.851   0.006  0.00  0.00    +0.148 A 
ATOM      2  C   UNL     1      -1.598  -2.643  -1.093  0.00  0.00    +0.097 A 
ATOM      3  N   UNL     1      -1.749  -3.938  -0.685  0.00  0.00    -0.182 N 
ATOM      4  C   UNL     1      -1.757  -3.961   0.679  0.00  0.00    +0.113 A 
ATOM      5  C   UNL     1      -1.585  -2.677   1.131  0.00  0.00    +0.025 A 
ATOM      6  C   UNL     1      -1.495  -2.290   2.581  0.00  0.00    +0.049 C 
ATOM      7  C   UNL     1      -2.870  -2.407   3.254  0.00  0.00    +0.084 C 
ATOM      8  C   UNL     1      -3.542  -3.679   2.790  0.00  0.00    +0.166 C 
ATOM      9  O   UNL     1      -4.721  -3.658   2.502  0.00  0.00    -0.292 OA
ATOM     10  C   UNL     1      -2.804  -4.931   2.682  0.00  0.00    +0.053 A 
ATOM     11  C   UNL     1      -1.925  -5.106   1.591  0.00  0.00    +0.102 A 
ATOM     12  N   UNL     1      -1.282  -6.248   1.428  0.00  0.00    -0.253 NA
ATOM     13  C   UNL     1      -1.425  -7.249   2.279  0.00  0.00    +0.112 A 
ATOM     14  C   UNL     1      -2.248  -7.152   3.384  0.00  0.00    +0.029 A 
ATOM     15  C   UNL     1      -2.948  -5.976   3.614  0.00  0.00    -0.000 A 
ATOM     16  C   UNL     1      -1.548  -2.171  -2.524  0.00  0.00    +0.071 C 
ENDROOT
BRANCH  15  17
ATOM     17  C   UNL     1      -3.826  -5.833   4.796  0.00  0.00    +0.024 A 
ATOM     18  C   UNL     1      -3.280  -5.832   6.080  0.00  0.00    +0.012 A 
ATOM     19  C   UNL     1      -4.104  -5.698   7.178  0.00  0.00    +0.001 A 
ATOM     20  C   UNL     1      -5.472  -5.564   7.011  0.00  0.00    +0.004 A 
ATOM     21  C   UNL     1      -6.024  -5.563   5.745  0.00  0.00    +0.046 A 
ATOM     22  C   UNL     1      -5.209  -5.691   4.631  0.00  0.00    +0.125 A 
BRANCH  22  23
ATOM     23  O   UNL     1      -5.750  -5.684   3.386  0.00  0.00    -0.506 OA
ATOM     24  H   UNL     1      -6.001  -6.560   3.062  0.00  0.00    +0.292 HD
ENDBRANCH  22  23
ENDBRANCH  15  17
BRANCH   3  25
ATOM     25  O   UNL     1      -1.876  -5.065  -1.533  0.00  0.00    -0.414 OA
ATOM     26  C   UNL     1      -0.632  -5.678  -1.876  0.00  0.00    +0.311 C 
ENDBRANCH   3  25
BRANCH   1  27
ATOM     27  O   UNL     1      -1.339  -0.499   0.012  0.00  0.00    -0.490 OA
BRANCH  27  29
ATOM     28  C   UNL     1      -0.019   1.526   0.010  0.00  0.00    +0.048 C 
ATOM     29  C   UNL     1       0.002  -0.004   0.002  0.00  0.00    +0.226 C 
ENDBRANCH  27  29
ENDBRANCH   1  27
TORSDOF 5
