REMARK  Name = ZINC09119834
REMARK  7 active torsions:
REMARK  status: ('A' for Active; 'I' for Inactive)
REMARK    1  A    between atoms: C_1  and  C_2
REMARK    2  A    between atoms: C_2  and  C_4
REMARK    3  A    between atoms: C_2  and  S_14
REMARK    4  A    between atoms: N_6  and  C_7
REMARK    5  A    between atoms: C_7  and  C_8
REMARK    6  A    between atoms: S_14  and  C_15
REMARK    7  A    between atoms: C_21  and  C_26
REMARK                            x       y       z     vdW  Elec       q    Type
REMARK                         _______ _______ _______ _____ _____    ______ ____
ROOT
ATOM      1  C   UNL     1      -0.016   1.361   0.009  0.00  0.00    +0.171 A 
ATOM      2  N   UNL     1       0.002  -0.004   0.002  0.00  0.00    -0.301 N 
ATOM      3  H   UNL     1      -0.943  -0.567   0.008  0.00  0.00    +0.171 HD
ATOM      4  C   UNL     1       1.162  -0.685  -0.013  0.00  0.00    +0.261 A 
ATOM      5  O   UNL     1       1.162  -1.905  -0.021  0.00  0.00    -0.267 OA
ATOM      6  C   UNL     1       2.395   0.037  -0.021  0.00  0.00    +0.080 A 
ATOM      7  C   UNL     1       3.762  -0.473  -0.038  0.00  0.00    +0.004 A 
ATOM      8  C   UNL     1       4.787   0.411  -0.043  0.00  0.00    +0.056 A 
ATOM      9  S   UNL     1       3.969   1.994  -0.026  0.00  0.00    -0.076 S 
ATOM     10  C   UNL     1       2.284   1.439  -0.012  0.00  0.00    +0.117 A 
ATOM     11  N   UNL     1       1.105   2.051   0.003  0.00  0.00    -0.216 NA
ENDROOT
BRANCH   7  12
ATOM     12  C   UNL     1       4.024  -1.932  -0.048  0.00  0.00    -0.017 A 
ATOM     13  C   UNL     1       3.398  -2.761   0.881  0.00  0.00    +0.008 A 
ATOM     14  C   UNL     1       3.641  -4.120   0.864  0.00  0.00    +0.001 A 
ATOM     15  C   UNL     1       4.512  -4.657  -0.067  0.00  0.00    +0.000 A 
ATOM     16  C   UNL     1       5.140  -3.838  -0.988  0.00  0.00    +0.001 A 
ATOM     17  C   UNL     1       4.901  -2.479  -0.984  0.00  0.00    +0.008 A 
ENDBRANCH   7  12
BRANCH   1  18
ATOM     18  S   UNL     1      -1.560   2.209   0.021  0.00  0.00    -0.075 S 
BRANCH  18  20
ATOM     19  C   UNL     1      -0.230   4.202   1.333  0.00  0.00    +0.029 C 
ATOM     20  C   UNL     1      -0.977   3.923   0.028  0.00  0.00    +0.137 C 
BRANCH  20  21
ATOM     21  C   UNL     1      -2.156   4.855  -0.085  0.00  0.00    +0.226 C 
ATOM     22  O   UNL     1      -3.253   4.493   0.283  0.00  0.00    -0.275 OA
ATOM     23  N   UNL     1      -1.990   6.092  -0.595  0.00  0.00    -0.314 N 
ATOM     24  H   UNL     1      -0.995   6.420  -0.929  0.00  0.00    +0.149 HD
BRANCH  23  25
ATOM     25  C   UNL     1      -3.136   6.998  -0.705  0.00  0.00    +0.107 C 
BRANCH  25  26
ATOM     26  C   UNL     1      -2.679   8.326  -1.312  0.00  0.00    +0.006 C 
ATOM     27  C   UNL     1      -1.707   9.017  -0.353  0.00  0.00    +0.005 C 
ATOM     28  C   UNL     1      -1.250  10.345  -0.959  0.00  0.00    +0.000 C 
ATOM     29  C   UNL     1      -2.466  11.246  -1.189  0.00  0.00    +0.000 C 
ATOM     30  C   UNL     1      -3.437  10.555  -2.148  0.00  0.00    +0.000 C 
ATOM     31  C   UNL     1      -3.894   9.227  -1.542  0.00  0.00    +0.005 C 
ENDBRANCH  25  26
ENDBRANCH  23  25
ENDBRANCH  20  21
ENDBRANCH  18  20
ENDBRANCH   1  18
TORSDOF 6
