REMARK  Name = ZINC44075889
REMARK  11 active torsions:
REMARK  status: ('A' for Active; 'I' for Inactive)
REMARK    1  A    between atoms: C_1  and  N_2
REMARK    2  A    between atoms: N_2  and  C_3
REMARK    3  A    between atoms: N_2  and  C_4
REMARK    4  A    between atoms: C_7  and  N_10
REMARK    5  A    between atoms: N_11  and  C_12
REMARK    6  A    between atoms: C_15  and  S_18
REMARK    7  A    between atoms: S_18  and  N_21
REMARK    8  A    between atoms: N_21  and  C_22
REMARK    9  A    between atoms: C_22  and  C_24
REMARK   10  A    between atoms: C_22  and  C_35
REMARK   11  A    between atoms: C_24  and  C_25
REMARK                            x       y       z     vdW  Elec       q    Type
REMARK                         _______ _______ _______ _____ _____    ______ ____
ROOT
ATOM      1  S   UNL     1     -10.941  -5.222   0.071  0.00  0.00    +0.059 S 
ATOM      2  O   UNL     1     -11.930  -4.362  -0.478  0.00  0.00    -0.153 OA
ATOM      3  O   UNL     1     -10.655  -6.501  -0.478  0.00  0.00    -0.153 OA
ENDROOT
BRANCH   1   7
ATOM      4  C   UNL     1      -7.048  -2.903   0.048  0.00  0.00    +0.086 A 
ATOM      5  C   UNL     1      -7.033  -4.301   0.051  0.00  0.00    +0.031 A 
ATOM      6  C   UNL     1      -8.222  -5.000   0.058  0.00  0.00    +0.030 A 
ATOM      7  C   UNL     1      -9.428  -4.321   0.062  0.00  0.00    +0.105 A 
ATOM      8  C   UNL     1      -9.450  -2.937   0.058  0.00  0.00    +0.030 A 
ATOM      9  C   UNL     1      -8.270  -2.224   0.057  0.00  0.00    +0.031 A 
BRANCH   4  11
ATOM     10  N   UNL     1      -4.748  -2.833   0.032  0.00  0.00    -0.149 NA
ATOM     11  N   UNL     1      -5.874  -2.204   0.041  0.00  0.00    -0.149 NA
BRANCH  10  15
ATOM     12  C   UNL     1      -1.194  -0.717   0.010  0.00  0.00    +0.029 A 
ATOM     13  C   UNL     1      -1.173  -2.108   0.008  0.00  0.00    +0.025 A 
ATOM     14  C   UNL     1      -2.353  -2.816   0.015  0.00  0.00    +0.031 A 
ATOM     15  C   UNL     1      -3.576  -2.135   0.025  0.00  0.00    +0.086 A 
ATOM     16  C   UNL     1      -3.592  -0.736   0.027  0.00  0.00    +0.031 A 
ATOM     17  C   UNL     1      -2.408  -0.035   0.025  0.00  0.00    +0.025 A 
BRANCH  12  19
ATOM     18  C   UNL     1      -0.018   1.461   0.010  0.00  0.00    +0.129 C 
ATOM     19  N   UNL     1       0.002  -0.004   0.002  0.00  0.00    -0.336 N 
ATOM     20  C   UNL     1       1.281  -0.719  -0.014  0.00  0.00    +0.129 C 
ENDBRANCH  12  19
ENDBRANCH  10  15
ENDBRANCH   4  11
ENDBRANCH   1   7
BRANCH   1  21
ATOM     21  N   UNL     1     -11.355  -5.469   1.655  0.00  0.00    -0.176 NA
ATOM     22  H   UNL     1     -11.378  -6.369   2.016  0.00  0.00    +0.149 HD
BRANCH  21  23
ATOM     23  C   UNL     1     -11.686  -4.328   2.512  0.00  0.00    +0.193 C 
BRANCH  23  24
ATOM     24  C   UNL     1     -10.458  -3.899   3.274  0.00  0.00    +0.375 C 
ATOM     25  O   UNL     1      -9.405  -4.492   3.115  0.00  0.00    -0.245 OA
ATOM     26  O   UNL     1     -10.518  -2.959   4.048  0.00  0.00    -0.245 OA
ENDBRANCH  23  24
BRANCH  23  27
ATOM     27  C   UNL     1     -12.783  -4.732   3.499  0.00  0.00    +0.069 C 
BRANCH  27  28
ATOM     28  C   UNL     1     -14.049  -5.042   2.743  0.00  0.00    -0.020 A 
ATOM     29  C   UNL     1     -15.063  -4.197   2.502  0.00  0.00    +0.087 A 
ATOM     30  N   UNL     1     -16.041  -4.832   1.786  0.00  0.00    -0.360 N 
ATOM     31  H   UNL     1     -16.872  -4.426   1.494  0.00  0.00    +0.165 HD
ATOM     32  C   UNL     1     -15.670  -6.136   1.542  0.00  0.00    +0.047 A 
ATOM     33  C   UNL     1     -14.403  -6.323   2.125  0.00  0.00    +0.003 A 
ATOM     34  C   UNL     1     -13.768  -7.562   2.029  0.00  0.00    +0.010 A 
ATOM     35  C   UNL     1     -14.380  -8.588   1.366  0.00  0.00    +0.001 A 
ATOM     36  C   UNL     1     -15.628  -8.408   0.786  0.00  0.00    +0.002 A 
ATOM     37  C   UNL     1     -16.277  -7.196   0.876  0.00  0.00    +0.026 A 
ENDBRANCH  27  28
ENDBRANCH  23  27
ENDBRANCH  21  23
ENDBRANCH   1  21
TORSDOF 9
