REMARK  Name = ZINC59122237
REMARK  10 active torsions:
REMARK  status: ('A' for Active; 'I' for Inactive)
REMARK    1  A    between atoms: C_1  and  O_2
REMARK    2  A    between atoms: O_2  and  C_3
REMARK    3  A    between atoms: C_3  and  C_4
REMARK    4  A    between atoms: C_4  and  C_5
REMARK    5  A    between atoms: C_5  and  S_6
REMARK    6  A    between atoms: S_6  and  C_7
REMARK    7  A    between atoms: C_10  and  C_20
REMARK    8  A    between atoms: N_11  and  C_12
REMARK    9  A    between atoms: C_15  and  O_18
REMARK   10  A    between atoms: O_18  and  C_19
REMARK                            x       y       z     vdW  Elec       q    Type
REMARK                         _______ _______ _______ _____ _____    ______ ____
ROOT
ATOM      1  C   UNL     1       2.092  -5.053  -3.604  0.00  0.00    +0.196 A 
ATOM      2  N   UNL     1       2.616  -4.285  -4.535  0.00  0.00    -0.122 NA
ATOM      3  N   UNL     1       3.143  -5.006  -5.459  0.00  0.00    -0.128 NA
ATOM      4  C   UNL     1       2.989  -6.280  -5.177  0.00  0.00    +0.169 A 
ATOM      5  N   UNL     1       2.316  -6.349  -3.977  0.00  0.00    -0.270 N 
ENDROOT
BRANCH   5   6
ATOM      6  C   UNL     1       1.936  -7.508  -3.283  0.00  0.00    +0.051 A 
ATOM      7  C   UNL     1       2.905  -8.355  -2.763  0.00  0.00    +0.030 A 
ATOM      8  C   UNL     1       2.531  -9.496  -2.081  0.00  0.00    +0.047 A 
ATOM      9  C   UNL     1       1.187  -9.796  -1.915  0.00  0.00    +0.120 A 
ATOM     10  C   UNL     1       0.218  -8.950  -2.435  0.00  0.00    +0.047 A 
ATOM     11  C   UNL     1       0.591  -7.806  -3.112  0.00  0.00    +0.030 A 
BRANCH   9  12
ATOM     12  O   UNL     1       0.819 -10.919  -1.244  0.00  0.00    -0.495 OA
ATOM     13  C   UNL     1      -0.582 -11.166  -1.111  0.00  0.00    +0.277 C 
ENDBRANCH   9  12
ENDBRANCH   5   6
BRANCH   4  14
ATOM     14  C   UNL     1       3.455  -7.422  -5.990  0.00  0.00    +0.022 A 
ATOM     15  C   UNL     1       2.967  -8.715  -5.762  0.00  0.00    +0.031 A 
ATOM     16  C   UNL     1       3.430  -9.751  -6.544  0.00  0.00    +0.111 A 
ATOM     17  N   UNL     1       4.319  -9.538  -7.496  0.00  0.00    -0.263 NA
ATOM     18  C   UNL     1       4.804  -8.336  -7.744  0.00  0.00    +0.111 A 
ATOM     19  C   UNL     1       4.393  -7.241  -7.014  0.00  0.00    +0.031 A 
ENDBRANCH   4  14
BRANCH   1  20
ATOM     20  S   UNL     1       1.263  -4.513  -2.147  0.00  0.00    -0.086 S 
BRANCH  20  21
ATOM     21  C   UNL     1       1.309  -2.703  -2.261  0.00  0.00    +0.079 C 
BRANCH  21  22
ATOM     22  C   UNL     1       0.613  -2.097  -1.041  0.00  0.00    +0.039 C 
BRANCH  22  23
ATOM     23  C   UNL     1       0.652  -0.570  -1.138  0.00  0.00    +0.160 C 
BRANCH  23  25
ATOM     24  C   UNL     1      -0.017   1.425   0.010  0.00  0.00    +0.193 C 
ATOM     25  O   UNL     1       0.002  -0.004   0.002  0.00  0.00    -0.383 OA
ENDBRANCH  23  25
ENDBRANCH  22  23
ENDBRANCH  21  22
ENDBRANCH  20  21
ENDBRANCH   1  20
TORSDOF 8
