REMARK  Name = ZINC20940725
REMARK  7 active torsions:
REMARK  status: ('A' for Active; 'I' for Inactive)
REMARK    1  A    between atoms: C_1  and  C_2
REMARK    2  A    between atoms: C_3  and  C_31
REMARK    3  A    between atoms: C_4  and  C_22
REMARK    4  A    between atoms: C_8  and  C_11
REMARK    5  A    between atoms: N_13  and  C_14
REMARK    6  A    between atoms: C_25  and  N_28
REMARK    7  A    between atoms: N_33  and  C_34
REMARK                            x       y       z     vdW  Elec       q    Type
REMARK                         _______ _______ _______ _____ _____    ______ ____
ROOT
ATOM      1  C   UNL     1      -3.002   6.275   0.866  0.00  0.00    +0.061 C 
ATOM      2  C   UNL     1      -1.941   7.292   0.533  0.00  0.00    +0.017 C 
ATOM      3  C   UNL     1      -0.653   6.918   0.549  0.00  0.00    +0.060 C 
ATOM      4  C   UNL     1       0.480   7.848   0.214  0.00  0.00    +0.176 C 
ATOM      5  N   UNL     1      -0.011   9.227   0.180  0.00  0.00    -0.238 N 
ATOM      6  C   UNL     1      -1.330   9.540   0.183  0.00  0.00    +0.134 A 
ATOM      7  C   UNL     1      -1.431  10.917   0.138  0.00  0.00    +0.096 A 
ATOM      8  C   UNL     1      -0.107  11.424   0.113  0.00  0.00    +0.149 A 
ATOM      9  N   UNL     1       0.719  10.412   0.140  0.00  0.00    -0.176 NA
ATOM     10  N   UNL     1      -2.322   8.577   0.229  0.00  0.00    -0.302 N 
ATOM     11  H   UNL     1      -3.380   8.805   0.033  0.00  0.00    +0.153 HD
ENDROOT
BRANCH   4  12
ATOM     12  C   UNL     1       1.047   7.485  -1.134  0.00  0.00    -0.018 A 
ATOM     13  C   UNL     1       0.239   7.518  -2.256  0.00  0.00    +0.008 A 
ATOM     14  C   UNL     1       0.759   7.189  -3.493  0.00  0.00    +0.033 A 
ATOM     15  C   UNL     1       2.086   6.817  -3.608  0.00  0.00    +0.126 A 
ATOM     16  C   UNL     1       2.892   6.778  -2.486  0.00  0.00    +0.033 A 
ATOM     17  C   UNL     1       2.373   7.112  -1.249  0.00  0.00    +0.008 A 
BRANCH  15  18
ATOM     18  N   UNL     1       2.642   6.460  -4.932  0.00  0.00    +0.056 N 
ATOM     19  O   UNL     1       3.811   6.132  -5.034  0.00  0.00    -0.126 OA
ATOM     20  O   UNL     1       1.931   6.495  -5.921  0.00  0.00    -0.126 OA
ENDBRANCH  15  18
ENDBRANCH   4  12
BRANCH   7  21
ATOM     21  C   UNL     1      -2.671  11.704   0.120  0.00  0.00    +0.253 C 
ATOM     22  O   UNL     1      -3.749  11.142   0.145  0.00  0.00    -0.270 OA
ATOM     23  N   UNL     1      -2.614  13.050   0.076  0.00  0.00    -0.281 N 
ATOM     24  H   UNL     1      -1.642  13.562   0.137  0.00  0.00    +0.155 HD
BRANCH  23  25
ATOM     25  C   UNL     1      -3.791  13.797  -0.049  0.00  0.00    +0.034 A 
ATOM     26  C   UNL     1      -4.858  13.296  -0.783  0.00  0.00    +0.026 A 
ATOM     27  C   UNL     1      -6.020  14.032  -0.901  0.00  0.00    +0.040 A 
ATOM     28  C   UNL     1      -6.119  15.274  -0.295  0.00  0.00    +0.124 A 
ATOM     29  C   UNL     1      -5.054  15.777   0.433  0.00  0.00    +0.040 A 
ATOM     30  C   UNL     1      -3.892  15.042   0.557  0.00  0.00    +0.026 A 
ATOM     31  F   UNL     1      -7.255  15.995  -0.415  0.00  0.00    -0.205 F 
ENDBRANCH  23  25
ENDBRANCH   7  21
BRANCH   3  32
ATOM     32  C   UNL     1      -0.347   5.580   0.891  0.00  0.00    +0.248 C 
ATOM     33  O   UNL     1      -1.243   4.773   1.058  0.00  0.00    -0.270 OA
ATOM     34  N   UNL     1       0.938   5.198   1.033  0.00  0.00    -0.282 N 
ATOM     35  H   UNL     1       1.744   5.944   0.967  0.00  0.00    +0.155 HD
BRANCH  34  36
ATOM     36  C   UNL     1       1.247   3.854   1.264  0.00  0.00    +0.034 A 
ATOM     37  C   UNL     1       2.336   3.516   2.057  0.00  0.00    +0.023 A 
ATOM     38  C   UNL     1       2.639   2.188   2.282  0.00  0.00    +0.002 A 
ATOM     39  C   UNL     1       1.859   1.194   1.719  0.00  0.00    +0.000 A 
ATOM     40  C   UNL     1       0.777   1.527   0.924  0.00  0.00    +0.002 A 
ATOM     41  C   UNL     1       0.466   2.854   0.700  0.00  0.00    +0.023 A 
ENDBRANCH  34  36
ENDBRANCH   3  32
TORSDOF 6
