REMARK  Name = ZINC13032303
REMARK  12 active torsions:
REMARK  status: ('A' for Active; 'I' for Inactive)
REMARK    1  A    between atoms: C_1  and  C_2
REMARK    2  A    between atoms: C_2  and  C_3
REMARK    3  A    between atoms: C_3  and  C_4
REMARK    4  A    between atoms: C_3  and  C_5
REMARK    5  A    between atoms: C_3  and  N_6
REMARK    6  A    between atoms: C_7  and  C_9
REMARK    7  A    between atoms: C_9  and  C_11
REMARK    8  A    between atoms: C_9  and  N_18
REMARK    9  A    between atoms: C_14  and  O_17
REMARK   10  A    between atoms: N_18  and  C_19
REMARK   11  A    between atoms: C_26  and  C_28
REMARK   12  A    between atoms: C_28  and  N_29
REMARK                            x       y       z     vdW  Elec       q    Type
REMARK                         _______ _______ _______ _____ _____    ______ ____
ROOT
ATOM      1  N   UNL     1      -5.423   3.520  -1.593  0.00  0.00    -0.251 N 
ATOM      2  C   UNL     1      -4.223   4.112  -1.432  0.00  0.00    +0.242 C 
ATOM      3  O   UNL     1      -3.569   4.432  -2.402  0.00  0.00    -0.273 OA
ENDROOT
BRANCH   1   4
ATOM      4  C   UNL     1      -6.177   3.151  -0.472  0.00  0.00    +0.073 A 
ATOM      5  C   UNL     1      -7.048   4.061   0.111  0.00  0.00    +0.026 A 
ATOM      6  C   UNL     1      -7.791   3.695   1.216  0.00  0.00    +0.002 A 
ATOM      7  C   UNL     1      -7.670   2.422   1.742  0.00  0.00    +0.003 A 
ATOM      8  C   UNL     1      -6.805   1.511   1.164  0.00  0.00    +0.040 A 
ATOM      9  C   UNL     1      -6.061   1.869   0.055  0.00  0.00    +0.145 A 
ATOM     10  F   UNL     1      -5.220   0.978  -0.513  0.00  0.00    -0.204 F 
ENDBRANCH   1   4
BRANCH   1  11
ATOM     11  C   UNL     1      -5.937   3.262  -2.940  0.00  0.00    +0.197 C 
BRANCH  11  12
ATOM     12  C   UNL     1      -6.310   1.807  -3.065  0.00  0.00    -0.018 A 
ATOM     13  C   UNL     1      -5.593   0.981  -3.910  0.00  0.00    +0.009 A 
ATOM     14  C   UNL     1      -5.929  -0.354  -4.022  0.00  0.00    +0.046 A 
ATOM     15  C   UNL     1      -6.995  -0.863  -3.295  0.00  0.00    +0.117 A 
ATOM     16  C   UNL     1      -7.717  -0.031  -2.453  0.00  0.00    +0.046 A 
ATOM     17  C   UNL     1      -7.373   1.302  -2.339  0.00  0.00    +0.009 A 
BRANCH  15  18
ATOM     18  O   UNL     1      -7.332  -2.175  -3.409  0.00  0.00    -0.507 OA
ATOM     19  H   UNL     1      -7.977  -2.357  -4.106  0.00  0.00    +0.292 HD
ENDBRANCH  15  18
ENDBRANCH  11  12
BRANCH  11  21
ATOM     20  N   UNL     1      -7.801   4.045  -4.365  0.00  0.00    -0.308 N 
ATOM     21  C   UNL     1      -7.155   4.115  -3.185  0.00  0.00    +0.239 C 
ATOM     22  O   UNL     1      -7.554   4.865  -2.319  0.00  0.00    -0.273 OA
ATOM     23  H   UNL     1      -7.482   3.445  -5.058  0.00  0.00    +0.149 HD
BRANCH  20  24
ATOM     24  C   UNL     1      -8.985   4.875  -4.603  0.00  0.00    +0.029 C 
ATOM     25  C   UNL     1     -10.062   4.534  -3.572  0.00  0.00    +0.031 C 
ATOM     26  C   UNL     1      -8.606   6.352  -4.476  0.00  0.00    +0.031 C 
BRANCH  24  28
ATOM     27  C   UNL     1     -10.758   5.472  -6.258  0.00  0.00    +0.006 C 
ATOM     28  C   UNL     1      -9.522   4.606  -6.010  0.00  0.00    +0.022 C 
ENDBRANCH  24  28
ENDBRANCH  20  24
ENDBRANCH  11  21
ENDBRANCH   1  11
BRANCH   2  29
ATOM     29  C   UNL     1      -3.693   4.378  -0.046  0.00  0.00    +0.242 C 
BRANCH  29  30
ATOM     30  N   UNL     1      -2.382   5.024  -0.140  0.00  0.00    -0.235 N 
ATOM     31  C   UNL     1      -1.159   4.400  -0.190  0.00  0.00    +0.090 A 
ATOM     32  C   UNL     1      -0.751   3.070  -0.178  0.00  0.00    +0.029 A 
ATOM     33  C   UNL     1       0.580   2.767  -0.238  0.00  0.00    +0.002 A 
ATOM     34  C   UNL     1       1.531   3.775  -0.323  0.00  0.00    +0.002 A 
ATOM     35  C   UNL     1       1.157   5.087  -0.342  0.00  0.00    +0.032 A 
ATOM     36  C   UNL     1      -0.201   5.425  -0.275  0.00  0.00    +0.113 A 
ATOM     37  N   UNL     1      -0.859   6.601  -0.274  0.00  0.00    -0.129 NA
ATOM     38  N   UNL     1      -2.128   6.403  -0.196  0.00  0.00    -0.064 NA
ENDBRANCH  29  30
ENDBRANCH   2  29
TORSDOF 9
