REMARK  Name = ZINC64755884
REMARK  10 active torsions:
REMARK  status: ('A' for Active; 'I' for Inactive)
REMARK    1  A    between atoms: C_1  and  C_2
REMARK    2  A    between atoms: N_8  and  C_9
REMARK    3  A    between atoms: C_9  and  C_10
REMARK    4  A    between atoms: C_10  and  N_11
REMARK    5  A    between atoms: N_11  and  S_12
REMARK    6  A    between atoms: S_12  and  C_15
REMARK    7  A    between atoms: C_18  and  C_20
REMARK    8  A    between atoms: C_22  and  C_25
REMARK    9  A    between atoms: C_25  and  C_26
REMARK   10  A    between atoms: C_25  and  C_27
REMARK                            x       y       z     vdW  Elec       q    Type
REMARK                         _______ _______ _______ _____ _____    ______ ____
ROOT
ATOM      1  S   UNL     1       4.963   0.298   3.966  0.00  0.00    +0.065 S 
ATOM      2  O   UNL     1       6.226   0.876   3.664  0.00  0.00    -0.153 OA
ATOM      3  O   UNL     1       4.089   0.845   4.944  0.00  0.00    -0.153 OA
ENDROOT
BRANCH   1   4
ATOM      4  C   UNL     1       5.274  -1.369   4.444  0.00  0.00    +0.143 A 
ATOM      5  C   UNL     1       6.333  -2.162   4.137  0.00  0.00    +0.037 A 
ATOM      6  C   UNL     1       6.372  -3.449   4.624  0.00  0.00    +0.020 A 
ATOM      7  C   UNL     1       5.334  -3.888   5.407  0.00  0.00    +0.046 A 
ATOM      8  S   UNL     1       4.280  -2.448   5.462  0.00  0.00    -0.066 S 
BRANCH   7   9
ATOM      9  C   UNL     1       5.142  -5.202   6.040  0.00  0.00    +0.115 A 
ATOM     10  N   UNL     1       4.138  -5.636   6.794  0.00  0.00    -0.243 NA
ATOM     11  C   UNL     1       4.132  -6.856   7.281  0.00  0.00    +0.052 A 
ATOM     12  C   UNL     1       5.165  -7.697   7.016  0.00  0.00    +0.070 A 
ATOM     13  S   UNL     1       6.193  -6.648   5.995  0.00  0.00    -0.075 S 
BRANCH  11  14
ATOM     14  C   UNL     1       2.980  -7.321   8.134  0.00  0.00    +0.032 C 
ATOM     15  C   UNL     1       1.963  -8.058   7.260  0.00  0.00    +0.014 C 
ATOM     16  C   UNL     1       3.498  -8.266   9.220  0.00  0.00    +0.014 C 
ENDBRANCH  11  14
ENDBRANCH   7   9
ENDBRANCH   1   4
BRANCH   1  17
ATOM     17  N   UNL     1       4.113   0.250   2.546  0.00  0.00    -0.191 NA
ATOM     18  H   UNL     1       4.508   0.601   1.732  0.00  0.00    +0.148 HD
BRANCH  17  19
ATOM     19  C   UNL     1       2.764  -0.321   2.518  0.00  0.00    +0.087 C 
BRANCH  19  20
ATOM     20  C   UNL     1       2.066   0.083   1.218  0.00  0.00    -0.061 C 
BRANCH  20  27
ATOM     21  C   UNL     1      -0.019   1.526   0.010  0.00  0.00    -0.013 C 
ATOM     22  C   UNL     1       0.002  -0.004   0.002  0.00  0.00    -0.072 C 
ATOM     23  C   UNL     1      -1.434  -0.533   0.011  0.00  0.00    -0.016 C 
ATOM     24  C   UNL     1      -1.408  -2.064   0.003  0.00  0.00    -0.003 C 
ATOM     25  C   UNL     1      -0.600  -2.558   1.206  0.00  0.00    -0.019 C 
ATOM     26  C   UNL     1       0.805  -1.954   1.152  0.00  0.00    -0.078 C 
ATOM     27  N   UNL     1       0.713  -0.490   1.191  0.00  0.00    +0.382 N 
ATOM     28  H   UNL     1       0.213  -0.206   2.020  0.00  0.00    -0.081 HD
ENDBRANCH  20  27
ENDBRANCH  19  20
ENDBRANCH  17  19
ENDBRANCH   1  17
TORSDOF 7
