REMARK  Name = ZINC67633894
REMARK  5 active torsions:
REMARK  status: ('A' for Active; 'I' for Inactive)
REMARK    1  A    between atoms: C_4  and  N_7
REMARK    2  A    between atoms: N_7  and  C_8
REMARK    3  A    between atoms: N_16  and  C_17
REMARK    4  A    between atoms: C_17  and  C_18
REMARK    5  A    between atoms: C_23  and  N_24
REMARK                            x       y       z     vdW  Elec       q    Type
REMARK                         _______ _______ _______ _____ _____    ______ ____
ROOT
ATOM      1  C   UNL     1       3.641  -2.114  -0.044  0.00  0.00    +0.089 C 
ATOM      2  C   UNL     1       5.000  -2.653   0.478  0.00  0.00    +0.043 C 
ATOM      3  C   UNL     1       5.113  -4.029  -0.212  0.00  0.00    +0.111 C 
ATOM      4  N   UNL     1       4.248  -3.995  -1.400  0.00  0.00    -0.284 N 
ATOM      5  C   UNL     1       3.625  -2.662  -1.493  0.00  0.00    +0.131 C 
ATOM      6  C   UNL     1       4.056  -5.014  -2.261  0.00  0.00    +0.303 C 
ATOM      7  O   UNL     1       3.314  -4.872  -3.214  0.00  0.00    -0.253 OA
ATOM      8  N   UNL     1       4.686  -6.189  -2.066  0.00  0.00    -0.295 N 
ATOM      9  H   UNL     1       5.277  -6.302  -1.305  0.00  0.00    +0.151 HD
ENDROOT
BRANCH   1  10
ATOM     10  N   UNL     1       3.620  -0.649  -0.036  0.00  0.00    -0.339 N 
ATOM     11  H   UNL     1       4.452  -0.152  -0.042  0.00  0.00    +0.146 HD
BRANCH  10  15
ATOM     12  C   UNL     1      -0.017   1.379   0.010  0.00  0.00    +0.000 A 
ATOM     13  C   UNL     1       1.169   2.089   0.002  0.00  0.00    +0.002 A 
ATOM     14  C   UNL     1       2.377   1.420  -0.013  0.00  0.00    +0.023 A 
ATOM     15  C   UNL     1       2.400   0.031  -0.021  0.00  0.00    +0.027 A 
ATOM     16  C   UNL     1       1.206  -0.680  -0.013  0.00  0.00    +0.023 A 
ATOM     17  C   UNL     1       0.002  -0.004   0.002  0.00  0.00    +0.002 A 
ENDBRANCH  10  15
ENDBRANCH   1  10
BRANCH   8  18
ATOM     18  C   UNL     1       4.477  -7.296  -3.002  0.00  0.00    +0.143 C 
BRANCH  18  19
ATOM     19  C   UNL     1       5.289  -8.487  -2.561  0.00  0.00    -0.009 A 
ATOM     20  C   UNL     1       6.500  -8.760  -3.167  0.00  0.00    +0.007 A 
ATOM     21  C   UNL     1       7.246  -9.852  -2.763  0.00  0.00    +0.000 A 
ATOM     22  C   UNL     1       6.782 -10.675  -1.752  0.00  0.00    +0.002 A 
ATOM     23  C   UNL     1       5.573 -10.407  -1.142  0.00  0.00    +0.023 A 
ATOM     24  C   UNL     1       4.823  -9.307  -1.542  0.00  0.00    +0.034 A 
BRANCH  24  25
ATOM     25  N   UNL     1       3.602  -9.030  -0.923  0.00  0.00    -0.330 N 
ATOM     26  C   UNL     1       2.292  -9.547  -1.345  0.00  0.00    +0.105 C 
ATOM     27  C   UNL     1       1.236  -8.956  -0.387  0.00  0.00    +0.020 C 
ATOM     28  C   UNL     1       1.943  -7.693   0.173  0.00  0.00    +0.020 C 
ATOM     29  C   UNL     1       3.414  -8.177   0.264  0.00  0.00    +0.105 C 
ENDBRANCH  24  25
ENDBRANCH  18  19
ENDBRANCH   8  18
TORSDOF 5
