REMARK  Name = ZINC13064304
REMARK  15 active torsions:
REMARK  status: ('A' for Active; 'I' for Inactive)
REMARK    1  A    between atoms: C_1  and  C_2
REMARK    2  A    between atoms: C_2  and  C_3
REMARK    3  A    between atoms: C_3  and  C_5
REMARK    4  A    between atoms: C_3  and  N_66
REMARK    5  A    between atoms: N_9  and  C_10
REMARK    6  A    between atoms: C_10  and  C_11
REMARK    7  A    between atoms: C_11  and  O_13
REMARK    8  A    between atoms: O_13  and  C_14
REMARK    9  A    between atoms: C_14  and  C_15
REMARK   10  A    between atoms: C_16  and  C_17
REMARK   11  A    between atoms: C_16  and  N_66
REMARK   12  A    between atoms: C_24  and  C_25
REMARK   13  A    between atoms: C_24  and  N_66
REMARK   14  A    between atoms: C_30  and  O_37
REMARK   15  A    between atoms: O_37  and  C_38
REMARK                            x       y       z     vdW  Elec       q    Type
REMARK                         _______ _______ _______ _____ _____    ______ ____
ROOT
ATOM      1  N   UNL     1       1.907   0.965   9.055  0.00  0.00    +0.392 N 
ATOM      2  H   UNL     1       1.367   1.837   9.101  0.00  0.00    -0.080 HD
ENDROOT
BRANCH   1   3
ATOM      3  C   UNL     1       2.443   0.661  10.398  0.00  0.00    +0.003 C 
BRANCH   3   4
ATOM      4  C   UNL     1       3.053  -0.717  10.425  0.00  0.00    +0.139 A 
ATOM      5  N   UNL     1       2.540  -1.809   9.912  0.00  0.00    -0.115 NA
ATOM      6  N   UNL     1       3.359  -2.778  10.139  0.00  0.00    -0.023 NA
ATOM      7  N   UNL     1       4.381  -2.332  10.783  0.00  0.00    -0.043 NA
ATOM      8  N   UNL     1       4.232  -1.064  10.973  0.00  0.00    -0.220 N 
BRANCH   8   9
ATOM      9  C   UNL     1       5.168  -0.172  11.661  0.00  0.00    +0.267 C 
BRANCH   9  10
ATOM     10  C   UNL     1       4.888  -0.194  13.141  0.00  0.00    +0.329 C 
ATOM     11  O   UNL     1       3.998  -0.885  13.578  0.00  0.00    -0.249 OA
BRANCH  10  12
ATOM     12  O   UNL     1       5.628   0.553  13.975  0.00  0.00    -0.464 OA
BRANCH  12  13
ATOM     13  C   UNL     1       5.303   0.482  15.389  0.00  0.00    +0.229 C 
ATOM     14  C   UNL     1       6.245   1.395  16.176  0.00  0.00    +0.048 C 
ENDBRANCH  12  13
ENDBRANCH  10  12
ENDBRANCH   9  10
ENDBRANCH   8   9
ENDBRANCH   3   4
BRANCH   3  16
ATOM     15  C   UNL     1       0.777   2.168  11.491  0.00  0.00    +0.002 C 
ATOM     16  C   UNL     1       1.301   0.733  11.414  0.00  0.00    -0.011 C 
ENDBRANCH   3  16
ENDBRANCH   1   3
BRANCH   1  17
ATOM     17  C   UNL     1       3.017   1.137   8.095  0.00  0.00    -0.042 C 
BRANCH  17  18
ATOM     18  C   UNL     1       3.681   2.465   8.355  0.00  0.00    -0.064 A 
ATOM     19  C   UNL     1       3.165   3.617   7.792  0.00  0.00    +0.004 A 
ATOM     20  C   UNL     1       3.770   4.836   8.034  0.00  0.00    +0.038 A 
ATOM     21  C   UNL     1       4.899   4.901   8.832  0.00  0.00    +0.123 A 
ATOM     22  C   UNL     1       5.418   3.746   9.391  0.00  0.00    +0.038 A 
ATOM     23  C   UNL     1       4.808   2.529   9.152  0.00  0.00    +0.004 A 
ATOM     24  F   UNL     1       5.494   6.092   9.065  0.00  0.00    -0.205 F 
ENDBRANCH  17  18
ENDBRANCH   1  17
BRANCH   1  25
ATOM     25  C   UNL     1       1.017  -0.127   8.608  0.00  0.00    -0.036 C 
BRANCH  25  26
ATOM     26  C   UNL     1       0.183   0.371   7.456  0.00  0.00    +0.001 A 
ATOM     27  C   UNL     1       0.577   0.126   6.180  0.00  0.00    +0.017 A 
ATOM     28  C   UNL     1      -0.254   0.622   5.084  0.00  0.00    -0.001 A 
ATOM     29  C   UNL     1       0.102   0.399   3.748  0.00  0.00    +0.013 A 
ATOM     30  C   UNL     1      -0.696   0.869   2.747  0.00  0.00    +0.046 A 
ATOM     31  C   UNL     1      -1.859   1.579   3.042  0.00  0.00    +0.122 A 
ATOM     32  C   UNL     1      -2.228   1.810   4.355  0.00  0.00    +0.072 A 
ATOM     33  C   UNL     1      -1.431   1.334   5.388  0.00  0.00    +0.053 A 
ATOM     34  N   UNL     1      -1.776   1.548   6.706  0.00  0.00    -0.322 N 
ATOM     35  H   UNL     1      -2.587   2.039   6.915  0.00  0.00    +0.169 HD
ATOM     36  C   UNL     1      -1.004   1.089   7.707  0.00  0.00    +0.251 A 
ATOM     37  O   UNL     1      -1.339   1.298   8.860  0.00  0.00    -0.268 OA
BRANCH  31  38
ATOM     38  O   UNL     1      -2.638   2.044   2.032  0.00  0.00    -0.495 OA
ATOM     39  C   UNL     1      -2.201   1.774   0.698  0.00  0.00    +0.277 C 
ENDBRANCH  31  38
ENDBRANCH  25  26
ENDBRANCH   1  25
TORSDOF 12
