REMARK  Name = ZINC32125320
REMARK  5 active torsions:
REMARK  status: ('A' for Active; 'I' for Inactive)
REMARK    1  A    between atoms: C_4  and  N_25
REMARK    2  A    between atoms: C_6  and  C_7
REMARK    3  A    between atoms: C_8  and  C_9
REMARK    4  A    between atoms: N_11  and  C_12
REMARK    5  A    between atoms: C_13  and  C_22
REMARK                            x       y       z     vdW  Elec       q    Type
REMARK                         _______ _______ _______ _____ _____    ______ ____
ROOT
ATOM      1  C   UNL     1       6.605  -2.401   1.591  0.00  0.00    +0.241 C 
ATOM      2  O   UNL     1       6.903  -1.597   0.728  0.00  0.00    -0.270 OA
ATOM      3  N   UNL     1       5.327  -2.501   2.007  0.00  0.00    -0.276 N 
ATOM      4  H   UNL     1       5.058  -3.228   2.788  0.00  0.00    +0.156 HD
ENDROOT
BRANCH   3   5
ATOM      5  C   UNL     1       4.353  -1.687   1.453  0.00  0.00    +0.085 A 
ATOM      6  C   UNL     1       2.999  -1.642   1.746  0.00  0.00    +0.068 A 
ATOM      7  C   UNL     1       2.179  -0.684   1.016  0.00  0.00    -0.023 A 
ATOM      8  C   UNL     1       2.847   0.061   0.110  0.00  0.00    -0.004 A 
ATOM      9  S   UNL     1       4.530  -0.479   0.225  0.00  0.00    -0.077 S 
ATOM     10  C   UNL     1       2.288   1.105  -0.807  0.00  0.00    +0.043 C 
ATOM     11  C   UNL     1       1.406   2.067  -0.000  0.00  0.00    +0.005 C 
ATOM     12  C   UNL     1      -0.019   1.523   0.010  0.00  0.00    +0.001 C 
ATOM     13  C   UNL     1       0.002  -0.004   0.002  0.00  0.00    +0.005 C 
ATOM     14  C   UNL     1       0.683  -0.535   1.259  0.00  0.00    +0.037 C 
BRANCH   6  15
ATOM     15  C   UNL     1       2.412  -2.527   2.756  0.00  0.00    +0.244 C 
ATOM     16  O   UNL     1       1.983  -3.620   2.433  0.00  0.00    -0.270 OA
ATOM     17  N   UNL     1       2.346  -2.132   4.043  0.00  0.00    -0.325 N 
ATOM     18  H   UNL     1       1.906  -2.796   4.801  0.00  0.00    +0.145 HD
ATOM     19  H   UNL     1       2.734  -1.145   4.335  0.00  0.00    +0.145 HD
ENDBRANCH   6  15
ENDBRANCH   3   5
BRANCH   1  21
ATOM     20  C   UNL     1       8.914  -3.162   1.760  0.00  0.00    +0.013 C 
ATOM     21  C   UNL     1       7.634  -3.261   2.177  0.00  0.00    +0.068 C 
BRANCH  20  27
ATOM     22  C   UNL     1       9.610  -4.952   3.341  0.00  0.00    +0.009 A 
ATOM     23  C   UNL     1      10.585  -5.758   3.889  0.00  0.00    +0.023 A 
ATOM     24  C   UNL     1      11.897  -5.653   3.458  0.00  0.00    +0.071 A 
ATOM     25  C   UNL     1      12.240  -4.738   2.476  0.00  0.00    +0.145 A 
ATOM     26  C   UNL     1      11.275  -3.929   1.915  0.00  0.00    +0.042 A 
ATOM     27  C   UNL     1       9.948  -4.026   2.349  0.00  0.00    -0.023 A 
ATOM     28 CL   UNL     1      13.118  -6.673   4.153  0.00  0.00    -0.081 Cl
BRANCH  25  29
ATOM     29  N   UNL     1      13.646  -4.632   2.023  0.00  0.00    +0.058 N 
ATOM     30  O   UNL     1      13.949  -3.828   1.160  0.00  0.00    -0.126 OA
ATOM     31  O   UNL     1      14.499  -5.350   2.514  0.00  0.00    -0.126 OA
ENDBRANCH  25  29
ENDBRANCH  20  27
ENDBRANCH   1  21
TORSDOF 5
