REMARK  Name = ZINC65006040
REMARK  8 active torsions:
REMARK  status: ('A' for Active; 'I' for Inactive)
REMARK    1  A    between atoms: C_1  and  C_2
REMARK    2  A    between atoms: C_5  and  C_8
REMARK    3  A    between atoms: C_12  and  C_17
REMARK    4  A    between atoms: C_22  and  C_25
REMARK    5  A    between atoms: C_25  and  C_27
REMARK    6  A    between atoms: C_25  and  C_28
REMARK    7  A    between atoms: N_30  and  C_31
REMARK    8  A    between atoms: C_31  and  C_32
REMARK                            x       y       z     vdW  Elec       q    Type
REMARK                         _______ _______ _______ _____ _____    ______ ____
ROOT
ATOM      1  C   UNL     1       0.135 -10.002   1.366  0.00  0.00    +0.247 C 
ATOM      2  O   UNL     1       0.243 -10.017   2.577  0.00  0.00    -0.270 OA
ATOM      3  N   UNL     1       0.049 -11.160   0.683  0.00  0.00    -0.298 N 
ATOM      4  C   UNL     1       0.053 -11.165  -0.787  0.00  0.00    +0.108 C 
ATOM      5  C   UNL     1       1.153 -12.113  -1.274  0.00  0.00    +0.023 C 
ATOM      6  C   UNL     1       0.949 -13.492  -0.642  0.00  0.00    +0.004 C 
ATOM      7  C   UNL     1       1.050 -13.377   0.881  0.00  0.00    +0.023 C 
ATOM      8  C   UNL     1      -0.045 -12.443   1.393  0.00  0.00    +0.108 C 
ENDROOT
BRANCH   1  13
ATOM      9  C   UNL     1      -1.170  -5.604  -2.370  0.00  0.00    +0.228 A 
ATOM     10  N   UNL     1      -1.546  -6.833  -2.125  0.00  0.00    -0.209 NA
ATOM     11  C   UNL     1      -0.817  -7.314  -1.085  0.00  0.00    +0.111 A 
ATOM     12  C   UNL     1      -0.791  -8.533  -0.411  0.00  0.00    +0.044 A 
ATOM     13  C   UNL     1       0.099  -8.714   0.644  0.00  0.00    +0.039 A 
ATOM     14  C   UNL     1       0.960  -7.676   1.022  0.00  0.00    +0.017 A 
ATOM     15  C   UNL     1       0.935  -6.480   0.362  0.00  0.00    +0.049 A 
ATOM     16  C   UNL     1       0.055  -6.282  -0.693  0.00  0.00    +0.156 A 
ATOM     17  O   UNL     1      -0.192  -5.242  -1.518  0.00  0.00    -0.435 OA
BRANCH   9  22
ATOM     18  C   UNL     1      -3.354  -2.247  -6.503  0.00  0.00    +0.044 C 
ATOM     19  C   UNL     1      -2.782  -3.126  -5.420  0.00  0.00    -0.050 A 
ATOM     20  C   UNL     1      -1.777  -2.644  -4.601  0.00  0.00    +0.004 A 
ATOM     21  C   UNL     1      -1.249  -3.444  -3.608  0.00  0.00    +0.013 A 
ATOM     22  C   UNL     1      -1.731  -4.742  -3.431  0.00  0.00    +0.037 A 
ATOM     23  C   UNL     1      -2.746  -5.222  -4.261  0.00  0.00    +0.013 A 
ATOM     24  C   UNL     1      -3.268  -4.410  -5.247  0.00  0.00    +0.004 A 
ENDBRANCH   9  22
ENDBRANCH   1  13
BRANCH   6  25
ATOM     25  C   UNL     1       2.026 -14.451  -1.153  0.00  0.00    +0.075 C 
ATOM     26  C   UNL     1       1.822 -15.830  -0.521  0.00  0.00    +0.017 C 
BRANCH  25  27
ATOM     27  C   UNL     1       1.925 -14.566  -2.652  0.00  0.00    +0.216 C 
ATOM     28  O   UNL     1       1.077 -13.942  -3.253  0.00  0.00    -0.276 OA
ATOM     29  N   UNL     1       2.779 -15.362  -3.325  0.00  0.00    -0.313 N 
ATOM     30  H   UNL     1       3.458 -15.861  -2.845  0.00  0.00    +0.149 HD
BRANCH  29  31
ATOM     31  C   UNL     1       2.682 -15.474  -4.783  0.00  0.00    +0.135 C 
BRANCH  31  32
ATOM     32  C   UNL     1       3.759 -16.433  -5.294  0.00  0.00    +0.135 C 
ATOM     33  C   UNL     1       3.696 -16.539  -6.839  0.00  0.00    +0.035 C 
ATOM     34  C   UNL     1       5.153 -16.966  -7.165  0.00  0.00    +0.031 C 
ATOM     35  C   UNL     1       5.963 -16.222  -6.081  0.00  0.00    +0.160 C 
ATOM     36  O   UNL     1       5.067 -15.915  -5.005  0.00  0.00    -0.375 OA
ENDBRANCH  31  32
ENDBRANCH  29  31
ENDBRANCH  25  27
ENDBRANCH   6  25
TORSDOF 6
