REMARK  Name = ZINC55402869
REMARK  10 active torsions:
REMARK  status: ('A' for Active; 'I' for Inactive)
REMARK    1  A    between atoms: C_1  and  C_2
REMARK    2  A    between atoms: C_2  and  C_3
REMARK    3  A    between atoms: C_3  and  C_5
REMARK    4  A    between atoms: C_3  and  N_6
REMARK    5  A    between atoms: N_6  and  C_7
REMARK    6  A    between atoms: C_7  and  C_8
REMARK    7  A    between atoms: C_13  and  C_15
REMARK    8  A    between atoms: C_15  and  C_16
REMARK    9  A    between atoms: C_16  and  C_17
REMARK   10  A    between atoms: C_19  and  C_22
REMARK                            x       y       z     vdW  Elec       q    Type
REMARK                         _______ _______ _______ _____ _____    ______ ____
ROOT
ATOM      1  N   UNL     1       2.440  -0.231  -0.965  0.00  0.00    -0.294 N 
ATOM      2  C   UNL     1       3.276  -0.576   0.034  0.00  0.00    +0.217 C 
ATOM      3  O   UNL     1       4.365  -0.049   0.122  0.00  0.00    -0.276 OA
ENDROOT
BRANCH   1   4
ATOM      4  C   UNL     1       1.083  -0.781  -1.008  0.00  0.00    +0.073 C 
ATOM      5  C   UNL     1       0.068   0.364  -1.030  0.00  0.00    +0.028 C 
BRANCH   4   7
ATOM      6  C   UNL     1       1.867  -2.832  -2.200  0.00  0.00    +0.005 C 
ATOM      7  C   UNL     1       0.918  -1.634  -2.267  0.00  0.00    +0.019 C 
ENDBRANCH   4   7
ENDBRANCH   1   4
BRANCH   1   8
ATOM      8  C   UNL     1       2.888   0.695  -2.009  0.00  0.00    +0.143 C 
BRANCH   8   9
ATOM      9  C   UNL     1       2.710   2.114  -1.532  0.00  0.00    -0.023 A 
ATOM     10  C   UNL     1       1.577   2.831  -1.870  0.00  0.00    +0.013 A 
ATOM     11  C   UNL     1       1.448   4.104  -1.424  0.00  0.00    +0.045 A 
ATOM     12  S   UNL     1       2.957   4.325  -0.496  0.00  0.00    -0.105 S 
ATOM     13  C   UNL     1       3.655   2.704  -0.760  0.00  0.00    +0.050 A 
ENDBRANCH   8   9
ENDBRANCH   1   8
BRANCH   2  14
ATOM     14  C   UNL     1       2.859  -1.617   1.040  0.00  0.00    +0.105 C 
BRANCH  14  15
ATOM     15  C   UNL     1       3.932  -1.738   2.124  0.00  0.00    +0.108 C 
BRANCH  15  16
ATOM     16  C   UNL     1       3.515  -2.779   3.130  0.00  0.00    +0.228 A 
ATOM     17  N   UNL     1       3.798  -4.048   3.073  0.00  0.00    -0.189 NA
ATOM     18  C   UNL     1       3.269  -4.687   4.134  0.00  0.00    +0.237 A 
ATOM     19  N   UNL     1       2.639  -3.808   4.879  0.00  0.00    -0.053 NA
ATOM     20  O   UNL     1       2.795  -2.552   4.237  0.00  0.00    -0.338 OA
BRANCH  18  21
ATOM     21  C   UNL     1       3.379  -6.133   4.413  0.00  0.00    +0.175 A 
ATOM     22  C   UNL     1       2.843  -6.784   5.480  0.00  0.00    +0.053 A 
ATOM     23  C   UNL     1       3.192  -8.141   5.345  0.00  0.00    +0.042 A 
ATOM     24  C   UNL     1       3.917  -8.252   4.214  0.00  0.00    +0.196 A 
ATOM     25  O   UNL     1       4.024  -7.039   3.651  0.00  0.00    -0.460 OA
ENDBRANCH  18  21
ENDBRANCH  15  16
ENDBRANCH  14  15
ENDBRANCH   2  14
TORSDOF 8
