REMARK  Name = ZINC53857092
REMARK  3 active torsions:
REMARK  status: ('A' for Active; 'I' for Inactive)
REMARK    1  A    between atoms: C_5  and  C_7
REMARK    2  A    between atoms: C_16  and  C_18
REMARK    3  A    between atoms: C_22  and  C_24
REMARK                            x       y       z     vdW  Elec       q    Type
REMARK                         _______ _______ _______ _____ _____    ______ ____
ROOT
ATOM      1  C   UNL     1       1.249  -2.161  -0.022  0.00  0.00    +0.024 A 
ATOM      2  C   UNL     1       0.584  -3.030   0.792  0.00  0.00    +0.044 A 
ATOM      3  C   UNL     1       0.745  -4.409   0.621  0.00  0.00    +0.086 A 
ATOM      4  C   UNL     1       1.613  -4.796  -0.419  0.00  0.00    +0.102 A 
ATOM      5  S   UNL     1       2.154  -3.253  -1.106  0.00  0.00    -0.081 S 
ATOM      6  C   UNL     1       1.863  -6.140  -0.698  0.00  0.00    +0.266 A 
ATOM      7  O   UNL     1       2.617  -6.462  -1.601  0.00  0.00    -0.267 OA
ATOM      8  N   UNL     1       1.245  -7.077   0.060  0.00  0.00    -0.306 N 
ATOM      9  H   UNL     1       1.396  -8.021  -0.107  0.00  0.00    +0.170 HD
ATOM     10  C   UNL     1       0.406  -6.676   1.064  0.00  0.00    +0.141 A 
ATOM     11  N   UNL     1       0.168  -5.423   1.331  0.00  0.00    -0.228 NA
ENDROOT
BRANCH   1  16
ATOM     12  C   UNL     1      -0.017   1.375   0.010  0.00  0.00    +0.001 A 
ATOM     13  C   UNL     1       1.170   2.087   0.002  0.00  0.00    +0.001 A 
ATOM     14  C   UNL     1       2.383   1.422  -0.013  0.00  0.00    +0.020 A 
ATOM     15  C   UNL     1       2.416   0.041  -0.021  0.00  0.00    +0.049 A 
ATOM     16  C   UNL     1       1.222  -0.683  -0.013  0.00  0.00    +0.007 A 
ATOM     17  C   UNL     1       0.002  -0.004   0.002  0.00  0.00    +0.010 A 
ATOM     18 CL   UNL     1       3.938  -0.793  -0.042  0.00  0.00    -0.083 Cl
ENDBRANCH   1  16
BRANCH  10  19
ATOM     19  C   UNL     1      -0.261  -7.712   1.882  0.00  0.00    +0.018 A 
ATOM     20  C   UNL     1      -0.025  -9.065   1.627  0.00  0.00    +0.011 A 
ATOM     21  C   UNL     1      -0.648 -10.033   2.389  0.00  0.00    +0.001 A 
ATOM     22  C   UNL     1      -1.507  -9.671   3.408  0.00  0.00    +0.013 A 
ATOM     23  C   UNL     1      -1.752  -8.322   3.674  0.00  0.00    +0.037 A 
ATOM     24  C   UNL     1      -1.122  -7.340   2.912  0.00  0.00    +0.024 A 
BRANCH  23  25
ATOM     25  C   UNL     1      -2.672  -7.937   4.765  0.00  0.00    +0.242 C 
ATOM     26  O   UNL     1      -2.885  -6.763   4.995  0.00  0.00    -0.270 OA
ATOM     27  N   UNL     1      -3.276  -8.888   5.504  0.00  0.00    -0.325 N 
ATOM     28  H   UNL     1      -3.107  -9.826   5.321  0.00  0.00    +0.145 HD
ATOM     29  H   UNL     1      -3.880  -8.636   6.220  0.00  0.00    +0.145 HD
ENDBRANCH  23  25
ENDBRANCH  10  19
TORSDOF 3
