REMARK  Name = ZINC13750240
REMARK  9 active torsions:
REMARK  status: ('A' for Active; 'I' for Inactive)
REMARK    1  A    between atoms: C_1  and  C_2
REMARK    2  A    between atoms: C_2  and  O_3
REMARK    3  A    between atoms: O_3  and  C_4
REMARK    4  A    between atoms: C_7  and  C_12
REMARK    5  A    between atoms: C_9  and  O_10
REMARK    6  A    between atoms: O_10  and  C_11
REMARK    7  A    between atoms: N_18  and  C_19
REMARK    8  A    between atoms: C_22  and  C_26
REMARK    9  A    between atoms: C_24  and  C_25
REMARK                            x       y       z     vdW  Elec       q    Type
REMARK                         _______ _______ _______ _____ _____    ______ ____
ROOT
ATOM      1  C   UNL     1      -1.874  -6.212   0.995  0.00  0.00    +0.028 C 
ATOM      2  C   UNL     1      -0.811  -6.987   0.660  0.00  0.00    +0.078 C 
ATOM      3  C   UNL     1      -0.718  -8.456   0.558  0.00  0.00    +0.256 C 
ATOM      4  O   UNL     1      -1.676  -9.171   0.787  0.00  0.00    -0.269 OA
ATOM      5  N   UNL     1       0.453  -8.960   0.208  0.00  0.00    -0.260 N 
ATOM      6  C   UNL     1       1.526  -8.133  -0.046  0.00  0.00    +0.166 C 
ATOM      7  N   UNL     1       2.747  -8.465  -0.402  0.00  0.00    -0.225 NA
ATOM      8  S   UNL     1       0.850  -6.501   0.216  0.00  0.00    -0.049 S 
ATOM      9  H   UNL     1       0.558  -9.921   0.129  0.00  0.00    +0.157 HD
ENDROOT
BRANCH   7  10
ATOM     10  C   UNL     1       3.059  -9.776  -0.635  0.00  0.00    +0.069 A 
ATOM     11  C   UNL     1       2.248 -10.554  -1.466  0.00  0.00    +0.028 A 
ATOM     12  C   UNL     1       2.569 -11.875  -1.697  0.00  0.00    +0.005 A 
ATOM     13  C   UNL     1       3.692 -12.431  -1.108  0.00  0.00    -0.050 A 
ATOM     14  C   UNL     1       4.499 -11.667  -0.283  0.00  0.00    +0.008 A 
ATOM     15  C   UNL     1       4.193 -10.342  -0.048  0.00  0.00    -0.025 A 
ATOM     16  C   UNL     1       5.077  -9.510   0.845  0.00  0.00    +0.046 C 
ATOM     17  C   UNL     1       4.036 -13.875  -1.365  0.00  0.00    +0.044 C 
ENDBRANCH   7  10
BRANCH   1  21
ATOM     18  C   UNL     1      -1.621  -1.993   0.622  0.00  0.00    +0.162 A 
ATOM     19  C   UNL     1      -0.697  -2.803  -0.025  0.00  0.00    +0.050 A 
ATOM     20  C   UNL     1      -0.775  -4.173   0.093  0.00  0.00    +0.012 A 
ATOM     21  C   UNL     1      -1.788  -4.752   0.867  0.00  0.00    -0.020 A 
ATOM     22  C   UNL     1      -2.719  -3.934   1.519  0.00  0.00    +0.057 A 
ATOM     23  C   UNL     1      -2.629  -2.561   1.399  0.00  0.00    +0.162 A 
BRANCH  23  24
ATOM     24  O   UNL     1      -3.528  -1.763   2.035  0.00  0.00    -0.491 OA
ATOM     25  C   UNL     1      -4.534  -2.412   2.815  0.00  0.00    +0.277 C 
ENDBRANCH  23  24
BRANCH  18  26
ATOM     26  O   UNL     1      -1.539  -0.642   0.501  0.00  0.00    -0.489 OA
BRANCH  26  28
ATOM     27  C   UNL     1      -0.550   1.402  -0.327  0.00  0.00    +0.048 C 
ATOM     28  C   UNL     1      -0.482  -0.126  -0.311  0.00  0.00    +0.226 C 
ENDBRANCH  26  28
ENDBRANCH  18  26
ENDBRANCH   1  21
TORSDOF 5
