REMARK  Name = ZINC04939354
REMARK  6 active torsions:
REMARK  status: ('A' for Active; 'I' for Inactive)
REMARK    1  A    between atoms: C_1  and  C_2
REMARK    2  A    between atoms: C_11  and  C_13
REMARK    3  A    between atoms: N_15  and  C_16
REMARK    4  A    between atoms: C_18  and  C_24
REMARK    5  A    between atoms: C_21  and  O_22
REMARK    6  A    between atoms: O_22  and  C_23
REMARK                            x       y       z     vdW  Elec       q    Type
REMARK                         _______ _______ _______ _____ _____    ______ ____
ROOT
ATOM      1  C   UNL     1      -5.988  -5.429   0.730  0.00  0.00    +0.044 C 
ATOM      2  C   UNL     1      -6.296  -3.957   0.648  0.00  0.00    -0.050 A 
ATOM      3  C   UNL     1      -7.612  -3.523   0.685  0.00  0.00    +0.007 A 
ATOM      4  C   UNL     1      -7.910  -2.178   0.611  0.00  0.00    +0.047 A 
ATOM      5  C   UNL     1      -6.889  -1.244   0.498  0.00  0.00    +0.140 A 
ATOM      6  C   UNL     1      -5.553  -1.681   0.461  0.00  0.00    +0.032 A 
ATOM      7  C   UNL     1      -5.268  -3.046   0.536  0.00  0.00    +0.016 A 
ATOM      8  C   UNL     1      -4.492  -0.689   0.342  0.00  0.00    +0.038 A 
ATOM      9  C   UNL     1      -4.798   0.683   0.267  0.00  0.00    +0.075 A 
ATOM     10  C   UNL     1      -3.698   1.541   0.161  0.00  0.00    +0.036 A 
ATOM     11  C   UNL     1      -2.446   0.997   0.128  0.00  0.00    +0.076 A 
ATOM     12  S   UNL     1      -2.773  -0.751   0.260  0.00  0.00    -0.083 S 
ATOM     13  C   UNL     1      -6.239   1.024   0.317  0.00  0.00    +0.346 A 
ATOM     14  O   UNL     1      -6.578   2.191   0.257  0.00  0.00    -0.244 OA
ATOM     15  O   UNL     1      -7.173   0.074   0.426  0.00  0.00    -0.422 OA
ENDROOT
BRANCH  11  16
ATOM     16  C   UNL     1      -1.153   1.681   0.018  0.00  0.00    +0.255 C 
ATOM     17  O   UNL     1      -1.112   2.895  -0.064  0.00  0.00    -0.269 OA
ATOM     18  N   UNL     1      -0.011   0.966   0.007  0.00  0.00    -0.278 N 
ATOM     19  H   UNL     1      -0.046  -0.003  -0.011  0.00  0.00    +0.155 HD
BRANCH  18  20
ATOM     20  C   UNL     1       1.226   1.622   0.017  0.00  0.00    +0.076 A 
ATOM     21  C   UNL     1       1.330   2.903   0.539  0.00  0.00    +0.030 A 
ATOM     22  C   UNL     1       2.553   3.546   0.551  0.00  0.00    -0.048 A 
ATOM     23  C   UNL     1       3.673   2.920   0.036  0.00  0.00    +0.007 A 
ATOM     24  C   UNL     1       3.576   1.646  -0.491  0.00  0.00    +0.048 A 
ATOM     25  C   UNL     1       2.355   0.992  -0.503  0.00  0.00    +0.141 A 
ATOM     26  C   UNL     1       2.666   4.936   1.124  0.00  0.00    +0.044 C 
BRANCH  25  27
ATOM     27  O   UNL     1       2.258  -0.262  -1.022  0.00  0.00    -0.493 OA
ATOM     28  C   UNL     1       3.456  -0.845  -1.537  0.00  0.00    +0.277 C 
ENDBRANCH  25  27
ENDBRANCH  18  20
ENDBRANCH  11  16
TORSDOF 3
