REMARK  Name = ZINC14996113
REMARK  8 active torsions:
REMARK  status: ('A' for Active; 'I' for Inactive)
REMARK    1  A    between atoms: C_1  and  O_2
REMARK    2  A    between atoms: O_2  and  C_3
REMARK    3  A    between atoms: C_3  and  C_4
REMARK    4  A    between atoms: C_5  and  C_20
REMARK    5  A    between atoms: C_13  and  C_15
REMARK    6  A    between atoms: N_22  and  C_23
REMARK    7  A    between atoms: C_23  and  C_24
REMARK    8  A    between atoms: C_24  and  N_66
REMARK                            x       y       z     vdW  Elec       q    Type
REMARK                         _______ _______ _______ _____ _____    ______ ____
ROOT
ATOM      1  C   UNL     1       1.415   3.458  -0.268  0.00  0.00    +0.086 A 
ATOM      2  C   UNL     1       1.271   2.089  -0.180  0.00  0.00    +0.080 A 
ATOM      3  C   UNL     1       2.569   1.537  -0.086  0.00  0.00    +0.148 A 
ATOM      4  N   UNL     1       3.429   2.517  -0.111  0.00  0.00    -0.171 NA
ATOM      5  N   UNL     1       2.734   3.727  -0.220  0.00  0.00    -0.199 N 
ATOM      6  C   UNL     1       3.311   4.996  -0.276  0.00  0.00    +0.252 A 
ATOM      7  N   UNL     1       2.525   6.057  -0.380  0.00  0.00    -0.219 NA
ATOM      8  C   UNL     1       3.031   7.279  -0.436  0.00  0.00    +0.117 A 
ATOM      9  C   UNL     1       4.402   7.447  -0.386  0.00  0.00    +0.049 A 
ATOM     10  C   UNL     1       5.209   6.307  -0.276  0.00  0.00    +0.083 A 
ATOM     11  N   UNL     1       4.626   5.108  -0.219  0.00  0.00    -0.210 NA
ENDROOT
BRANCH  10  12
ATOM     12  C   UNL     1       6.678   6.431  -0.217  0.00  0.00    +0.038 A 
ATOM     13  C   UNL     1       7.624   5.444  -0.111  0.00  0.00    +0.017 A 
ATOM     14  C   UNL     1       8.951   5.803  -0.075  0.00  0.00    +0.008 A 
ATOM     15  C   UNL     1       9.285   7.119  -0.145  0.00  0.00    +0.046 A 
ATOM     16  S   UNL     1       7.686   7.903  -0.274  0.00  0.00    -0.095 S 
ENDBRANCH  10  12
BRANCH   2  17
ATOM     17  C   UNL     1       0.000   1.341  -0.189  0.00  0.00    +0.247 C 
ATOM     18  O   UNL     1      -1.056   1.937  -0.280  0.00  0.00    -0.270 OA
ATOM     19  N   UNL     1       0.009  -0.004  -0.101  0.00  0.00    -0.313 N 
ATOM     20  H   UNL     1       0.852  -0.479  -0.033  0.00  0.00    +0.149 HD
BRANCH  19  21
ATOM     21  C   UNL     1      -1.253  -0.747  -0.110  0.00  0.00    +0.092 C 
BRANCH  21  22
ATOM     22  C   UNL     1      -0.961  -2.249  -0.127  0.00  0.00    -0.050 C 
ATOM     23  C   UNL     1      -0.183  -2.650   1.144  0.00  0.00    -0.010 C 
ATOM     24  C   UNL     1       0.815  -3.729   0.652  0.00  0.00    -0.001 C 
ATOM     25  C   UNL     1       1.237  -3.197  -0.740  0.00  0.00    -0.001 C 
ATOM     26  C   UNL     1      -0.059  -2.597  -1.324  0.00  0.00    -0.010 C 
BRANCH  22  32
ATOM     27  C   UNL     1      -2.902  -2.755  -1.482  0.00  0.00    -0.078 C 
ATOM     28  C   UNL     1      -4.127  -3.666  -1.592  0.00  0.00    -0.019 C 
ATOM     29  C   UNL     1      -5.072  -3.385  -0.420  0.00  0.00    -0.004 C 
ATOM     30  C   UNL     1      -4.321  -3.606   0.896  0.00  0.00    -0.019 C 
ATOM     31  C   UNL     1      -3.090  -2.697   0.933  0.00  0.00    -0.078 C 
ATOM     32  N   UNL     1      -2.210  -3.034  -0.205  0.00  0.00    +0.384 N 
ATOM     33  H   UNL     1      -1.978  -4.033  -0.163  0.00  0.00    -0.081 HD
ENDBRANCH  22  32
ENDBRANCH  21  22
ENDBRANCH  19  21
ENDBRANCH   2  17
BRANCH   1  34
ATOM     34  C   UNL     1       0.303   4.467  -0.391  0.00  0.00    +0.215 C 
BRANCH  34  36
ATOM     35  C   UNL     1      -1.031   5.639  -2.001  0.00  0.00    +0.194 C 
ATOM     36  O   UNL     1       0.015   4.694  -1.772  0.00  0.00    -0.377 OA
ENDBRANCH  34  36
ENDBRANCH   1  34
TORSDOF 7
