REMARK  Name = ZINC63743797
REMARK  3 active torsions:
REMARK  status: ('A' for Active; 'I' for Inactive)
REMARK    1  A    between atoms: C_6  and  C_11
REMARK    2  A    between atoms: C_14  and  N_17
REMARK    3  A    between atoms: N_20  and  C_21
REMARK                            x       y       z     vdW  Elec       q    Type
REMARK                         _______ _______ _______ _____ _____    ______ ____
ROOT
ATOM      1  C   UNL     1       4.133  -2.310   1.268  0.00  0.00    -0.021 A 
ATOM      2  C   UNL     1       4.342  -1.700   2.491  0.00  0.00    +0.008 A 
ATOM      3  C   UNL     1       4.687  -2.459   3.593  0.00  0.00    +0.024 A 
ATOM      4  C   UNL     1       4.823  -3.835   3.471  0.00  0.00    +0.035 A 
ATOM      5  C   UNL     1       4.612  -4.445   2.241  0.00  0.00    +0.024 A 
ATOM      6  C   UNL     1       4.262  -3.682   1.145  0.00  0.00    +0.008 A 
ENDROOT
BRANCH   1  12
ATOM      7  C   UNL     1       1.518   2.583   0.269  0.00  0.00    +0.001 A 
ATOM      8  C   UNL     1       2.846   3.028   0.212  0.00  0.00    +0.002 A 
ATOM      9  C   UNL     1       3.896   2.183   0.142  0.00  0.00    +0.026 A 
ATOM     10  C   UNL     1       3.687   0.776   0.121  0.00  0.00    +0.043 A 
ATOM     11  N   UNL     1       4.525  -0.230   0.058  0.00  0.00    -0.374 N 
ATOM     12  C   UNL     1       3.756  -1.480   0.069  0.00  0.00    +0.133 C 
ATOM     13  C   UNL     1       2.302  -1.072   0.150  0.00  0.00    +0.012 C 
ATOM     14  C   UNL     1       2.293   0.280   0.180  0.00  0.00    -0.004 A 
ATOM     15  C   UNL     1       1.208   1.266   0.256  0.00  0.00    +0.010 A 
ATOM     16  H   UNL     1       5.491  -0.160   0.010  0.00  0.00    +0.161 HD
ENDBRANCH   1  12
BRANCH   4  17
ATOM     17  N   UNL     1       5.173  -4.606   4.585  0.00  0.00    -0.269 N 
ATOM     18  C   UNL     1       4.755  -4.244   5.814  0.00  0.00    +0.308 C 
ATOM     19  O   UNL     1       3.998  -3.302   5.945  0.00  0.00    -0.252 OA
ATOM     20  N   UNL     1       5.178  -4.925   6.898  0.00  0.00    -0.269 N 
ATOM     21  H   UNL     1       5.716  -5.402   4.473  0.00  0.00    +0.156 HD
ATOM     22  H   UNL     1       5.839  -5.627   6.802  0.00  0.00    +0.156 HD
BRANCH  20  23
ATOM     23  C   UNL     1       4.660  -4.618   8.163  0.00  0.00    +0.038 A 
ATOM     24  C   UNL     1       3.345  -4.192   8.291  0.00  0.00    +0.027 A 
ATOM     25  C   UNL     1       2.835  -3.889   9.539  0.00  0.00    +0.051 A 
ATOM     26  C   UNL     1       3.634  -4.009  10.666  0.00  0.00    +0.162 A 
ATOM     27  C   UNL     1       4.950  -4.438  10.542  0.00  0.00    +0.164 A 
ATOM     28  C   UNL     1       5.460  -4.745   9.290  0.00  0.00    +0.072 A 
ATOM     29  O   UNL     1       5.746  -4.569  11.637  0.00  0.00    -0.485 OA
ATOM     30  C   UNL     1       5.317  -3.902  12.829  0.00  0.00    +0.270 C 
ATOM     31  C   UNL     1       3.823  -4.191  13.030  0.00  0.00    +0.270 C 
ATOM     32  O   UNL     1       3.114  -3.701  11.887  0.00  0.00    -0.485 OA
ENDBRANCH  20  23
ENDBRANCH   4  17
TORSDOF 3
