REMARK  Name = ZINC65062990
REMARK  4 active torsions:
REMARK  status: ('A' for Active; 'I' for Inactive)
REMARK    1  A    between atoms: C_4  and  C_7
REMARK    2  A    between atoms: C_9  and  C_12
REMARK    3  A    between atoms: C_15  and  C_17
REMARK    4  A    between atoms: N_19  and  C_20
REMARK                            x       y       z     vdW  Elec       q    Type
REMARK                         _______ _______ _______ _____ _____    ______ ____
ROOT
ATOM      1  C   UNL     1       5.723  -3.660  -0.084  0.00  0.00    +0.060 A 
ATOM      2  C   UNL     1       7.051  -4.052  -0.093  0.00  0.00    +0.020 A 
ATOM      3  C   UNL     1       7.343  -5.388  -0.110  0.00  0.00    +0.021 A 
ATOM      4  C   UNL     1       6.296  -6.298  -0.117  0.00  0.00    +0.074 A 
ATOM      5  S   UNL     1       4.868  -5.227  -0.091  0.00  0.00    -0.080 S 
ENDROOT
BRANCH   1   8
ATOM      6  C   UNL     1       3.695  -0.685  -0.038  0.00  0.00    +0.259 A 
ATOM      7  N   UNL     1       3.850  -1.988  -0.052  0.00  0.00    -0.187 NA
ATOM      8  C   UNL     1       5.159  -2.293  -0.066  0.00  0.00    +0.209 A 
ATOM      9  N   UNL     1       5.853  -1.179  -0.061  0.00  0.00    -0.055 NA
ATOM     10  O   UNL     1       4.913  -0.115  -0.048  0.00  0.00    -0.332 OA
BRANCH   6  14
ATOM     11  C   UNL     1      -0.017   1.379   0.010  0.00  0.00    +0.000 A 
ATOM     12  C   UNL     1       1.168   2.093   0.002  0.00  0.00    +0.001 A 
ATOM     13  C   UNL     1       2.377   1.429  -0.013  0.00  0.00    +0.013 A 
ATOM     14  C   UNL     1       2.403   0.034  -0.021  0.00  0.00    +0.039 A 
ATOM     15  C   UNL     1       1.204  -0.681  -0.013  0.00  0.00    +0.013 A 
ATOM     16  C   UNL     1       0.002  -0.004   0.002  0.00  0.00    +0.001 A 
ENDBRANCH   6  14
ENDBRANCH   1   8
BRANCH   4  17
ATOM     17  C   UNL     1       6.349  -7.763  -0.134  0.00  0.00    +0.251 C 
ATOM     18  O   UNL     1       7.425  -8.333  -0.144  0.00  0.00    -0.270 OA
ATOM     19  N   UNL     1       5.207  -8.479  -0.138  0.00  0.00    -0.308 N 
ATOM     20  H   UNL     1       4.350  -8.025  -0.130  0.00  0.00    +0.149 HD
BRANCH  19  21
ATOM     21  C   UNL     1       5.261  -9.943  -0.155  0.00  0.00    +0.073 C 
ATOM     22  C   UNL     1       5.473 -10.418  -1.607  0.00  0.00    +0.022 C 
ATOM     23  C   UNL     1       6.028 -11.816  -1.576  0.00  0.00    +0.002 C 
ATOM     24  C   UNL     1       4.929 -12.890  -1.689  0.00  0.00    +0.000 C 
ATOM     25  C   UNL     1       3.681 -12.558  -0.848  0.00  0.00    +0.000 C 
ATOM     26  C   UNL     1       4.031 -12.006   0.508  0.00  0.00    +0.002 C 
ATOM     27  C   UNL     1       4.033 -10.466   0.425  0.00  0.00    +0.022 C 
ENDBRANCH  19  21
ENDBRANCH   4  17
TORSDOF 4
