REMARK  Name = ZINC09453252
REMARK  2 active torsions:
REMARK  status: ('A' for Active; 'I' for Inactive)
REMARK    1  A    between atoms: C_4  and  C_7
REMARK    2  A    between atoms: C_7  and  C_9
REMARK                            x       y       z     vdW  Elec       q    Type
REMARK                         _______ _______ _______ _____ _____    ______ ____
ROOT
ATOM      1  C   UNL     1      -0.013   1.086   0.008  0.00  0.00    +0.066 C 
ATOM      2  C   UNL     1      -0.877   1.736  -1.101  0.00  0.00    -0.055 C 
ATOM      3  C   UNL     1       0.016   2.070  -2.306  0.00  0.00    -0.016 C 
ATOM      4  C   UNL     1       0.013   3.612  -2.399  0.00  0.00    -0.020 C 
ATOM      5  C   UNL     1      -0.350   4.045  -0.958  0.00  0.00    -0.076 C 
ATOM      6  C   UNL     1      -1.305   2.903   0.944  0.00  0.00    +0.060 C 
ATOM      7  C   UNL     1      -0.768   1.515   1.281  0.00  0.00    +0.085 C 
ATOM      8  C   UNL     1       0.131   1.522   2.481  0.00  0.00    -0.011 A 
ATOM      9  C   UNL     1       1.292   2.192   2.796  0.00  0.00    +0.006 A 
ATOM     10  C   UNL     1       1.905   1.981   4.019  0.00  0.00    +0.000 A 
ATOM     11  C   UNL     1       1.349   1.096   4.924  0.00  0.00    +0.002 A 
ATOM     12  C   UNL     1       0.185   0.422   4.614  0.00  0.00    +0.023 A 
ATOM     13  C   UNL     1      -0.438   0.629   3.385  0.00  0.00    +0.038 A 
ATOM     14  N   UNL     1      -1.603   0.075   2.849  0.00  0.00    -0.285 N 
ATOM     15  C   UNL     1      -1.868   0.546   1.615  0.00  0.00    +0.228 C 
ATOM     16  O   UNL     1      -2.809   0.247   0.911  0.00  0.00    -0.275 OA
ATOM     17  C   UNL     1      -2.671   3.122   1.538  0.00  0.00    -0.024 A 
ATOM     18  C   UNL     1      -3.879   2.479   1.387  0.00  0.00    +0.043 A 
ATOM     19  C   UNL     1      -4.990   2.922   2.086  0.00  0.00    +0.124 A 
ATOM     20  C   UNL     1      -4.881   4.011   2.935  0.00  0.00    +0.040 A 
ATOM     21  C   UNL     1      -3.671   4.656   3.087  0.00  0.00    +0.026 A 
ATOM     22  C   UNL     1      -2.550   4.216   2.387  0.00  0.00    +0.036 A 
ATOM     23  N   UNL     1      -1.237   4.696   2.373  0.00  0.00    -0.286 N 
ATOM     24  C   UNL     1      -0.445   3.982   1.553  0.00  0.00    +0.212 C 
ATOM     25  O   UNL     1       0.735   4.170   1.343  0.00  0.00    -0.277 OA
ATOM     26  F   UNL     1      -6.177   2.293   1.941  0.00  0.00    -0.205 F 
ATOM     27  H   UNL     1      -2.158  -0.572   3.312  0.00  0.00    +0.155 HD
ATOM     28  H   UNL     1      -0.933   5.455   2.894  0.00  0.00    +0.155 HD
ATOM     29  N   UNL     1      -1.308   3.009  -0.529  0.00  0.00    +0.395 N 
ATOM     30  H   UNL     1      -2.252   3.245  -0.859  0.00  0.00    -0.079 HD
ENDROOT
BRANCH   1  31
ATOM     31  C   UNL     1       1.388   1.642  -0.002  0.00  0.00    +0.166 C 
ATOM     32  O   UNL     1       1.614   2.705  -0.541  0.00  0.00    -0.292 OA
BRANCH  31  36
ATOM     33  C   UNL     1       4.538  -0.507   1.854  0.00  0.00    +0.000 A 
ATOM     34  C   UNL     1       4.800   0.705   1.240  0.00  0.00    +0.001 A 
ATOM     35  C   UNL     1       3.782   1.409   0.634  0.00  0.00    +0.011 A 
ATOM     36  C   UNL     1       2.481   0.896   0.642  0.00  0.00    +0.018 A 
ATOM     37  C   UNL     1       2.223  -0.327   1.269  0.00  0.00    +0.011 A 
ATOM     38  C   UNL     1       3.253  -1.022   1.866  0.00  0.00    +0.001 A 
ENDBRANCH  31  36
ENDBRANCH   1  31
TORSDOF 2
