REMARK  Name = ZINC04282899
REMARK  10 active torsions:
REMARK  status: ('A' for Active; 'I' for Inactive)
REMARK    1  A    between atoms: C_1  and  C_2
REMARK    2  A    between atoms: C_2  and  O_3
REMARK    3  A    between atoms: O_3  and  C_4
REMARK    4  A    between atoms: C_4  and  C_6
REMARK    5  A    between atoms: C_10  and  N_11
REMARK    6  A    between atoms: C_12  and  C_14
REMARK    7  A    between atoms: N_16  and  N_17
REMARK    8  A    between atoms: C_18  and  C_19
REMARK    9  A    between atoms: C_24  and  C_30
REMARK   10  A    between atoms: C_32  and  C_36
REMARK                            x       y       z     vdW  Elec       q    Type
REMARK                         _______ _______ _______ _____ _____    ______ ____
ROOT
ATOM      1  N   UNL     1      -1.593   5.168  12.747  0.00  0.00    -0.271 N 
ATOM      2  C   UNL     1      -2.342   4.957  11.647  0.00  0.00    +0.305 C 
ATOM      3  O   UNL     1      -3.539   5.157  11.680  0.00  0.00    -0.265 OA
ATOM      4  H   UNL     1      -0.637   5.007  12.721  0.00  0.00    +0.156 HD
ENDROOT
BRANCH   1   9
ATOM      5  C   UNL     1      -1.590   5.885  15.139  0.00  0.00    +0.091 A 
ATOM      6  C   UNL     1      -2.448   6.346  16.216  0.00  0.00    -0.021 A 
ATOM      7  C   UNL     1      -3.757   6.460  15.901  0.00  0.00    -0.004 A 
ATOM      8  S   UNL     1      -3.858   5.974  14.201  0.00  0.00    -0.077 S 
ATOM      9  C   UNL     1      -2.188   5.613  13.914  0.00  0.00    +0.087 A 
ATOM     10  C   UNL     1      -4.868   6.906  16.802  0.00  0.00    +0.046 C 
ATOM     11  C   UNL     1      -4.363   6.860  18.251  0.00  0.00    -0.009 C 
ATOM     12  C   UNL     1      -2.995   7.546  18.319  0.00  0.00    +0.008 C 
ATOM     13  C   UNL     1      -1.945   6.686  17.614  0.00  0.00    +0.037 C 
ATOM     14  C   UNL     1      -5.352   7.589  19.162  0.00  0.00    +0.008 C 
BRANCH   5  15
ATOM     15  C   UNL     1      -0.148   5.715  15.335  0.00  0.00    +0.342 C 
ATOM     16  O   UNL     1       0.609   6.641  15.117  0.00  0.00    -0.245 OA
BRANCH  15  17
ATOM     17  O   UNL     1       0.339   4.530  15.758  0.00  0.00    -0.461 OA
BRANCH  17  19
ATOM     18  C   UNL     1       2.140   3.027  16.412  0.00  0.00    +0.048 C 
ATOM     19  C   UNL     1       1.778   4.434  15.931  0.00  0.00    +0.229 C 
ENDBRANCH  17  19
ENDBRANCH  15  17
ENDBRANCH   5  15
ENDBRANCH   1   9
BRANCH   2  20
ATOM     20  C   UNL     1      -1.701   4.477  10.389  0.00  0.00    +0.318 C 
ATOM     21  O   UNL     1      -0.504   4.276  10.357  0.00  0.00    -0.263 OA
ATOM     22  N   UNL     1      -2.450   4.266   9.289  0.00  0.00    -0.199 N 
ATOM     23  H   UNL     1      -3.407   4.426   9.316  0.00  0.00    +0.178 HD
BRANCH  22  24
ATOM     24  N   UNL     1      -1.848   3.815   8.107  0.00  0.00    -0.187 NA
ATOM     25  C   UNL     1      -2.570   3.612   7.047  0.00  0.00    +0.141 C 
BRANCH  25  26
ATOM     26  C   UNL     1      -1.937   3.137   5.804  0.00  0.00    +0.032 A 
ATOM     27  C   UNL     1      -2.704   2.917   4.665  0.00  0.00    +0.022 A 
ATOM     28  C   UNL     1      -2.051   2.465   3.507  0.00  0.00    +0.001 A 
ATOM     29  C   UNL     1      -2.761   2.220   2.319  0.00  0.00    +0.010 A 
ATOM     30  C   UNL     1      -2.094   1.787   1.213  0.00  0.00    +0.004 A 
ATOM     31  C   UNL     1      -0.718   1.572   1.248  0.00  0.00    -0.048 A 
ATOM     32  C   UNL     1       0.001   1.798   2.382  0.00  0.00    +0.031 A 
ATOM     33  C   UNL     1      -0.649   2.252   3.542  0.00  0.00    +0.073 A 
ATOM     34  N   UNL     1       0.038   2.480   4.667  0.00  0.00    -0.235 NA
ATOM     35  C   UNL     1      -0.548   2.902   5.759  0.00  0.00    +0.139 A 
ATOM     36 CL   UNL     1       0.406   3.179   7.183  0.00  0.00    -0.061 Cl
ATOM     37  C   UNL     1      -0.013   1.086   0.008  0.00  0.00    +0.044 C 
ENDBRANCH  25  26
ENDBRANCH  22  24
ENDBRANCH   2  20
TORSDOF 7
