REMARK  Name = ZINC35890767
REMARK  12 active torsions:
REMARK  status: ('A' for Active; 'I' for Inactive)
REMARK    1  A    between atoms: C_1  and  C_2
REMARK    2  A    between atoms: C_6  and  O_8
REMARK    3  A    between atoms: O_8  and  C_9
REMARK    4  A    between atoms: C_9  and  C_11
REMARK    5  A    between atoms: C_9  and  C_30
REMARK    6  A    between atoms: C_11  and  N_12
REMARK    7  A    between atoms: N_12  and  C_13
REMARK    8  A    between atoms: N_12  and  C_23
REMARK    9  A    between atoms: C_13  and  C_14
REMARK   10  A    between atoms: C_23  and  C_24
REMARK   11  A    between atoms: N_32  and  C_33
REMARK   12  A    between atoms: C_33  and  C_34
REMARK                            x       y       z     vdW  Elec       q    Type
REMARK                         _______ _______ _______ _____ _____    ______ ____
ROOT
ATOM      1  C   UNL     1      -0.391  -4.329   2.505  0.00  0.00    +0.242 C 
ENDROOT
BRANCH   1   2
ATOM      2  C   UNL     1      -0.086  -4.960   3.840  0.00  0.00    +0.252 C 
ATOM      3  O   UNL     1       0.132  -4.260   4.806  0.00  0.00    -0.272 OA
ATOM      4  N   UNL     1      -0.055  -6.302   3.959  0.00  0.00    -0.305 N 
ATOM      5  H   UNL     1      -0.230  -6.862   3.187  0.00  0.00    +0.149 HD
BRANCH   4   6
ATOM      6  C   UNL     1       0.241  -6.915   5.256  0.00  0.00    +0.178 C 
BRANCH   6   7
ATOM      7  C   UNL     1       0.214  -8.416   5.121  0.00  0.00    +0.122 A 
ATOM      8  C   UNL     1       1.265  -9.197   4.813  0.00  0.00    +0.046 A 
ATOM      9  C   UNL     1       0.793 -10.529   4.793  0.00  0.00    +0.041 A 
ATOM     10  C   UNL     1      -0.518 -10.483   5.088  0.00  0.00    +0.195 A 
ATOM     11  O   UNL     1      -0.862  -9.200   5.292  0.00  0.00    -0.466 OA
ENDBRANCH   6   7
ENDBRANCH   4   6
ENDBRANCH   1   2
BRANCH   1  12
ATOM     12  O   UNL     1      -0.251  -2.911   2.606  0.00  0.00    -0.482 OA
BRANCH  12  18
ATOM     13  C   UNL     1       2.584   1.009   1.959  0.00  0.00    +0.044 C 
ATOM     14  C   UNL     1       2.390  -0.485   1.991  0.00  0.00    -0.047 A 
ATOM     15  C   UNL     1       3.454  -1.326   1.725  0.00  0.00    +0.003 A 
ATOM     16  C   UNL     1       3.279  -2.697   1.754  0.00  0.00    +0.004 A 
ATOM     17  C   UNL     1       2.039  -3.231   2.049  0.00  0.00    +0.046 A 
ATOM     18  C   UNL     1       0.969  -2.389   2.316  0.00  0.00    +0.122 A 
ATOM     19  C   UNL     1       1.149  -1.013   2.292  0.00  0.00    +0.049 A 
ENDBRANCH  12  18
ENDBRANCH   1  12
BRANCH   1  20
ATOM     20  C   UNL     1      -1.824  -4.673   2.094  0.00  0.00    -0.023 C 
BRANCH  20  21
ATOM     21  N   UNL     1      -2.084  -4.156   0.744  0.00  0.00    +0.387 N 
ATOM     22  H   UNL     1      -1.894  -3.165   0.721  0.00  0.00    -0.081 HD
BRANCH  21  23
ATOM     23  C   UNL     1      -3.490  -4.394   0.391  0.00  0.00    -0.043 C 
BRANCH  23  24
ATOM     24  C   UNL     1      -3.798  -3.721  -0.922  0.00  0.00    -0.060 A 
ATOM     25  C   UNL     1      -4.124  -2.377  -0.949  0.00  0.00    +0.005 A 
ATOM     26  C   UNL     1      -4.407  -1.756  -2.151  0.00  0.00    +0.050 A 
ATOM     27  C   UNL     1      -4.366  -2.478  -3.332  0.00  0.00    +0.166 A 
ATOM     28  C   UNL     1      -4.038  -3.832  -3.305  0.00  0.00    +0.166 A 
ATOM     29  C   UNL     1      -3.749  -4.447  -2.098  0.00  0.00    +0.051 A 
ATOM     30  O   UNL     1      -4.065  -4.313  -4.582  0.00  0.00    -0.453 OA
ATOM     31  C   UNL     1      -4.810  -3.343  -5.342  0.00  0.00    +0.466 C 
ATOM     32  O   UNL     1      -4.599  -2.112  -4.626  0.00  0.00    -0.453 OA
ENDBRANCH  23  24
ENDBRANCH  21  23
BRANCH  21  33
ATOM     33  C   UNL     1      -1.214  -4.844  -0.219  0.00  0.00    -0.046 C 
BRANCH  33  34
ATOM     34  C   UNL     1      -1.372  -6.357  -0.059  0.00  0.00    +0.102 C 
ATOM     35  C   UNL     1      -0.342  -7.088  -0.947  0.00  0.00    +0.032 C 
ATOM     36  C   UNL     1      -1.165  -8.291  -1.484  0.00  0.00    +0.030 C 
ATOM     37  C   UNL     1      -2.571  -7.654  -1.609  0.00  0.00    +0.160 C 
ATOM     38  O   UNL     1      -2.679  -6.757  -0.490  0.00  0.00    -0.378 OA
ENDBRANCH  33  34
ENDBRANCH  21  33
ENDBRANCH  20  21
ENDBRANCH   1  20
TORSDOF 11
