REMARK  Name = ZINC48964313
REMARK  13 active torsions:
REMARK  status: ('A' for Active; 'I' for Inactive)
REMARK    1  A    between atoms: C_1  and  C_2
REMARK    2  A    between atoms: C_2  and  N_3
REMARK    3  A    between atoms: N_3  and  C_4
REMARK    4  A    between atoms: N_3  and  C_6
REMARK    5  A    between atoms: C_4  and  C_5
REMARK    6  A    between atoms: C_6  and  C_7
REMARK    7  A    between atoms: C_7  and  N_8
REMARK    8  A    between atoms: N_8  and  C_9
REMARK    9  A    between atoms: C_9  and  C_10
REMARK   10  A    between atoms: C_10  and  C_11
REMARK   11  A    between atoms: C_10  and  C_12
REMARK   12  A    between atoms: C_13  and  C_15
REMARK   13  A    between atoms: C_16  and  C_20
REMARK                            x       y       z     vdW  Elec       q    Type
REMARK                         _______ _______ _______ _____ _____    ______ ____
ROOT
ATOM      1  N   UNL     1      -1.308  -3.361  -2.069  0.00  0.00    -0.299 N 
ATOM      2  C   UNL     1      -0.850  -4.080  -3.113  0.00  0.00    +0.253 C 
ATOM      3  O   UNL     1      -0.971  -5.291  -3.117  0.00  0.00    -0.269 OA
ENDROOT
BRANCH   2   4
ATOM      4  C   UNL     1      -0.206  -3.404  -4.243  0.00  0.00    +0.077 A 
ATOM      5  C   UNL     1       0.214  -3.933  -5.454  0.00  0.00    -0.031 A 
ATOM      6  C   UNL     1       0.790  -3.042  -6.327  0.00  0.00    +0.011 A 
ATOM      7  C   UNL     1       0.908  -1.742  -5.959  0.00  0.00    +0.046 A 
ATOM      8  S   UNL     1       0.234  -1.686  -4.421  0.00  0.00    -0.092 S 
ATOM      9  C   UNL     1       0.049  -5.393  -5.791  0.00  0.00    +0.045 C 
ENDBRANCH   2   4
BRANCH   1  10
ATOM     10  C   UNL     1      -1.279  -1.897  -2.119  0.00  0.00    +0.089 C 
BRANCH  10  11
ATOM     11  C   UNL     1       0.061  -1.395  -1.577  0.00  0.00    -0.060 C 
BRANCH  11  12
ATOM     12  N   UNL     1       0.090   0.073  -1.627  0.00  0.00    +0.380 N 
ATOM     13  H   UNL     1      -0.104   0.381  -2.568  0.00  0.00    -0.082 HD
BRANCH  12  15
ATOM     14  C   UNL     1      -1.001   2.134  -0.880  0.00  0.00    -0.017 C 
ATOM     15  C   UNL     1      -0.926   0.614  -0.715  0.00  0.00    -0.082 C 
ENDBRANCH  12  15
BRANCH  12  16
ATOM     16  C   UNL     1       1.418   0.550  -1.220  0.00  0.00    -0.082 C 
ATOM     17  C   UNL     1       2.457   0.115  -2.256  0.00  0.00    -0.017 C 
ENDBRANCH  12  16
ENDBRANCH  11  12
ENDBRANCH  10  11
ENDBRANCH   1  10
BRANCH   1  18
ATOM     18  C   UNL     1      -1.835  -4.043  -0.884  0.00  0.00    +0.111 C 
BRANCH  18  19
ATOM     19  C   UNL     1      -3.358  -4.143  -0.989  0.00  0.00    +0.000 C 
ATOM     20  C   UNL     1      -3.731  -5.064  -2.152  0.00  0.00    +0.009 C 
ATOM     21  C   UNL     1      -3.923  -4.712   0.314  0.00  0.00    +0.009 C 
ENDBRANCH  18  19
ENDBRANCH   1  18
TORSDOF 8
