REMARK  Name = ZINC08742555
REMARK  6 active torsions:
REMARK  status: ('A' for Active; 'I' for Inactive)
REMARK    1  A    between atoms: N_14  and  C_15
REMARK    2  A    between atoms: C_15  and  C_16
REMARK    3  A    between atoms: C_16  and  C_17
REMARK    4  A    between atoms: N_19  and  C_20
REMARK    5  A    between atoms: C_20  and  C_21
REMARK    6  A    between atoms: C_21  and  C_22
REMARK                            x       y       z     vdW  Elec       q    Type
REMARK                         _______ _______ _______ _____ _____    ______ ____
ROOT
ATOM      1  C   UNL     1      -0.017   1.379   0.010  0.00  0.00    +0.002 A 
ATOM      2  C   UNL     1       1.167   2.094   0.002  0.00  0.00    +0.002 A 
ATOM      3  C   UNL     1       2.381   1.430  -0.011  0.00  0.00    +0.025 A 
ATOM      4  C   UNL     1       2.406   0.047  -0.017  0.00  0.00    +0.059 A 
ATOM      5  C   UNL     1       1.213  -0.677  -0.014  0.00  0.00    +0.055 A 
ATOM      6  C   UNL     1       0.002  -0.004   0.002  0.00  0.00    +0.025 A 
ATOM      7  N   UNL     1       1.254  -2.076  -0.032  0.00  0.00    -0.283 N 
ATOM      8  C   UNL     1       2.399  -2.734   0.233  0.00  0.00    +0.235 C 
ATOM      9  O   UNL     1       2.422  -3.945   0.169  0.00  0.00    -0.274 OA
ATOM     10  C   UNL     1       3.652  -1.984   0.607  0.00  0.00    +0.211 C 
ATOM     11  N   UNL     1       3.622  -0.656  -0.024  0.00  0.00    -0.245 N 
ATOM     12  C   UNL     1       4.726  -0.131  -0.591  0.00  0.00    +0.307 C 
ATOM     13  O   UNL     1       4.679   0.969  -1.108  0.00  0.00    -0.252 OA
ATOM     14  N   UNL     1       5.881  -0.824  -0.586  0.00  0.00    -0.299 N 
ATOM     15  H   UNL     1       0.450  -2.577  -0.238  0.00  0.00    +0.155 HD
ATOM     16  H   UNL     1       5.919  -1.701  -0.173  0.00  0.00    +0.150 HD
ENDROOT
BRANCH  14  17
ATOM     17  C   UNL     1       7.081  -0.253  -1.202  0.00  0.00    +0.115 C 
BRANCH  17  18
ATOM     18  C   UNL     1       8.245  -1.236  -1.059  0.00  0.00    +0.114 C 
BRANCH  18  19
ATOM     19  C   UNL     1       9.480  -0.648  -1.693  0.00  0.00    +0.215 C 
ATOM     20  O   UNL     1       9.433   0.449  -2.209  0.00  0.00    -0.276 OA
ATOM     21  N   UNL     1      10.635  -1.342  -1.688  0.00  0.00    -0.315 N 
ATOM     22  H   UNL     1      10.672  -2.219  -1.275  0.00  0.00    +0.149 HD
BRANCH  21  23
ATOM     23  C   UNL     1      11.835  -0.771  -2.304  0.00  0.00    +0.109 C 
BRANCH  23  24
ATOM     24  C   UNL     1      12.999  -1.754  -2.161  0.00  0.00    +0.054 C 
BRANCH  24  25
ATOM     25  C   UNL     1      14.233  -1.166  -2.795  0.00  0.00    -0.046 A 
ATOM     26  C   UNL     1      14.499  -1.396  -4.132  0.00  0.00    +0.005 A 
ATOM     27  C   UNL     1      15.631  -0.857  -4.715  0.00  0.00    +0.020 A 
ATOM     28  C   UNL     1      16.498  -0.088  -3.959  0.00  0.00    +0.041 A 
ATOM     29  C   UNL     1      16.232   0.141  -2.621  0.00  0.00    +0.020 A 
ATOM     30  C   UNL     1      15.097  -0.393  -2.041  0.00  0.00    +0.005 A 
ATOM     31 CL   UNL     1      17.921   0.588  -4.689  0.00  0.00    -0.084 Cl
ENDBRANCH  24  25
ENDBRANCH  23  24
ENDBRANCH  21  23
ENDBRANCH  18  19
ENDBRANCH  17  18
ENDBRANCH  14  17
TORSDOF 6
