REMARK  Name = ZINC36652974
REMARK  14 active torsions:
REMARK  status: ('A' for Active; 'I' for Inactive)
REMARK    1  A    between atoms: C_1  and  C_2
REMARK    2  A    between atoms: C_2  and  C_3
REMARK    3  A    between atoms: C_2  and  S_4
REMARK    4  A    between atoms: S_4  and  C_5
REMARK    5  A    between atoms: C_8  and  C_11
REMARK    6  A    between atoms: C_11  and  C_12
REMARK    7  A    between atoms: N_14  and  C_15
REMARK    8  A    between atoms: C_16  and  C_28
REMARK    9  A    between atoms: C_20  and  C_26
REMARK   10  A    between atoms: C_20  and  C_27
REMARK   11  A    between atoms: C_22  and  C_24
REMARK   12  A    between atoms: C_22  and  C_25
REMARK   13  A    between atoms: C_28  and  O_30
REMARK   14  A    between atoms: O_30  and  C_31
REMARK                            x       y       z     vdW  Elec       q    Type
REMARK                         _______ _______ _______ _____ _____    ______ ____
ROOT
ATOM      1  C   UNL     1      -0.492  -8.998   2.593  0.00  0.00    +0.086 A 
ATOM      2  C   UNL     1      -0.316 -10.334   2.933  0.00  0.00    +0.091 A 
ATOM      3  C   UNL     1       0.040 -10.620   4.305  0.00  0.00    -0.024 A 
ATOM      4  C   UNL     1       0.154  -9.528   5.097  0.00  0.00    -0.016 A 
ATOM      5  S   UNL     1      -0.194  -8.168   4.023  0.00  0.00    -0.079 S 
ATOM      6  C   UNL     1       0.488  -9.521   6.551  0.00  0.00    -0.041 C 
ATOM      7  N   UNL     1       0.911 -10.836   7.030  0.00  0.00    +0.389 N 
ATOM      8  C   UNL     1       1.347 -11.791   6.021  0.00  0.00    -0.069 C 
ATOM      9  C   UNL     1       0.297 -11.986   4.920  0.00  0.00    +0.024 C 
ATOM     10  C   UNL     1       2.672 -11.357   5.389  0.00  0.00    -0.010 C 
ATOM     11  C   UNL     1       1.573 -13.152   6.705  0.00  0.00    -0.010 C 
ATOM     12  C   UNL     1       1.587  -8.482   6.817  0.00  0.00    -0.005 C 
ATOM     13  C   UNL     1      -0.768  -9.091   7.334  0.00  0.00    -0.005 C 
ATOM     14  H   UNL     1       1.669 -10.708   7.704  0.00  0.00    -0.084 HD
ATOM     15  H   UNL     1       0.142 -11.252   7.559  0.00  0.00    -0.084 HD
ENDROOT
BRANCH   1  18
ATOM     16  C   UNL     1      -0.965  -7.141   1.204  0.00  0.00    +0.222 C 
ATOM     17  O   UNL     1      -0.782  -6.401   2.147  0.00  0.00    -0.275 OA
ATOM     18  N   UNL     1      -0.835  -8.473   1.357  0.00  0.00    -0.279 N 
ATOM     19  H   UNL     1      -0.981  -9.065   0.603  0.00  0.00    +0.155 HD
BRANCH  16  20
ATOM     20  C   UNL     1      -1.338  -6.570  -0.140  0.00  0.00    +0.131 C 
BRANCH  20  24
ATOM     21  C   UNL     1      -1.564  -2.311   0.134  0.00  0.00    +0.008 A 
ATOM     22  C   UNL     1      -0.363  -2.924  -0.200  0.00  0.00    +0.015 A 
ATOM     23  C   UNL     1      -0.293  -4.301  -0.287  0.00  0.00    +0.005 A 
ATOM     24  C   UNL     1      -1.418  -5.068  -0.043  0.00  0.00    -0.039 A 
ATOM     25  C   UNL     1      -2.615  -4.461   0.288  0.00  0.00    +0.005 A 
ATOM     26  C   UNL     1      -2.690  -3.085   0.384  0.00  0.00    +0.015 A 
BRANCH  21  27
ATOM     27  S   UNL     1      -1.657  -0.555   0.247  0.00  0.00    -0.122 S 
BRANCH  27  29
ATOM     28  C   UNL     1       0.077  -0.249  -1.846  0.00  0.00    +0.019 C 
ATOM     29  C   UNL     1      -0.037   0.010  -0.342  0.00  0.00    +0.045 C 
ATOM     30  C   UNL     1       0.111   1.508  -0.070  0.00  0.00    +0.019 C 
ENDBRANCH  27  29
ENDBRANCH  21  27
ENDBRANCH  20  24
ENDBRANCH  16  20
ENDBRANCH   1  18
BRANCH   2  31
ATOM     31  C   UNL     1      -0.488 -11.395   1.938  0.00  0.00    +0.342 C 
ATOM     32  O   UNL     1       0.462 -11.766   1.274  0.00  0.00    -0.245 OA
BRANCH  31  33
ATOM     33  O   UNL     1      -1.699 -11.962   1.759  0.00  0.00    -0.464 OA
ATOM     34  C   UNL     1      -1.794 -12.991   0.771  0.00  0.00    +0.280 C 
ENDBRANCH  31  33
ENDBRANCH   2  31
TORSDOF 7
