REMARK  Name = ZINC04240331
REMARK  9 active torsions:
REMARK  status: ('A' for Active; 'I' for Inactive)
REMARK    1  A    between atoms: C_4  and  C_7
REMARK    2  A    between atoms: C_7  and  N_8
REMARK    3  A    between atoms: N_8  and  C_9
REMARK    4  A    between atoms: C_9  and  C_10
REMARK    5  A    between atoms: N_12  and  C_13
REMARK    6  A    between atoms: C_13  and  C_14
REMARK    7  A    between atoms: C_19  and  C_21
REMARK    8  A    between atoms: C_22  and  N_29
REMARK    9  A    between atoms: C_23  and  C_26
REMARK                            x       y       z     vdW  Elec       q    Type
REMARK                         _______ _______ _______ _____ _____    ______ ____
ROOT
ATOM      1  N   UNL     1      -0.046   1.758   0.620  0.00  0.00    -0.284 N 
ATOM      2  C   UNL     1      -1.237   2.244   0.218  0.00  0.00    +0.257 C 
ATOM      3  O   UNL     1      -1.282   3.231  -0.494  0.00  0.00    -0.269 OA
ENDROOT
BRANCH   2   4
ATOM      4  C   UNL     1      -2.476   1.586   0.637  0.00  0.00    +0.115 A 
ATOM      5  C   UNL     1      -3.704   2.151   0.983  0.00  0.00    +0.076 A 
ATOM      6  C   UNL     1      -4.655   1.192   1.331  0.00  0.00    +0.155 A 
ATOM      7  N   UNL     1      -4.325  -0.081   1.302  0.00  0.00    -0.203 NA
ATOM      8  S   UNL     1      -2.821  -0.149   0.835  0.00  0.00    +0.019 S 
BRANCH   6   9
ATOM      9  C   UNL     1      -6.015   1.599   1.727  0.00  0.00    +0.262 C 
ATOM     10  O   UNL     1      -6.314   2.778   1.752  0.00  0.00    -0.269 OA
ATOM     11  N   UNL     1      -6.928   0.666   2.062  0.00  0.00    -0.324 N 
ATOM     12  H   UNL     1      -6.690  -0.274   2.042  0.00  0.00    +0.145 HD
ATOM     13  H   UNL     1      -7.823   0.934   2.322  0.00  0.00    +0.145 HD
ENDBRANCH   6   9
BRANCH   5  14
ATOM     14  N   UNL     1      -3.953   3.518   0.982  0.00  0.00    -0.355 N 
ATOM     15  H   UNL     1      -3.251   4.138   0.730  0.00  0.00    +0.142 HD
ATOM     16  H   UNL     1      -4.828   3.852   1.232  0.00  0.00    +0.142 HD
ENDBRANCH   5  14
ENDBRANCH   2   4
BRANCH   1  17
ATOM     17  C   UNL     1       0.015   0.512   1.388  0.00  0.00    +0.143 C 
BRANCH  17  21
ATOM     18  C   UNL     1      -0.507   1.373   5.540  0.00  0.00    +0.000 A 
ATOM     19  C   UNL     1      -1.607   1.112   4.744  0.00  0.00    +0.000 A 
ATOM     20  C   UNL     1      -1.438   0.834   3.401  0.00  0.00    +0.005 A 
ATOM     21  C   UNL     1      -0.169   0.816   2.853  0.00  0.00    -0.030 A 
ATOM     22  C   UNL     1       0.931   1.071   3.649  0.00  0.00    +0.005 A 
ATOM     23  C   UNL     1       0.762   1.355   4.992  0.00  0.00    +0.000 A 
ENDBRANCH  17  21
ENDBRANCH   1  17
BRANCH   1  24
ATOM     24  C   UNL     1       1.188   2.471   0.283  0.00  0.00    +0.204 C 
BRANCH  24  25
ATOM     25  C   UNL     1       1.710   1.975  -1.041  0.00  0.00    +0.231 C 
ATOM     26  O   UNL     1       1.110   1.111  -1.644  0.00  0.00    -0.274 OA
ATOM     27  N   UNL     1       2.844   2.493  -1.555  0.00  0.00    -0.307 N 
ATOM     28  H   UNL     1       3.324   3.184  -1.073  0.00  0.00    +0.149 HD
BRANCH  27  29
ATOM     29  C   UNL     1       3.351   2.010  -2.842  0.00  0.00    +0.178 C 
BRANCH  29  30
ATOM     30  C   UNL     1       4.620   2.744  -3.189  0.00  0.00    +0.122 A 
ATOM     31  C   UNL     1       5.866   2.363  -2.854  0.00  0.00    +0.046 A 
ATOM     32  C   UNL     1       6.747   3.336  -3.378  0.00  0.00    +0.041 A 
ATOM     33  C   UNL     1       5.988   4.254  -4.003  0.00  0.00    +0.195 A 
ATOM     34  O   UNL     1       4.701   3.887  -3.890  0.00  0.00    -0.466 OA
ENDBRANCH  29  30
ENDBRANCH  27  29
ENDBRANCH  24  25
ENDBRANCH   1  24
TORSDOF 9
