REMARK  Name = ZINC28893354
REMARK  8 active torsions:
REMARK  status: ('A' for Active; 'I' for Inactive)
REMARK    1  A    between atoms: C_1  and  C_2
REMARK    2  A    between atoms: C_5  and  N_9
REMARK    3  A    between atoms: C_10  and  C_12
REMARK    4  A    between atoms: C_12  and  C_14
REMARK    5  A    between atoms: C_12  and  N_15
REMARK    6  A    between atoms: N_15  and  C_16
REMARK    7  A    between atoms: C_16  and  C_17
REMARK    8  A    between atoms: C_17  and  N_23
REMARK                            x       y       z     vdW  Elec       q    Type
REMARK                         _______ _______ _______ _____ _____    ______ ____
ROOT
ATOM      1  N   UNL     1       4.514   1.007   1.725  0.00  0.00    +0.388 N 
ATOM      2  H   UNL     1       4.170   1.926   2.222  0.00  0.00    -0.085 HD
ATOM      3  H   UNL     1       5.433   0.648   2.212  0.00  0.00    -0.085 HD
ENDROOT
BRANCH   1   4
ATOM      4  C   UNL     1       3.472  -0.024   1.825  0.00  0.00    +0.013 C 
ATOM      5  C   UNL     1       2.094   0.635   1.743  0.00  0.00    -0.004 C 
BRANCH   4   7
ATOM      6  N   UNL     1       2.751  -1.740   3.454  0.00  0.00    -0.286 N 
ATOM      7  C   UNL     1       3.606  -0.746   3.141  0.00  0.00    +0.203 C 
ATOM      8  O   UNL     1       4.483  -0.433   3.919  0.00  0.00    -0.277 OA
ATOM      9  H   UNL     1       1.910  -1.973   2.785  0.00  0.00    +0.155 HD
BRANCH   6  14
ATOM     10  C   UNL     1       3.489  -4.719   8.227  0.00  0.00    +0.044 C 
ATOM     11  C   UNL     1       3.293  -3.928   6.959  0.00  0.00    -0.049 A 
ATOM     12  C   UNL     1       3.622  -2.585   6.926  0.00  0.00    +0.005 A 
ATOM     13  C   UNL     1       3.443  -1.857   5.766  0.00  0.00    +0.024 A 
ATOM     14  C   UNL     1       2.933  -2.475   4.631  0.00  0.00    +0.047 A 
ATOM     15  C   UNL     1       2.599  -3.823   4.669  0.00  0.00    +0.039 A 
ATOM     16  C   UNL     1       2.784  -4.546   5.832  0.00  0.00    +0.020 A 
ATOM     17 BR   UNL     1       1.897  -4.667   3.130  0.00  0.00    -0.048 Br
ENDBRANCH   6  14
ENDBRANCH   4   7
ENDBRANCH   1   4
BRANCH   1  18
ATOM     18  C   UNL     1       4.815   1.315   0.320  0.00  0.00    -0.059 C 
BRANCH  18  19
ATOM     19  C   UNL     1       5.971   2.315   0.254  0.00  0.00    +0.007 C 
ATOM     20  C   UNL     1       6.370   2.539  -1.206  0.00  0.00    +0.020 C 
ATOM     21  C   UNL     1       6.809   1.210  -1.824  0.00  0.00    +0.002 C 
ATOM     22  C   UNL     1       8.006   0.657  -1.048  0.00  0.00    +0.000 C 
ATOM     23  C   UNL     1       7.608   0.434   0.413  0.00  0.00    +0.002 C 
ATOM     24  C   UNL     1       7.168   1.763   1.031  0.00  0.00    +0.020 C 
BRANCH  19  25
ATOM     25  N   UNL     1       5.550   3.591   0.848  0.00  0.00    -0.294 NA
ATOM     26  C   UNL     1       5.394   3.469   2.304  0.00  0.00    +0.113 C 
ATOM     27  C   UNL     1       5.013   4.832   2.887  0.00  0.00    +0.175 C 
ATOM     28  O   UNL     1       3.820   5.300   2.252  0.00  0.00    -0.377 OA
ATOM     29  C   UNL     1       3.937   5.432   0.833  0.00  0.00    +0.175 C 
ATOM     30  C   UNL     1       4.307   4.074   0.229  0.00  0.00    +0.113 C 
ENDBRANCH  19  25
ENDBRANCH  18  19
ENDBRANCH   1  18
TORSDOF 6
