REMARK  Name = ZINC15015686
REMARK  8 active torsions:
REMARK  status: ('A' for Active; 'I' for Inactive)
REMARK    1  A    between atoms: C_1  and  C_2
REMARK    2  A    between atoms: C_8  and  C_13
REMARK    3  A    between atoms: C_9  and  O_12
REMARK    4  A    between atoms: C_13  and  C_15
REMARK    5  A    between atoms: C_13  and  N_28
REMARK    6  A    between atoms: C_19  and  O_21
REMARK    7  A    between atoms: O_21  and  C_22
REMARK    8  A    between atoms: N_28  and  C_29
REMARK                            x       y       z     vdW  Elec       q    Type
REMARK                         _______ _______ _______ _____ _____    ______ ____
ROOT
ATOM      1  C   UNL     1       1.147  -2.177  -0.275  0.00  0.00    +0.136 C 
ENDROOT
BRANCH   1   9
ATOM      2  C   UNL     1      -2.214   4.219   0.772  0.00  0.00    +0.065 C 
ATOM      3  C   UNL     1      -0.932   3.453   0.571  0.00  0.00    +0.039 A 
ATOM      4  C   UNL     1       0.276   4.146   0.550  0.00  0.00    +0.023 A 
ATOM      5  C   UNL     1       1.448   3.468   0.368  0.00  0.00    +0.012 A 
ATOM      6  C   UNL     1       1.388   2.070   0.208  0.00  0.00    +0.004 A 
ATOM      7  C   UNL     1       2.551   1.306   0.018  0.00  0.00    +0.010 A 
ATOM      8  C   UNL     1       2.454  -0.044  -0.134  0.00  0.00    +0.010 A 
ATOM      9  C   UNL     1       1.216  -0.681  -0.103  0.00  0.00    +0.021 A 
ATOM     10  C   UNL     1       0.064   0.029   0.080  0.00  0.00    +0.148 A 
ATOM     11  C   UNL     1       0.125   1.429   0.241  0.00  0.00    +0.113 A 
ATOM     12  N   UNL     1      -0.984   2.152   0.416  0.00  0.00    -0.248 NA
BRANCH  10  13
ATOM     13  O   UNL     1      -1.135  -0.610   0.108  0.00  0.00    -0.504 OA
ATOM     14  H   UNL     1      -1.557  -0.691  -0.758  0.00  0.00    +0.292 HD
ENDBRANCH  10  13
ENDBRANCH   1   9
BRANCH   1  15
ATOM     15  C   UNL     1       1.165  -2.839   1.079  0.00  0.00    -0.019 A 
ATOM     16  C   UNL     1       2.340  -2.891   1.807  0.00  0.00    +0.006 A 
ATOM     17  C   UNL     1       2.359  -3.493   3.051  0.00  0.00    +0.004 A 
ATOM     18  C   UNL     1       1.206  -4.054   3.566  0.00  0.00    +0.046 A 
ATOM     19  C   UNL     1       0.028  -4.008   2.836  0.00  0.00    +0.129 A 
ATOM     20  C   UNL     1       0.010  -3.398   1.589  0.00  0.00    +0.052 A 
BRANCH  19  21
ATOM     21  O   UNL     1      -1.107  -4.559   3.340  0.00  0.00    -0.456 OA
BRANCH  21  22
ATOM     22  C   UNL     1      -1.026  -5.212   4.528  0.00  0.00    +0.128 A 
ATOM     23  C   UNL     1      -0.988  -6.599   4.558  0.00  0.00    +0.046 A 
ATOM     24  C   UNL     1      -0.900  -7.260   5.768  0.00  0.00    +0.004 A 
ATOM     25  C   UNL     1      -0.860  -6.542   6.949  0.00  0.00    +0.000 A 
ATOM     26  C   UNL     1      -0.903  -5.160   6.922  0.00  0.00    +0.004 A 
ATOM     27  C   UNL     1      -0.986  -4.494   5.715  0.00  0.00    +0.046 A 
ENDBRANCH  21  22
ENDBRANCH  19  21
ENDBRANCH   1  15
BRANCH   1  28
ATOM     28  N   UNL     1       2.299  -2.632  -1.057  0.00  0.00    -0.320 N 
ATOM     29  H   UNL     1       3.085  -2.979  -0.606  0.00  0.00    +0.148 HD
BRANCH  28  30
ATOM     30  C   UNL     1       2.266  -2.568  -2.445  0.00  0.00    +0.097 A 
ATOM     31  C   UNL     1       1.178  -1.980  -3.082  0.00  0.00    +0.041 A 
ATOM     32  C   UNL     1       1.161  -1.917  -4.464  0.00  0.00    +0.005 A 
ATOM     33  C   UNL     1       2.231  -2.458  -5.165  0.00  0.00    +0.018 A 
ATOM     34  C   UNL     1       3.275  -3.033  -4.468  0.00  0.00    +0.084 A 
ATOM     35  N   UNL     1       3.328  -3.106  -3.111  0.00  0.00    -0.350 N 
ATOM     36  H   UNL     1       4.118  -3.539  -2.619  0.00  0.00    +0.166 HD
ENDBRANCH  28  30
ENDBRANCH   1  28
TORSDOF 7
