REMARK  Name = ZINC05717899
REMARK  8 active torsions:
REMARK  status: ('A' for Active; 'I' for Inactive)
REMARK    1  A    between atoms: C_1  and  C_2
REMARK    2  A    between atoms: C_2  and  O_3
REMARK    3  A    between atoms: O_3  and  C_4
REMARK    4  A    between atoms: C_4  and  C_6
REMARK    5  A    between atoms: C_10  and  N_11
REMARK    6  A    between atoms: C_12  and  C_14
REMARK    7  A    between atoms: C_14  and  S_15
REMARK    8  A    between atoms: S_15  and  C_16
REMARK                            x       y       z     vdW  Elec       q    Type
REMARK                         _______ _______ _______ _____ _____    ______ ____
ROOT
ATOM      1  C   UNL     1      -2.286   9.035   0.069  0.00  0.00    +0.091 A 
ATOM      2  C   UNL     1      -1.934  10.449   0.083  0.00  0.00    -0.021 A 
ATOM      3  C   UNL     1      -0.609  10.705   0.066  0.00  0.00    -0.004 A 
ATOM      4  S   UNL     1       0.165   9.111   0.050  0.00  0.00    -0.077 S 
ATOM      5  C   UNL     1      -1.250   8.113   0.059  0.00  0.00    +0.086 A 
ATOM      6  C   UNL     1       0.065  12.042   0.049  0.00  0.00    +0.043 C 
ATOM      7  C   UNL     1      -0.548  12.932   1.138  0.00  0.00    +0.005 C 
ATOM      8  C   UNL     1      -1.732  13.684   0.538  0.00  0.00    +0.001 C 
ATOM      9  C   UNL     1      -2.420  12.822  -0.519  0.00  0.00    +0.005 C 
ATOM     10  C   UNL     1      -2.982  11.554   0.113  0.00  0.00    +0.037 C 
ENDROOT
BRANCH   5  11
ATOM     11  N   UNL     1      -1.329   6.729   0.052  0.00  0.00    -0.279 N 
ATOM     12  C   UNL     1      -0.202   5.990   0.037  0.00  0.00    +0.228 C 
ATOM     13  O   UNL     1       0.881   6.536   0.029  0.00  0.00    -0.275 OA
ATOM     14  H   UNL     1      -2.195   6.292   0.059  0.00  0.00    +0.155 HD
BRANCH  12  15
ATOM     15  C   UNL     1      -0.287   4.485   0.030  0.00  0.00    +0.172 C 
BRANCH  15  16
ATOM     16  S   UNL     1       1.386   3.785   0.009  0.00  0.00    -0.088 S 
BRANCH  16  17
ATOM     17  C   UNL     1       1.119   2.043   0.002  0.00  0.00    +0.160 A 
ATOM     18  N   UNL     1      -0.017   1.371   0.010  0.00  0.00    -0.133 NA
ATOM     19  N   UNL     1       0.002  -0.004   0.002  0.00  0.00    -0.125 NA
ATOM     20  C   UNL     1       1.154  -0.645  -0.012  0.00  0.00    +0.180 A 
ATOM     21  S   UNL     1       2.313   0.715  -0.016  0.00  0.00    -0.025 S 
ATOM     22  N   UNL     1       1.402  -2.013  -0.022  0.00  0.00    -0.336 N 
ATOM     23  H   UNL     1       0.661  -2.639  -0.018  0.00  0.00    +0.144 HD
ATOM     24  H   UNL     1       2.314  -2.340  -0.033  0.00  0.00    +0.144 HD
ENDBRANCH  16  17
ENDBRANCH  15  16
ENDBRANCH  12  15
ENDBRANCH   5  11
BRANCH   1  25
ATOM     25  C   UNL     1      -3.685   8.603   0.070  0.00  0.00    +0.342 C 
ATOM     26  O   UNL     1      -4.263   8.416   1.123  0.00  0.00    -0.245 OA
BRANCH  25  27
ATOM     27  O   UNL     1      -4.333   8.412  -1.098  0.00  0.00    -0.461 OA
BRANCH  27  29
ATOM     28  C   UNL     1      -6.281   7.821  -2.435  0.00  0.00    +0.048 C 
ATOM     29  C   UNL     1      -5.718   7.984  -1.021  0.00  0.00    +0.229 C 
ENDBRANCH  27  29
ENDBRANCH  25  27
ENDBRANCH   1  25
TORSDOF 7
