REMARK  Name = ZINC03275371
REMARK  5 active torsions:
REMARK  status: ('A' for Active; 'I' for Inactive)
REMARK    1  A    between atoms: C_4  and  O_7
REMARK    2  A    between atoms: O_7  and  C_8
REMARK    3  A    between atoms: C_13  and  N_14
REMARK    4  A    between atoms: C_15  and  C_17
REMARK    5  A    between atoms: C_17  and  N_18
REMARK                            x       y       z     vdW  Elec       q    Type
REMARK                         _______ _______ _______ _____ _____    ______ ____
ROOT
ATOM      1  C   UNL     1      -0.341  -0.461   4.371  0.00  0.00    +0.214 C 
ENDROOT
BRANCH   1   2
ATOM      2  N   UNL     1       0.101   0.409   3.278  0.00  0.00    -0.215 N 
ATOM      3  C   UNL     1       1.378   0.805   3.093  0.00  0.00    +0.247 C 
ATOM      4  O   UNL     1       2.340   0.522   3.773  0.00  0.00    -0.273 OA
ATOM      5  C   UNL     1       1.354   1.677   1.860  0.00  0.00    +0.117 C 
ATOM      6  C   UNL     1       2.233   1.079   0.764  0.00  0.00    +0.040 C 
ATOM      7  C   UNL     1       1.966   1.828  -0.540  0.00  0.00    +0.038 C 
ATOM      8  C   UNL     1       2.055   3.317  -0.327  0.00  0.00    -0.044 A 
ATOM      9  C   UNL     1       2.218   4.120  -1.449  0.00  0.00    +0.004 A 
ATOM     10  C   UNL     1       2.301   5.491  -1.324  0.00  0.00    +0.000 A 
ATOM     11  C   UNL     1       2.220   6.073  -0.073  0.00  0.00    +0.000 A 
ATOM     12  C   UNL     1       2.060   5.278   1.043  0.00  0.00    +0.004 A 
ATOM     13  C   UNL     1       1.980   3.897   0.919  0.00  0.00    -0.042 A 
ATOM     14  C   UNL     1       1.820   3.088   2.181  0.00  0.00    +0.070 C 
ATOM     15  N   UNL     1      -0.055   1.678   1.448  0.00  0.00    -0.285 N 
ATOM     16  C   UNL     1      -0.711   0.908   2.338  0.00  0.00    +0.310 C 
ATOM     17  O   UNL     1      -1.906   0.693   2.293  0.00  0.00    -0.252 OA
ATOM     18  H   UNL     1      -0.437   2.140   0.686  0.00  0.00    +0.151 HD
ENDBRANCH   1   2
BRANCH   1  20
ATOM     19  N   UNL     1      -1.171  -0.206   6.687  0.00  0.00    -0.281 N 
ATOM     20  C   UNL     1      -0.730   0.383   5.558  0.00  0.00    +0.235 C 
ATOM     21  O   UNL     1      -0.646   1.591   5.497  0.00  0.00    -0.274 OA
ATOM     22  H   UNL     1      -1.252  -1.172   6.731  0.00  0.00    +0.155 HD
BRANCH  19  28
ATOM     23  C   UNL     1      -1.577   0.001   9.065  0.00  0.00    +0.150 A 
ATOM     24  C   UNL     1      -1.911   0.782  10.160  0.00  0.00    +0.048 A 
ATOM     25  C   UNL     1      -2.191   2.125   9.992  0.00  0.00    +0.004 A 
ATOM     26  C   UNL     1      -2.133   2.695   8.734  0.00  0.00    +0.002 A 
ATOM     27  C   UNL     1      -1.796   1.925   7.637  0.00  0.00    +0.027 A 
ATOM     28  C   UNL     1      -1.513   0.577   7.797  0.00  0.00    +0.076 A 
BRANCH  23  29
ATOM     29  O   UNL     1      -1.306  -1.321   9.227  0.00  0.00    -0.454 OA
BRANCH  29  33
ATOM     30  C   UNL     1       2.647  -2.474   9.478  0.00  0.00    +0.000 A 
ATOM     31  C   UNL     1       1.643  -3.407   9.662  0.00  0.00    +0.004 A 
ATOM     32  C   UNL     1       0.318  -3.023   9.579  0.00  0.00    +0.046 A 
ATOM     33  C   UNL     1      -0.004  -1.701   9.310  0.00  0.00    +0.129 A 
ATOM     34  C   UNL     1       1.005  -0.768   9.121  0.00  0.00    +0.046 A 
ATOM     35  C   UNL     1       2.328  -1.155   9.210  0.00  0.00    +0.004 A 
ENDBRANCH  29  33
ENDBRANCH  23  29
ENDBRANCH  19  28
ENDBRANCH   1  20
TORSDOF 5
