REMARK  Name = ZINC41146275
REMARK  5 active torsions:
REMARK  status: ('A' for Active; 'I' for Inactive)
REMARK    1  A    between atoms: C_1  and  C_2
REMARK    2  A    between atoms: C_7  and  C_8
REMARK    3  A    between atoms: C_10  and  C_13
REMARK    4  A    between atoms: C_13  and  N_14
REMARK    5  A    between atoms: C_15  and  C_23
REMARK                            x       y       z     vdW  Elec       q    Type
REMARK                         _______ _______ _______ _____ _____    ______ ____
ROOT
ATOM      1  C   UNL     1       0.172   0.152   2.407  0.00  0.00    +0.259 A 
ATOM      2  N   UNL     1       0.375  -0.320   3.616  0.00  0.00    -0.190 NA
ATOM      3  C   UNL     1       0.387   0.679   4.500  0.00  0.00    +0.192 A 
ATOM      4  N   UNL     1       0.192   1.806   3.874  0.00  0.00    -0.059 NA
ATOM      5  O   UNL     1       0.052   1.488   2.497  0.00  0.00    -0.333 OA
ENDROOT
BRANCH   1  12
ATOM      6  C   UNL     1      -1.964   0.650   0.519  0.00  0.00    +0.044 C 
ATOM      7  C   UNL     1      -0.931  -0.413   0.246  0.00  0.00    -0.038 A 
ATOM      8  C   UNL     1      -0.995  -1.157  -0.914  0.00  0.00    +0.004 A 
ATOM      9  C   UNL     1      -0.048  -2.134  -1.166  0.00  0.00    +0.000 A 
ATOM     10  C   UNL     1       0.968  -2.372  -0.258  0.00  0.00    +0.001 A 
ATOM     11  C   UNL     1       1.043  -1.635   0.906  0.00  0.00    +0.013 A 
ATOM     12  C   UNL     1       0.094  -0.644   1.164  0.00  0.00    +0.042 A 
ENDBRANCH   1  12
BRANCH   3  13
ATOM     13  C   UNL     1       0.592   0.530   5.986  0.00  0.00    +0.203 C 
BRANCH  13  14
ATOM     14  N   UNL     1       2.021   0.620   6.293  0.00  0.00    -0.320 N 
ATOM     15  C   UNL     1       2.904  -0.415   6.333  0.00  0.00    +0.108 A 
ATOM     16  N   UNL     1       4.091   0.022   6.637  0.00  0.00    -0.233 NA
ATOM     17  C   UNL     1       4.052   1.368   6.812  0.00  0.00    +0.089 A 
ATOM     18  C   UNL     1       2.724   1.771   6.588  0.00  0.00    +0.069 A 
ATOM     19  C   UNL     1       2.382   3.111   6.695  0.00  0.00    +0.028 A 
ATOM     20  C   UNL     1       3.350   4.040   7.016  0.00  0.00    +0.002 A 
ATOM     21  C   UNL     1       4.661   3.642   7.234  0.00  0.00    +0.002 A 
ATOM     22  C   UNL     1       5.014   2.325   7.140  0.00  0.00    +0.030 A 
ATOM     23  C   UNL     1       2.557  -1.857   6.066  0.00  0.00    +0.086 C 
ENDBRANCH  13  14
ENDBRANCH   3  13
TORSDOF 3
