REMARK  Name = ZINC63448265
REMARK  10 active torsions:
REMARK  status: ('A' for Active; 'I' for Inactive)
REMARK    1  A    between atoms: C_1  and  C_2
REMARK    2  A    between atoms: C_4  and  N_8
REMARK    3  A    between atoms: C_9  and  C_11
REMARK    4  A    between atoms: C_11  and  N_12
REMARK    5  A    between atoms: N_22  and  C_25
REMARK    6  A    between atoms: C_25  and  C_26
REMARK    7  A    between atoms: C_26  and  C_27
REMARK    8  A    between atoms: N_29  and  C_30
REMARK    9  A    between atoms: C_30  and  C_31
REMARK   10  A    between atoms: C_31  and  C_32
REMARK                            x       y       z     vdW  Elec       q    Type
REMARK                         _______ _______ _______ _____ _____    ______ ____
ROOT
ATOM      1  N   UNL     1      -2.300  -6.252  -1.997  0.00  0.00    -0.268 N 
ATOM      2  C   UNL     1      -1.396  -7.403  -1.947  0.00  0.00    +0.124 C 
ATOM      3  C   UNL     1       0.075  -7.152  -1.941  0.00  0.00    +0.004 C 
ATOM      4  C   UNL     1       0.844  -8.017  -1.265  0.00  0.00    +0.039 C 
ATOM      5  S   UNL     1      -0.304  -9.171  -0.498  0.00  0.00    -0.118 S 
ATOM      6  C   UNL     1      -1.743  -8.077  -0.575  0.00  0.00    +0.161 C 
ATOM      7  C   UNL     1      -3.098  -8.622  -0.685  0.00  0.00    +0.238 C 
ATOM      8  O   UNL     1      -3.398  -9.735  -0.310  0.00  0.00    -0.274 OA
ATOM      9  N   UNL     1      -3.997  -7.752  -1.253  0.00  0.00    -0.224 N 
ATOM     10  C   UNL     1      -3.592  -6.536  -1.671  0.00  0.00    +0.312 C 
ATOM     11  O   UNL     1      -4.420  -5.652  -1.767  0.00  0.00    -0.252 OA
ENDROOT
BRANCH   1  12
ATOM     12  C   UNL     1      -1.851  -4.906  -2.361  0.00  0.00    +0.205 C 
BRANCH  12  14
ATOM     13  N   UNL     1      -0.957  -2.905  -1.213  0.00  0.00    -0.288 N 
ATOM     14  C   UNL     1      -1.413  -4.170  -1.120  0.00  0.00    +0.232 C 
ATOM     15  O   UNL     1      -1.470  -4.717  -0.039  0.00  0.00    -0.274 OA
ATOM     16  H   UNL     1      -0.911  -2.468  -2.078  0.00  0.00    +0.151 HD
BRANCH  13  20
ATOM     17  C   UNL     1      -0.018   1.503   0.010  0.00  0.00    +0.067 C 
ATOM     18  C   UNL     1       0.002  -0.004   0.002  0.00  0.00    +0.060 C 
ATOM     19  C   UNL     1      -1.086  -0.777   0.003  0.00  0.00    +0.045 C 
ATOM     20  C   UNL     1      -0.531  -2.190  -0.007  0.00  0.00    +0.239 C 
ATOM     21  N   UNL     1       0.926  -1.973  -0.013  0.00  0.00    -0.160 NA
ATOM     22  N   UNL     1       1.125  -0.756  -0.013  0.00  0.00    -0.157 NA
ENDBRANCH  13  20
ENDBRANCH  12  14
ENDBRANCH   1  12
BRANCH   9  23
ATOM     23  C   UNL     1      -5.401  -8.146  -1.398  0.00  0.00    +0.127 C 
BRANCH  23  24
ATOM     24  C   UNL     1      -6.179  -7.732  -0.147  0.00  0.00    +0.115 C 
BRANCH  24  25
ATOM     25  C   UNL     1      -7.623  -8.137  -0.296  0.00  0.00    +0.215 C 
ATOM     26  O   UNL     1      -7.993  -8.701  -1.304  0.00  0.00    -0.276 OA
ATOM     27  N   UNL     1      -8.502  -7.873   0.690  0.00  0.00    -0.315 N 
ATOM     28  H   UNL     1      -8.206  -7.422   1.496  0.00  0.00    +0.149 HD
BRANCH  27  29
ATOM     29  C   UNL     1      -9.906  -8.266   0.544  0.00  0.00    +0.109 C 
BRANCH  29  30
ATOM     30  C   UNL     1     -10.684  -7.853   1.796  0.00  0.00    +0.054 C 
BRANCH  30  31
ATOM     31  C   UNL     1     -12.128  -8.258   1.646  0.00  0.00    -0.046 A 
ATOM     32  C   UNL     1     -13.033  -7.386   1.070  0.00  0.00    +0.005 A 
ATOM     33  C   UNL     1     -14.358  -7.757   0.932  0.00  0.00    +0.020 A 
ATOM     34  C   UNL     1     -14.777  -9.000   1.371  0.00  0.00    +0.041 A 
ATOM     35  C   UNL     1     -13.870  -9.872   1.948  0.00  0.00    +0.020 A 
ATOM     36  C   UNL     1     -12.545  -9.502   2.079  0.00  0.00    +0.005 A 
ATOM     37 CL   UNL     1     -16.440  -9.466   1.200  0.00  0.00    -0.084 Cl
ENDBRANCH  30  31
ENDBRANCH  29  30
ENDBRANCH  27  29
ENDBRANCH  24  25
ENDBRANCH  23  24
ENDBRANCH   9  23
TORSDOF 9
