REMARK  Name = ZINC03647770
REMARK  4 active torsions:
REMARK  status: ('A' for Active; 'I' for Inactive)
REMARK    1  A    between atoms: C_5  and  S_8
REMARK    2  A    between atoms: S_8  and  N_11
REMARK    3  A    between atoms: C_16  and  C_19
REMARK    4  A    between atoms: C_19  and  C_20
REMARK                            x       y       z     vdW  Elec       q    Type
REMARK                         _______ _______ _______ _____ _____    ______ ____
ROOT
ATOM      1  C   UNL     1      -0.017   1.376   0.010  0.00  0.00    +0.047 A 
ATOM      2  C   UNL     1       1.178   2.094   0.002  0.00  0.00    +0.056 A 
ATOM      3  C   UNL     1       2.381   1.400  -0.023  0.00  0.00    +0.128 A 
ATOM      4  C   UNL     1       2.396   0.021  -0.020  0.00  0.00    +0.060 A 
ATOM      5  C   UNL     1       1.207  -0.685  -0.009  0.00  0.00    +0.125 A 
ATOM      6  C   UNL     1       0.002  -0.004   0.002  0.00  0.00    +0.069 A 
ATOM      7 CL   UNL     1      -1.491  -0.889   0.006  0.00  0.00    -0.081 Cl
ATOM      8  S   UNL     1       3.903   2.297  -0.076  0.00  0.00    +0.062 S 
ATOM      9  O   UNL     1       4.679   1.865   1.033  0.00  0.00    -0.153 OA
ATOM     10  O   UNL     1       4.374   2.235  -1.415  0.00  0.00    -0.153 OA
ATOM     11  N   UNL     1       3.473   3.882   0.218  0.00  0.00    -0.170 NA
ATOM     12  C   UNL     1       2.221   4.339  -0.419  0.00  0.00    +0.160 C 
ATOM     13  N   UNL     1       1.126   3.485   0.032  0.00  0.00    -0.326 N 
ATOM     14  H   UNL     1       4.011   4.467   0.774  0.00  0.00    +0.150 HD
ATOM     15  H   UNL     1       0.321   3.908   0.370  0.00  0.00    +0.148 HD
ENDROOT
BRANCH   5  16
ATOM     16  S   UNL     1       1.226  -2.447  -0.008  0.00  0.00    +0.057 S 
ATOM     17  O   UNL     1       0.325  -2.863  -1.025  0.00  0.00    -0.153 OA
ATOM     18  O   UNL     1       2.592  -2.839   0.006  0.00  0.00    -0.153 OA
BRANCH  16  19
ATOM     19  N   UNL     1       0.576  -2.943   1.432  0.00  0.00    -0.203 NA
ATOM     20  H   UNL     1       0.100  -3.787   1.484  0.00  0.00    +0.144 HD
ATOM     21  H   UNL     1       0.671  -2.390   2.223  0.00  0.00    +0.144 HD
ENDBRANCH  16  19
ENDBRANCH   5  16
BRANCH  12  22
ATOM     22  C   UNL     1       2.356   4.246  -1.940  0.00  0.00    +0.043 C 
BRANCH  22  23
ATOM     23  C   UNL     1       1.108   4.836  -2.600  0.00  0.00    -0.008 C 
ATOM     24  C   UNL     1      -0.115   3.941  -2.312  0.00  0.00    +0.003 C 
ATOM     25  C   UNL     1      -0.938   3.989  -3.623  0.00  0.00    +0.000 C 
ATOM     26  C   UNL     1       0.159   3.984  -4.716  0.00  0.00    +0.000 C 
ATOM     27  C   UNL     1       1.282   4.863  -4.129  0.00  0.00    +0.003 C 
ENDBRANCH  22  23
ENDBRANCH  12  22
TORSDOF 4
