REMARK  Name = ZINC66925760
REMARK  8 active torsions:
REMARK  status: ('A' for Active; 'I' for Inactive)
REMARK    1  A    between atoms: C_2  and  C_3
REMARK    2  A    between atoms: C_3  and  N_4
REMARK    3  A    between atoms: C_5  and  C_7
REMARK    4  A    between atoms: C_7  and  C_8
REMARK    5  A    between atoms: C_8  and  N_9
REMARK    6  A    between atoms: N_12  and  C_13
REMARK    7  A    between atoms: C_13  and  C_14
REMARK    8  A    between atoms: C_14  and  O_24
REMARK                            x       y       z     vdW  Elec       q    Type
REMARK                         _______ _______ _______ _____ _____    ______ ____
ROOT
ATOM      1  N   UNL     1       4.381   5.871  -0.406  0.00  0.00    -0.299 N 
ATOM      2  C   UNL     1       4.598   7.189  -0.224  0.00  0.00    +0.300 C 
ATOM      3  O   UNL     1       3.657   7.945  -0.078  0.00  0.00    -0.253 OA
ATOM      4  N   UNL     1       5.857   7.668  -0.205  0.00  0.00    -0.296 N 
ATOM      5  H   UNL     1       5.131   5.267  -0.522  0.00  0.00    +0.150 HD
ATOM      6  H   UNL     1       6.608   7.064  -0.321  0.00  0.00    +0.150 HD
ENDROOT
BRANCH   1   7
ATOM      7  C   UNL     1       3.012   5.350  -0.427  0.00  0.00    +0.115 C 
BRANCH   7   8
ATOM      8  C   UNL     1       3.046   3.836  -0.647  0.00  0.00    +0.114 C 
BRANCH   8  10
ATOM      9  N   UNL     1       1.420   1.982  -0.850  0.00  0.00    -0.304 N 
ATOM     10  C   UNL     1       1.637   3.300  -0.669  0.00  0.00    +0.215 C 
ATOM     11  O   UNL     1       0.699   4.055  -0.523  0.00  0.00    -0.276 OA
ATOM     12  H   UNL     1       2.171   1.379  -0.967  0.00  0.00    +0.150 HD
BRANCH   9  13
ATOM     13  C   UNL     1       0.051   1.462  -0.872  0.00  0.00    +0.193 C 
BRANCH  13  15
ATOM     14  C   UNL     1       0.110  -1.156  -1.251  0.00  0.00    +0.005 C 
ATOM     15  C   UNL     1       0.084   0.005  -1.083  0.00  0.00    -0.087 C 
ENDBRANCH  13  15
ENDBRANCH   9  13
ENDBRANCH   8  10
ENDBRANCH   7   8
ENDBRANCH   1   7
BRANCH   4  16
ATOM     16  C   UNL     1       6.093   9.100  -0.007  0.00  0.00    +0.145 C 
BRANCH  16  17
ATOM     17  C   UNL     1       7.597   9.359   0.105  0.00  0.00    +0.107 C 
ATOM     18  C   UNL     1       8.168   8.520   1.247  0.00  0.00    +0.041 C 
ATOM     19  C   UNL     1       9.620   8.952   1.486  0.00  0.00    +0.008 C 
ATOM     20  C   UNL     1       9.611  10.354   2.092  0.00  0.00    +0.035 C 
ATOM     21  C   UNL     1       8.759  11.283   1.267  0.00  0.00    -0.041 A 
ATOM     22  C   UNL     1       7.831  10.825   0.357  0.00  0.00    -0.011 A 
ATOM     23  C   UNL     1       7.072  11.735  -0.367  0.00  0.00    +0.007 A 
ATOM     24  C   UNL     1       7.243  13.092  -0.186  0.00  0.00    +0.000 A 
ATOM     25  C   UNL     1       8.177  13.551   0.724  0.00  0.00    +0.000 A 
ATOM     26  C   UNL     1       8.930  12.649   1.446  0.00  0.00    +0.004 A 
BRANCH  17  27
ATOM     27  O   UNL     1       8.232   8.983  -1.118  0.00  0.00    -0.382 OA
ATOM     28  H   UNL     1       7.915   9.469  -1.891  0.00  0.00    +0.211 HD
ENDBRANCH  17  27
ENDBRANCH  16  17
ENDBRANCH   4  16
TORSDOF 8
