REMARK  Name = ZINC49569324
REMARK  4 active torsions:
REMARK  status: ('A' for Active; 'I' for Inactive)
REMARK    1  A    between atoms: C_1  and  C_2
REMARK    2  A    between atoms: C_2  and  C_3
REMARK    3  A    between atoms: C_2  and  C_4
REMARK    4  A    between atoms: N_8  and  C_9
REMARK                            x       y       z     vdW  Elec       q    Type
REMARK                         _______ _______ _______ _____ _____    ______ ____
ROOT
ATOM      1  C   UNL     1      -1.595  -1.556   0.347  0.00  0.00    +0.137 A 
ATOM      2  N   UNL     1      -2.416  -0.913   1.130  0.00  0.00    -0.133 NA
ATOM      3  N   UNL     1      -3.299  -0.294   0.431  0.00  0.00    -0.122 NA
ATOM      4  C   UNL     1      -3.087  -0.510  -0.847  0.00  0.00    +0.203 A 
ATOM      5  N   UNL     1      -1.990  -1.318  -0.940  0.00  0.00    -0.304 N 
ATOM      6  S   UNL     1      -4.036   0.127  -2.188  0.00  0.00    -0.009 SA
ENDROOT
BRANCH   5   7
ATOM      7  C   UNL     1      -1.368  -1.827  -2.165  0.00  0.00    +0.076 C 
ATOM      8  C   UNL     1      -2.247  -1.505  -3.391  0.00  0.00    +0.005 C 
ATOM      9  C   UNL     1      -2.057  -2.709  -4.329  0.00  0.00    -0.076 C 
ATOM     10  N   UNL     1      -1.521  -3.819  -3.530  0.00  0.00    +0.383 N 
ATOM     11  C   UNL     1      -1.304  -3.365  -2.139  0.00  0.00    -0.045 C 
ATOM     12  C   UNL     1      -2.527  -3.892  -1.348  0.00  0.00    -0.015 C 
ATOM     13  C   UNL     1      -2.806  -5.247  -2.047  0.00  0.00    -0.020 C 
ATOM     14  C   UNL     1      -2.462  -4.950  -3.526  0.00  0.00    -0.078 C 
ATOM     15  H   UNL     1      -0.637  -4.116  -3.916  0.00  0.00    -0.081 HD
ENDBRANCH   5   7
BRANCH   1  17
ATOM     16  C   UNL     1       0.559  -1.537   1.576  0.00  0.00    +0.015 C 
ATOM     17  C   UNL     1      -0.424  -2.399   0.780  0.00  0.00    +0.051 C 
ATOM     18  C   UNL     1      -0.920  -3.549   1.659  0.00  0.00    +0.015 C 
ENDBRANCH   1  17
TORSDOF 2
