REMARK  Name = ZINC58953379
REMARK  9 active torsions:
REMARK  status: ('A' for Active; 'I' for Inactive)
REMARK    1  A    between atoms: C_1  and  C_2
REMARK    2  A    between atoms: C_2  and  C_3
REMARK    3  A    between atoms: C_3  and  C_4
REMARK    4  A    between atoms: C_3  and  C_6
REMARK    5  A    between atoms: C_4  and  C_5
REMARK    6  A    between atoms: C_6  and  C_8
REMARK    7  A    between atoms: C_6  and  N_25
REMARK    8  A    between atoms: C_8  and  N_9
REMARK    9  A    between atoms: C_10  and  C_12
REMARK                            x       y       z     vdW  Elec       q    Type
REMARK                         _______ _______ _______ _____ _____    ______ ____
ROOT
ATOM      1  N   UNL     1      -3.967  -0.121   3.221  0.00  0.00    -0.314 N 
ATOM      2  C   UNL     1      -5.094  -0.537   3.833  0.00  0.00    +0.216 C 
ATOM      3  O   UNL     1      -5.689  -1.507   3.413  0.00  0.00    -0.276 OA
ATOM      4  H   UNL     1      -3.491   0.654   3.556  0.00  0.00    +0.149 HD
ENDROOT
BRANCH   2   5
ATOM      5  C   UNL     1      -5.614   0.203   5.038  0.00  0.00    +0.078 C 
ATOM      6  C   UNL     1      -5.913   1.654   4.655  0.00  0.00    +0.032 C 
ATOM      7  C   UNL     1      -6.409   2.412   5.891  0.00  0.00    +0.110 C 
ATOM      8  N   UNL     1      -7.554   1.690   6.461  0.00  0.00    -0.285 N 
ATOM      9  C   UNL     1      -7.402   0.264   6.781  0.00  0.00    +0.110 C 
ATOM     10  C   UNL     1      -6.895  -0.470   5.536  0.00  0.00    +0.032 C 
ATOM     11  C   UNL     1      -8.722   2.323   6.686  0.00  0.00    +0.305 C 
ATOM     12  O   UNL     1      -9.699   1.690   7.037  0.00  0.00    -0.252 OA
ATOM     13  N   UNL     1      -8.807   3.658   6.522  0.00  0.00    -0.285 N 
ATOM     14  C   UNL     1      -7.761   4.520   5.952  0.00  0.00    +0.109 C 
ATOM     15  C   UNL     1      -8.292   5.969   5.988  0.00  0.00    +0.020 C 
ATOM     16  C   UNL     1      -9.378   5.914   7.095  0.00  0.00    +0.020 C 
ATOM     17  C   UNL     1      -9.967   4.495   6.879  0.00  0.00    +0.109 C 
ENDBRANCH   2   5
BRANCH   1  18
ATOM     18  C   UNL     1      -3.462  -0.841   2.049  0.00  0.00    +0.123 C 
BRANCH  18  19
ATOM     19  C   UNL     1      -2.178  -0.171   1.554  0.00  0.00    +0.077 C 
BRANCH  19  20
ATOM     20  N   UNL     1      -2.493   1.164   1.029  0.00  0.00    -0.293 NA
ATOM     21  C   UNL     1      -1.274   1.972   0.877  0.00  0.00    +0.113 C 
ATOM     22  C   UNL     1      -1.641   3.330   0.273  0.00  0.00    +0.175 C 
ATOM     23  O   UNL     1      -2.614   3.969   1.103  0.00  0.00    -0.377 OA
ATOM     24  C   UNL     1      -3.814   3.210   1.272  0.00  0.00    +0.175 C 
ATOM     25  C   UNL     1      -3.470   1.851   1.887  0.00  0.00    +0.113 C 
ENDBRANCH  19  20
BRANCH  19  26
ATOM     26  C   UNL     1      -1.554  -1.021   0.445  0.00  0.00    +0.007 C 
BRANCH  26  28
ATOM     27  C   UNL     1       0.144  -2.023   1.980  0.00  0.00    +0.004 C 
ATOM     28  C   UNL     1      -1.025  -2.328   1.041  0.00  0.00    +0.002 C 
ENDBRANCH  26  28
BRANCH  26  29
ATOM     29  C   UNL     1      -2.613  -1.335  -0.614  0.00  0.00    +0.002 C 
ATOM     30  C   UNL     1      -3.057  -0.037  -1.291  0.00  0.00    +0.004 C 
ENDBRANCH  26  29
ENDBRANCH  19  26
ENDBRANCH  18  19
ENDBRANCH   1  18
TORSDOF 7
