REMARK  Name = ZINC25767921
REMARK  2 active torsions:
REMARK  status: ('A' for Active; 'I' for Inactive)
REMARK    1  A    between atoms: C_10  and  N_11
REMARK    2  A    between atoms: C_13  and  C_18
REMARK                            x       y       z     vdW  Elec       q    Type
REMARK                         _______ _______ _______ _____ _____    ______ ____
ROOT
ATOM      1  N   UNL     1       2.414   3.848  -0.001  0.00  0.00    -0.270 N 
ATOM      2  C   UNL     1       3.141   4.258   1.206  0.00  0.00    +0.127 C 
ATOM      3  C   UNL     1       4.578   4.577   0.731  0.00  0.00    +0.102 C 
ATOM      4  C   UNL     1       4.343   4.949  -0.751  0.00  0.00    +0.110 C 
ATOM      5  C   UNL     1       3.061   4.231  -1.115  0.00  0.00    +0.221 C 
ATOM      6  O   UNL     1       2.675   4.030  -2.247  0.00  0.00    -0.275 OA
ENDROOT
BRANCH   3   7
ATOM      7  C   UNL     1       5.149   5.743   1.496  0.00  0.00    +0.224 C 
ATOM      8  O   UNL     1       4.534   6.217   2.428  0.00  0.00    -0.275 OA
ATOM      9  N   UNL     1       6.343   6.260   1.144  0.00  0.00    -0.264 N 
ATOM     10  C   UNL     1       6.870   7.336   1.849  0.00  0.00    +0.165 A 
ATOM     11  N   UNL     1       8.003   7.971   1.662  0.00  0.00    -0.229 NA
ATOM     12  C   UNL     1       8.383   9.002   2.430  0.00  0.00    +0.054 A 
ATOM     13  C   UNL     1       7.522   9.354   3.414  0.00  0.00    +0.014 A 
ATOM     14  S   UNL     1       6.194   8.192   3.201  0.00  0.00    -0.057 S 
ATOM     15  C   UNL     1       8.024  10.515   4.218  0.00  0.00    +0.045 C 
ATOM     16  C   UNL     1       9.137  11.140   3.348  0.00  0.00    +0.011 C 
ATOM     17  C   UNL     1       9.592   9.934   2.502  0.00  0.00    +0.056 C 
ATOM     18  H   UNL     1       6.901   5.830   0.299  0.00  0.00    +0.157 HD
ENDBRANCH   3   7
BRANCH   1  28
ATOM     19  C   UNL     1      -2.450   5.196   0.052  0.00  0.00    +0.001 A 
ATOM     20  C   UNL     1      -1.252   5.908   0.044  0.00  0.00    +0.001 A 
ATOM     21  C   UNL     1      -0.054   5.262   0.029  0.00  0.00    +0.010 A 
ATOM     22  C   UNL     1      -0.021   3.859   0.022  0.00  0.00    +0.004 A 
ATOM     23  C   UNL     1      -1.238   3.134   0.031  0.00  0.00    -0.016 A 
ATOM     24  C   UNL     1      -2.456   3.835   0.046  0.00  0.00    +0.008 A 
ATOM     25  C   UNL     1      -1.207   1.729   0.017  0.00  0.00    +0.008 A 
ATOM     26  C   UNL     1      -0.013   1.076   0.008  0.00  0.00    +0.002 A 
ATOM     27  C   UNL     1       1.190   1.777   0.000  0.00  0.00    +0.024 A 
ATOM     28  C   UNL     1       1.202   3.155   0.007  0.00  0.00    +0.044 A 
ENDBRANCH   1  28
TORSDOF 2
