REMARK  Name = ZINC15085169
REMARK  5 active torsions:
REMARK  status: ('A' for Active; 'I' for Inactive)
REMARK    1  A    between atoms: C_1  and  C_2
REMARK    2  A    between atoms: C_11  and  C_17
REMARK    3  A    between atoms: C_20  and  O_25
REMARK    4  A    between atoms: C_21  and  O_23
REMARK    5  A    between atoms: O_23  and  C_24
REMARK                            x       y       z     vdW  Elec       q    Type
REMARK                         _______ _______ _______ _____ _____    ______ ____
ROOT
ATOM      1  C   UNL     1      -0.956   9.624   0.734  0.00  0.00    +0.008 C 
ATOM      2  C   UNL     1      -0.579   8.178   0.403  0.00  0.00    -0.009 C 
ATOM      3  C   UNL     1       0.332   7.621   1.500  0.00  0.00    +0.008 C 
ATOM      4  C   UNL     1       0.917   6.277   1.063  0.00  0.00    +0.036 C 
ATOM      5  C   UNL     1      -0.226   5.358   0.636  0.00  0.00    -0.032 A 
ATOM      6  C   UNL     1      -1.442   5.879   0.323  0.00  0.00    -0.005 A 
ATOM      7  S   UNL     1      -2.420   4.460  -0.099  0.00  0.00    -0.078 S 
ATOM      8  C   UNL     1      -1.169   3.236   0.160  0.00  0.00    +0.076 A 
ATOM      9  C   UNL     1      -0.078   3.966   0.551  0.00  0.00    -0.008 A 
ATOM     10  C   UNL     1       1.217   3.224   0.866  0.00  0.00    +0.060 C 
ATOM     11  C   UNL     1       1.282   1.967   0.000  0.00  0.00    +0.109 C 
ATOM     12  C   UNL     1      -0.014   1.209   0.009  0.00  0.00    +0.218 C 
ATOM     13  O   UNL     1       0.002  -0.004   0.002  0.00  0.00    -0.275 OA
ATOM     14  N   UNL     1      -1.203   1.861   0.018  0.00  0.00    -0.280 N 
ATOM     15  C   UNL     1      -1.849   7.317   0.333  0.00  0.00    +0.046 C 
ATOM     16  H   UNL     1      -2.042   1.383  -0.068  0.00  0.00    +0.155 HD
ENDROOT
BRANCH  10  17
ATOM     17  C   UNL     1       1.237   2.837   2.322  0.00  0.00    -0.036 A 
ATOM     18  C   UNL     1       0.239   2.027   2.834  0.00  0.00    +0.008 A 
ATOM     19  C   UNL     1       0.253   1.669   4.170  0.00  0.00    +0.049 A 
ATOM     20  C   UNL     1       1.268   2.121   4.998  0.00  0.00    +0.158 A 
ATOM     21  C   UNL     1       2.272   2.935   4.482  0.00  0.00    +0.162 A 
ATOM     22  C   UNL     1       2.255   3.287   3.142  0.00  0.00    +0.053 A 
BRANCH  21  23
ATOM     23  O   UNL     1       3.270   3.381   5.291  0.00  0.00    -0.491 OA
ATOM     24  C   UNL     1       4.267   4.213   4.693  0.00  0.00    +0.277 C 
ENDBRANCH  21  23
BRANCH  20  25
ATOM     25  O   UNL     1       1.283   1.770   6.311  0.00  0.00    -0.503 OA
ATOM     26  H   UNL     1       1.767   0.952   6.494  0.00  0.00    +0.292 HD
ENDBRANCH  20  25
ENDBRANCH  10  17
TORSDOF 3
