REMARK  Name = ZINC40450952
REMARK  8 active torsions:
REMARK  status: ('A' for Active; 'I' for Inactive)
REMARK    1  A    between atoms: C_5  and  S_8
REMARK    2  A    between atoms: S_8  and  C_11
REMARK    3  A    between atoms: C_11  and  C_12
REMARK    4  A    between atoms: C_12  and  C_13
REMARK    5  A    between atoms: N_15  and  C_16
REMARK    6  A    between atoms: C_16  and  C_17
REMARK    7  A    between atoms: C_17  and  N_18
REMARK    8  A    between atoms: C_28  and  C_30
REMARK                            x       y       z     vdW  Elec       q    Type
REMARK                         _______ _______ _______ _____ _____    ______ ____
ROOT
ATOM      1  S   UNL     1       1.005  -2.418  -0.096  0.00  0.00    -0.002 S 
ATOM      2  O   UNL     1       0.187  -2.863  -1.170  0.00  0.00    -0.169 OA
ATOM      3  O   UNL     1       2.402  -2.674  -0.096  0.00  0.00    -0.169 OA
ENDROOT
BRANCH   1   8
ATOM      4  C   UNL     1      -0.484   1.312  -0.179  0.00  0.00    +0.022 A 
ATOM      5  C   UNL     1       0.655   2.094  -0.174  0.00  0.00    -0.023 A 
ATOM      6  C   UNL     1       1.910   1.508  -0.146  0.00  0.00    +0.041 A 
ATOM      7  C   UNL     1       2.008   0.115  -0.122  0.00  0.00    +0.051 A 
ATOM      8  C   UNL     1       0.869  -0.662  -0.126  0.00  0.00    +0.104 A 
ATOM      9  C   UNL     1      -0.380  -0.067  -0.155  0.00  0.00    +0.043 A 
ATOM     10 BR   UNL     1      -1.940  -1.136  -0.162  0.00  0.00    -0.048 Br
ATOM     11  N   UNL     1       2.927   2.468  -0.145  0.00  0.00    -0.271 N 
ATOM     12  C   UNL     1       2.348   3.813  -0.175  0.00  0.00    +0.118 C 
ATOM     13  C   UNL     1       0.826   3.597  -0.195  0.00  0.00    +0.056 C 
ATOM     14  C   UNL     1       4.247   2.195  -0.120  0.00  0.00    +0.223 C 
ATOM     15  O   UNL     1       4.628   1.044  -0.096  0.00  0.00    -0.275 OA
BRANCH  14  16
ATOM     16  C   UNL     1       5.249   3.321  -0.122  0.00  0.00    +0.076 C 
ATOM     17  C   UNL     1       6.108   3.499  -1.376  0.00  0.00    +0.013 C 
ATOM     18  C   UNL     1       6.732   2.946  -0.093  0.00  0.00    +0.013 C 
ENDBRANCH  14  16
ENDBRANCH   1   8
BRANCH   1  19
ATOM     19  C   UNL     1       0.278  -2.915   1.490  0.00  0.00    +0.181 C 
BRANCH  19  20
ATOM     20  C   UNL     1       0.342  -4.438   1.626  0.00  0.00    +0.119 C 
BRANCH  20  21
ATOM     21  C   UNL     1      -0.261  -4.850   2.944  0.00  0.00    +0.215 C 
ATOM     22  O   UNL     1      -0.700  -4.009   3.700  0.00  0.00    -0.276 OA
ATOM     23  N   UNL     1      -0.314  -6.154   3.282  0.00  0.00    -0.317 N 
ATOM     24  H   UNL     1       0.036  -6.826   2.677  0.00  0.00    +0.149 HD
BRANCH  23  25
ATOM     25  C   UNL     1      -0.901  -6.555   4.563  0.00  0.00    +0.085 C 
BRANCH  25  26
ATOM     26  C   UNL     1      -0.837  -8.077   4.699  0.00  0.00    -0.060 C 
BRANCH  26  27
ATOM     27  N   UNL     1      -1.306  -8.470   6.034  0.00  0.00    +0.381 N 
ATOM     28  C   UNL     1      -1.015  -9.903   6.236  0.00  0.00    -0.079 C 
ATOM     29  C   UNL     1      -0.918 -10.162   7.719  0.00  0.00    -0.019 C 
ATOM     30  C   UNL     1      -2.251 -10.680   8.289  0.00  0.00    -0.002 C 
ATOM     31  C   UNL     1      -3.459  -9.937   7.684  0.00  0.00    -0.002 C 
ATOM     32  C   UNL     1      -3.215  -8.455   7.551  0.00  0.00    -0.019 C 
ATOM     33  C   UNL     1      -2.663  -8.161   6.141  0.00  0.00    -0.079 C 
ATOM     34  H   UNL     1      -0.798  -7.938   6.725  0.00  0.00    -0.082 HD
ENDBRANCH  26  27
ENDBRANCH  25  26
ENDBRANCH  23  25
ENDBRANCH  20  21
ENDBRANCH  19  20
ENDBRANCH   1  19
TORSDOF 8
