REMARK  Name = ZINC31785342
REMARK  6 active torsions:
REMARK  status: ('A' for Active; 'I' for Inactive)
REMARK    1  A    between atoms: C_1  and  N_2
REMARK    2  A    between atoms: C_3  and  C_13
REMARK    3  A    between atoms: C_13  and  S_14
REMARK    4  A    between atoms: S_14  and  C_15
REMARK    5  A    between atoms: C_23  and  N_25
REMARK    6  A    between atoms: N_25  and  C_26
REMARK                            x       y       z     vdW  Elec       q    Type
REMARK                         _______ _______ _______ _____ _____    ______ ____
ROOT
ATOM      1  C   UNL     1      -1.074  -2.047   0.000  0.00  0.00    +0.191 A 
ATOM      2  N   UNL     1      -1.127  -0.728   0.009  0.00  0.00    -0.222 NA
ATOM      3  C   UNL     1       0.002  -0.004   0.002  0.00  0.00    +0.077 A 
ATOM      4  C   UNL     1      -0.017   1.397   0.010  0.00  0.00    +0.028 A 
ATOM      5  C   UNL     1       1.159   2.087   0.002  0.00  0.00    +0.002 A 
ATOM      6  C   UNL     1       2.381   1.420  -0.013  0.00  0.00    +0.001 A 
ATOM      7  C   UNL     1       2.435   0.057  -0.021  0.00  0.00    +0.013 A 
ATOM      8  C   UNL     1       1.246  -0.680  -0.013  0.00  0.00    +0.040 A 
ATOM      9  C   UNL     1       1.241  -2.098  -0.021  0.00  0.00    +0.131 A 
ATOM     10  N   UNL     1       0.073  -2.722  -0.014  0.00  0.00    -0.206 NA
ENDROOT
BRANCH   9  11
ATOM     11  N   UNL     1       2.422  -2.808  -0.037  0.00  0.00    -0.326 N 
ATOM     12  H   UNL     1       3.385  -2.276  -0.043  0.00  0.00    +0.148 HD
BRANCH  11  13
ATOM     13  C   UNL     1       2.395  -4.273  -0.045  0.00  0.00    +0.072 C 
ATOM     14  C   UNL     1       3.372  -5.003   0.880  0.00  0.00    +0.024 C 
ATOM     15  C   UNL     1       3.607  -4.999  -0.633  0.00  0.00    +0.024 C 
ENDBRANCH  11  13
ENDBRANCH   9  11
BRANCH   1  16
ATOM     16  S   UNL     1      -2.586  -2.953   0.009  0.00  0.00    -0.078 S 
BRANCH  16  17
ATOM     17  C   UNL     1      -3.771  -1.585   0.028  0.00  0.00    +0.151 C 
BRANCH  17  20
ATOM     18  C   UNL     1      -5.942   0.182   0.070  0.00  0.00    +0.153 C 
ATOM     19  N   UNL     1      -6.210  -1.258   0.059  0.00  0.00    -0.299 N 
ATOM     20  C   UNL     1      -5.174  -2.136   0.038  0.00  0.00    +0.123 A 
ATOM     21  N   UNL     1      -5.329  -3.425   0.032  0.00  0.00    -0.233 NA
ATOM     22  C   UNL     1      -6.561  -3.992   0.041  0.00  0.00    +0.078 A 
ATOM     23  C   UNL     1      -6.729  -5.379   0.035  0.00  0.00    +0.028 A 
ATOM     24  C   UNL     1      -7.998  -5.912   0.045  0.00  0.00    +0.002 A 
ATOM     25  C   UNL     1      -9.116  -5.088   0.061  0.00  0.00    +0.001 A 
ATOM     26  C   UNL     1      -8.976  -3.717   0.067  0.00  0.00    +0.015 A 
ATOM     27  C   UNL     1      -7.700  -3.157   0.057  0.00  0.00    +0.065 A 
ATOM     28  C   UNL     1      -7.489  -1.702   0.063  0.00  0.00    +0.262 A 
ATOM     29  O   UNL     1      -8.428  -0.927   0.077  0.00  0.00    -0.267 OA
ENDBRANCH  17  20
ENDBRANCH  16  17
ENDBRANCH   1  16
TORSDOF 5
