REMARK  Name = ZINC40172488
REMARK  14 active torsions:
REMARK  status: ('A' for Active; 'I' for Inactive)
REMARK    1  A    between atoms: C_1  and  C_2
REMARK    2  A    between atoms: C_2  and  C_3
REMARK    3  A    between atoms: C_3  and  C_5
REMARK    4  A    between atoms: C_3  and  N_22
REMARK    5  A    between atoms: N_7  and  C_8
REMARK    6  A    between atoms: C_9  and  C_19
REMARK    7  A    between atoms: C_10  and  C_14
REMARK    8  A    between atoms: C_11  and  C_13
REMARK    9  A    between atoms: C_14  and  O_16
REMARK   10  A    between atoms: O_16  and  C_17
REMARK   11  A    between atoms: C_17  and  C_18
REMARK   12  A    between atoms: C_26  and  S_27
REMARK   13  A    between atoms: S_27  and  C_28
REMARK   14  A    between atoms: C_28  and  C_29
REMARK                            x       y       z     vdW  Elec       q    Type
REMARK                         _______ _______ _______ _____ _____    ______ ____
ROOT
ATOM      1  C   UNL     1      -1.414  -2.036   0.129  0.00  0.00    +0.242 C 
ATOM      2  O   UNL     1      -1.912  -2.718  -0.742  0.00  0.00    -0.273 OA
ATOM      3  N   UNL     1      -0.842  -2.622   1.199  0.00  0.00    -0.254 N 
ATOM      4  H   UNL     1      -0.444  -2.077   1.895  0.00  0.00    +0.158 HD
ENDROOT
BRANCH   3   5
ATOM      5  C   UNL     1      -0.824  -4.000   1.305  0.00  0.00    +0.206 A 
ATOM      6  C   UNL     1      -0.278  -4.724   2.349  0.00  0.00    +0.111 A 
ATOM      7  C   UNL     1      -0.508  -6.145   2.000  0.00  0.00    +0.114 A 
ATOM      8  C   UNL     1      -1.157  -6.129   0.805  0.00  0.00    +0.119 A 
ATOM      9  O   UNL     1      -1.338  -4.861   0.417  0.00  0.00    -0.445 OA
ATOM     10  C   UNL     1      -1.606  -7.348   0.041  0.00  0.00    +0.087 C 
BRANCH   6  11
ATOM     11  C   UNL     1       0.387  -4.197   3.545  0.00  0.00    +0.247 C 
ATOM     12  O   UNL     1      -0.263  -3.952   4.544  0.00  0.00    -0.270 OA
ATOM     13  N   UNL     1       1.718  -3.985   3.537  0.00  0.00    -0.325 N 
ATOM     14  H   UNL     1       2.236  -4.180   2.740  0.00  0.00    +0.145 HD
ATOM     15  H   UNL     1       2.158  -3.636   4.328  0.00  0.00    +0.145 HD
ENDBRANCH   6  11
BRANCH   7  16
ATOM     16  C   UNL     1      -0.116  -7.327   2.783  0.00  0.00    +0.343 C 
ATOM     17  O   UNL     1      -0.878  -7.789   3.609  0.00  0.00    -0.245 OA
BRANCH  16  18
ATOM     18  O   UNL     1       1.089  -7.897   2.584  0.00  0.00    -0.461 OA
BRANCH  18  19
ATOM     19  C   UNL     1       1.404  -9.042   3.379  0.00  0.00    +0.229 C 
ATOM     20  C   UNL     1       2.801  -9.547   3.015  0.00  0.00    +0.048 C 
ENDBRANCH  18  19
ENDBRANCH  16  18
ENDBRANCH   7  16
ENDBRANCH   3   5
BRANCH   1  21
ATOM     21  C   UNL     1      -1.433  -0.534   0.013  0.00  0.00    +0.178 C 
BRANCH  21  22
ATOM     22  N   UNL     1      -2.105  -0.148  -1.230  0.00  0.00    -0.279 N 
ATOM     23  C   UNL     1      -1.721  -0.499  -2.493  0.00  0.00    +0.216 A 
ATOM     24  N   UNL     1      -2.568   0.034  -3.338  0.00  0.00    -0.113 NA
ATOM     25  N   UNL     1      -3.524   0.746  -2.602  0.00  0.00    -0.121 NA
ATOM     26  C   UNL     1      -3.231   0.621  -1.330  0.00  0.00    +0.194 A 
ATOM     27  N   UNL     1      -0.623  -1.284  -2.824  0.00  0.00    -0.328 N 
ATOM     28  H   UNL     1      -0.050  -1.635  -2.125  0.00  0.00    +0.145 HD
ATOM     29  H   UNL     1      -0.429  -1.480  -3.754  0.00  0.00    +0.145 HD
BRANCH  26  30
ATOM     30  S   UNL     1      -4.128   1.323   0.014  0.00  0.00    -0.086 S 
BRANCH  30  31
ATOM     31  C   UNL     1      -5.492   2.212  -0.786  0.00  0.00    +0.074 C 
ATOM     32  C   UNL     1      -6.362   2.878   0.281  0.00  0.00    +0.016 C 
ENDBRANCH  30  31
ENDBRANCH  26  30
ENDBRANCH  21  22
BRANCH  21  34
ATOM     33  C   UNL     1      -0.019   1.526   0.010  0.00  0.00    +0.006 C 
ATOM     34  C   UNL     1       0.002  -0.004   0.002  0.00  0.00    +0.031 C 
ENDBRANCH  21  34
ENDBRANCH   1  21
TORSDOF 10
