REMARK  Name = ZINC39666798
REMARK  9 active torsions:
REMARK  status: ('A' for Active; 'I' for Inactive)
REMARK    1  A    between atoms: C_1  and  C_2
REMARK    2  A    between atoms: C_2  and  C_3
REMARK    3  A    between atoms: C_3  and  C_4
REMARK    4  A    between atoms: C_3  and  C_6
REMARK    5  A    between atoms: C_4  and  C_5
REMARK    6  A    between atoms: C_6  and  N_7
REMARK    7  A    between atoms: C_8  and  C_10
REMARK    8  A    between atoms: C_21  and  C_23
REMARK    9  A    between atoms: C_27  and  C_30
REMARK                            x       y       z     vdW  Elec       q    Type
REMARK                         _______ _______ _______ _____ _____    ______ ____
ROOT
ATOM      1  C   UNL     1      -2.873  -4.404  -1.146  0.00  0.00    +0.100 C 
ATOM      2  C   UNL     1      -3.632  -3.944  -2.411  0.00  0.00    +0.121 C 
ATOM      3  N   UNL     1      -3.453  -5.051  -3.379  0.00  0.00    -0.296 N 
ATOM      4  C   UNL     1      -3.567  -6.280  -2.558  0.00  0.00    +0.115 C 
ATOM      5  C   UNL     1      -2.835  -5.938  -1.244  0.00  0.00    -0.004 C 
ATOM      6  C   UNL     1      -1.391  -6.428  -1.303  0.00  0.00    -0.010 C 
ATOM      7  C   UNL     1      -1.378  -7.959  -1.343  0.00  0.00    -0.082 C 
ATOM      8  N   UNL     1      -2.047  -8.487  -0.148  0.00  0.00    +0.379 N 
ATOM      9  C   UNL     1      -3.460  -8.087  -0.147  0.00  0.00    -0.082 C 
ATOM     10  C   UNL     1      -3.561  -6.562  -0.057  0.00  0.00    -0.010 C 
ATOM     11  C   UNL     1      -3.236  -4.962  -4.706  0.00  0.00    +0.251 C 
ATOM     12  O   UNL     1      -3.109  -5.972  -5.371  0.00  0.00    -0.270 OA
ATOM     13  H   UNL     1      -1.984  -9.494  -0.146  0.00  0.00    -0.086 HD
ATOM     14  H   UNL     1      -1.596  -8.123   0.677  0.00  0.00    -0.086 HD
ENDROOT
BRANCH  11  15
ATOM     15  C   UNL     1      -3.153  -3.637  -5.353  0.00  0.00    +0.091 A 
ATOM     16  C   UNL     1      -1.920  -2.989  -5.469  0.00  0.00    +0.056 A 
ATOM     17  C   UNL     1      -1.850  -1.751  -6.075  0.00  0.00    +0.021 A 
ATOM     18  C   UNL     1      -2.996  -1.150  -6.567  0.00  0.00    +0.007 A 
ATOM     19  C   UNL     1      -4.220  -1.784  -6.456  0.00  0.00    -0.014 A 
ATOM     20  C   UNL     1      -4.306  -3.027  -5.857  0.00  0.00    +0.140 A 
ATOM     21  F   UNL     1      -5.502  -3.648  -5.753  0.00  0.00    -0.204 F 
ATOM     22  C   UNL     1      -5.461  -1.121  -6.994  0.00  0.00    +0.047 C 
ATOM     23 CL   UNL     1      -0.481  -3.738  -4.853  0.00  0.00    -0.083 Cl
ENDBRANCH  11  15
BRANCH   1  25
ATOM     24  N   UNL     1      -0.793  -3.740   0.017  0.00  0.00    -0.315 N 
ATOM     25  C   UNL     1      -1.474  -3.843  -1.141  0.00  0.00    +0.218 C 
ATOM     26  O   UNL     1      -0.961  -3.485  -2.180  0.00  0.00    -0.275 OA
ATOM     27  H   UNL     1      -1.204  -4.027   0.848  0.00  0.00    +0.149 HD
BRANCH  24  28
ATOM     28  C   UNL     1       0.567  -3.195   0.022  0.00  0.00    +0.107 C 
BRANCH  28  29
ATOM     29  C   UNL     1       1.108  -3.188   1.453  0.00  0.00    +0.006 C 
BRANCH  29  31
ATOM     30  C   UNL     1       1.647  -4.617   3.430  0.00  0.00    +0.004 C 
ATOM     31  C   UNL     1       1.247  -4.627   1.953  0.00  0.00    +0.002 C 
ENDBRANCH  29  31
BRANCH  29  32
ATOM     32  C   UNL     1       2.478  -2.506   1.476  0.00  0.00    +0.002 C 
ATOM     33  C   UNL     1       2.318  -1.029   1.108  0.00  0.00    +0.004 C 
ENDBRANCH  29  32
ENDBRANCH  28  29
ENDBRANCH  24  28
ENDBRANCH   1  25
TORSDOF 6
