REMARK  Name = ZINC67363651
REMARK  14 active torsions:
REMARK  status: ('A' for Active; 'I' for Inactive)
REMARK    1  A    between atoms: C_1  and  C_2
REMARK    2  A    between atoms: C_2  and  C_3
REMARK    3  A    between atoms: C_2  and  C_4
REMARK    4  A    between atoms: C_4  and  C_5
REMARK    5  A    between atoms: C_5  and  C_7
REMARK    6  A    between atoms: C_5  and  N_21
REMARK    7  A    between atoms: C_13  and  C_16
REMARK    8  A    between atoms: C_16  and  N_17
REMARK    9  A    between atoms: C_18  and  C_20
REMARK   10  A    between atoms: C_22  and  O_24
REMARK   11  A    between atoms: O_24  and  C_25
REMARK   12  A    between atoms: C_25  and  C_26
REMARK   13  A    between atoms: C_25  and  C_27
REMARK   14  A    between atoms: C_25  and  C_28
REMARK                            x       y       z     vdW  Elec       q    Type
REMARK                         _______ _______ _______ _____ _____    ______ ____
ROOT
ATOM      1  C   UNL     1      -0.071  -0.190   2.415  0.00  0.00    +0.162 C 
ENDROOT
BRANCH   1   2
ATOM      2  C   UNL     1       0.588  -0.556   3.719  0.00  0.00    +0.236 C 
ATOM      3  O   UNL     1       0.943   0.315   4.485  0.00  0.00    -0.274 OA
ATOM      4  N   UNL     1       0.784  -1.852   4.035  0.00  0.00    -0.300 N 
ATOM      5  C   UNL     1       0.460  -2.914   3.073  0.00  0.00    +0.108 C 
ATOM      6  C   UNL     1       1.693  -3.804   2.888  0.00  0.00    +0.019 C 
ATOM      7  C   UNL     1       2.158  -4.314   4.254  0.00  0.00    +0.008 C 
ATOM      8  C   UNL     1       2.548  -3.127   5.138  0.00  0.00    +0.024 C 
ATOM      9  C   UNL     1       1.331  -2.228   5.346  0.00  0.00    +0.112 C 
BRANCH   8  10
ATOM     10  C   UNL     1       3.045  -3.639   6.491  0.00  0.00    +0.109 C 
BRANCH  10  11
ATOM     11  N   UNL     1       4.281  -4.402   6.301  0.00  0.00    -0.315 N 
ATOM     12  C   UNL     1       4.903  -4.952   7.362  0.00  0.00    +0.210 C 
ATOM     13  O   UNL     1       4.440  -4.816   8.474  0.00  0.00    -0.276 OA
ATOM     14  C   UNL     1       6.175  -5.737   7.166  0.00  0.00    +0.109 C 
ATOM     15  H   UNL     1       4.651  -4.511   5.411  0.00  0.00    +0.149 HD
ENDBRANCH  10  11
ENDBRANCH   8  10
ENDBRANCH   1   2
BRANCH   1  16
ATOM     16  N   UNL     1      -0.421   1.233   2.426  0.00  0.00    -0.270 N 
ATOM     17  C   UNL     1      -1.480   1.673   1.720  0.00  0.00    +0.401 C 
ATOM     18  O   UNL     1      -2.200   0.879   1.146  0.00  0.00    -0.226 OA
ATOM     19  H   UNL     1       0.111   1.858   2.943  0.00  0.00    +0.153 HD
BRANCH  17  20
ATOM     20  O   UNL     1      -1.742   2.991   1.648  0.00  0.00    -0.445 OA
BRANCH  20  21
ATOM     21  C   UNL     1      -2.881   3.386   0.881  0.00  0.00    +0.107 C 
ATOM     22  C   UNL     1      -4.140   2.749   1.473  0.00  0.00    +0.055 C 
ATOM     23  C   UNL     1      -3.016   4.910   0.916  0.00  0.00    +0.055 C 
ATOM     24  C   UNL     1      -2.707   2.923  -0.566  0.00  0.00    +0.055 C 
ENDBRANCH  20  21
ENDBRANCH  17  20
ENDBRANCH   1  16
BRANCH   1  25
ATOM     25  C   UNL     1       0.893  -0.469   1.260  0.00  0.00    +0.035 C 
BRANCH  25  27
ATOM     26  C   UNL     1       3.045  -0.225   2.505  0.00  0.00    +0.007 C 
ATOM     27  C   UNL     1       2.149   0.388   1.427  0.00  0.00    -0.015 C 
ATOM     28  C   UNL     1       2.910   0.440   0.100  0.00  0.00    +0.007 C 
ENDBRANCH  25  27
ENDBRANCH   1  25
TORSDOF 8
