REMARK  Name = ZINC36546427
REMARK  13 active torsions:
REMARK  status: ('A' for Active; 'I' for Inactive)
REMARK    1  A    between atoms: C_1  and  C_2
REMARK    2  A    between atoms: C_2  and  C_3
REMARK    3  A    between atoms: C_3  and  C_4
REMARK    4  A    between atoms: C_4  and  N_5
REMARK    5  A    between atoms: C_6  and  C_8
REMARK    6  A    between atoms: C_8  and  C_10
REMARK    7  A    between atoms: C_8  and  N_19
REMARK    8  A    between atoms: C_13  and  N_16
REMARK    9  A    between atoms: N_16  and  C_17
REMARK   10  A    between atoms: N_16  and  C_18
REMARK   11  A    between atoms: N_19  and  C_20
REMARK   12  A    between atoms: C_27  and  C_29
REMARK   13  A    between atoms: C_29  and  C_30
REMARK                            x       y       z     vdW  Elec       q    Type
REMARK                         _______ _______ _______ _____ _____    ______ ____
ROOT
ATOM      1  N   UNL     1      -4.172  -5.882  -0.173  0.00  0.00    -0.254 N 
ATOM      2  C   UNL     1      -3.218  -6.295  -1.030  0.00  0.00    +0.225 C 
ATOM      3  O   UNL     1      -2.655  -5.493  -1.745  0.00  0.00    -0.275 OA
ENDROOT
BRANCH   1   4
ATOM      4  C   UNL     1      -4.821  -6.808   0.652  0.00  0.00    +0.056 A 
ATOM      5  C   UNL     1      -6.006  -7.400   0.236  0.00  0.00    +0.025 A 
ATOM      6  C   UNL     1      -6.644  -8.313   1.052  0.00  0.00    +0.002 A 
ATOM      7  C   UNL     1      -6.104  -8.640   2.283  0.00  0.00    +0.002 A 
ATOM      8  C   UNL     1      -4.925  -8.052   2.701  0.00  0.00    +0.022 A 
ATOM      9  C   UNL     1      -4.278  -7.142   1.886  0.00  0.00    +0.062 A 
ATOM     10 CL   UNL     1      -2.792  -6.411   2.408  0.00  0.00    -0.082 Cl
ENDBRANCH   1   4
BRANCH   1  11
ATOM     11  C   UNL     1      -4.531  -4.463  -0.105  0.00  0.00    +0.197 C 
BRANCH  11  12
ATOM     12  C   UNL     1      -4.984  -3.994  -1.464  0.00  0.00    -0.018 A 
ATOM     13  C   UNL     1      -4.233  -3.064  -2.158  0.00  0.00    +0.008 A 
ATOM     14  C   UNL     1      -4.645  -2.631  -3.403  0.00  0.00    +0.023 A 
ATOM     15  C   UNL     1      -5.816  -3.132  -3.958  0.00  0.00    +0.029 A 
ATOM     16  C   UNL     1      -6.569  -4.067  -3.258  0.00  0.00    +0.023 A 
ATOM     17  C   UNL     1      -6.147  -4.499  -2.015  0.00  0.00    +0.008 A 
BRANCH  15  18
ATOM     18  N   UNL     1      -6.237  -2.697  -5.217  0.00  0.00    -0.336 N 
ATOM     19  C   UNL     1      -5.442  -1.711  -5.954  0.00  0.00    +0.129 C 
ATOM     20  C   UNL     1      -7.472  -3.227  -5.800  0.00  0.00    +0.129 C 
ENDBRANCH  15  18
ENDBRANCH  11  12
BRANCH  11  22
ATOM     21  N   UNL     1      -3.426  -2.324   0.461  0.00  0.00    -0.313 N 
ATOM     22  C   UNL     1      -3.331  -3.662   0.328  0.00  0.00    +0.238 C 
ATOM     23  O   UNL     1      -2.279  -4.221   0.558  0.00  0.00    -0.273 OA
ATOM     24  H   UNL     1      -4.267  -1.877   0.277  0.00  0.00    +0.149 HD
BRANCH  21  25
ATOM     25  C   UNL     1      -2.259  -1.545   0.882  0.00  0.00    +0.104 C 
BRANCH  25  26
ATOM     26  C   UNL     1      -2.634  -0.063   0.954  0.00  0.00    +0.018 C 
BRANCH  26  28
ATOM     27  C   UNL     1      -1.789   2.232   1.465  0.00  0.00    +0.004 C 
ATOM     28  C   UNL     1      -1.415   0.750   1.394  0.00  0.00    -0.002 C 
ENDBRANCH  26  28
ENDBRANCH  25  26
ENDBRANCH  21  25
ENDBRANCH  11  22
ENDBRANCH   1  11
BRANCH   2  29
ATOM     29  C   UNL     1      -2.849  -7.755  -1.100  0.00  0.00    +0.131 C 
BRANCH  29  30
ATOM     30  C   UNL     1      -1.764  -7.950  -2.128  0.00  0.00    -0.035 A 
ATOM     31  C   UNL     1      -2.100  -8.204  -3.445  0.00  0.00    +0.008 A 
ATOM     32  C   UNL     1      -1.109  -8.383  -4.392  0.00  0.00    +0.050 A 
ATOM     33  C   UNL     1       0.224  -8.310  -4.023  0.00  0.00    +0.166 A 
ATOM     34  C   UNL     1       0.562  -8.054  -2.696  0.00  0.00    +0.166 A 
ATOM     35  C   UNL     1      -0.436  -7.870  -1.754  0.00  0.00    +0.053 A 
ATOM     36  O   UNL     1       1.923  -8.031  -2.590  0.00  0.00    -0.453 OA
ATOM     37  C   UNL     1       2.413  -8.678  -3.779  0.00  0.00    +0.466 C 
ATOM     38  O   UNL     1       1.373  -8.446  -4.747  0.00  0.00    -0.453 OA
ENDBRANCH  29  30
ENDBRANCH   2  29
TORSDOF 10
