REMARK  Name = ZINC22325158
REMARK  8 active torsions:
REMARK  status: ('A' for Active; 'I' for Inactive)
REMARK    1  A    between atoms: C_1  and  C_2
REMARK    2  A    between atoms: C_5  and  C_33
REMARK    3  A    between atoms: N_8  and  C_10
REMARK    4  A    between atoms: C_10  and  C_11
REMARK    5  A    between atoms: N_16  and  C_17
REMARK    6  A    between atoms: C_17  and  C_19
REMARK    7  A    between atoms: C_23  and  N_25
REMARK    8  A    between atoms: C_26  and  C_28
REMARK                            x       y       z     vdW  Elec       q    Type
REMARK                         _______ _______ _______ _____ _____    ______ ____
ROOT
ATOM      1  C   UNL     1       1.487   0.312   3.257  0.00  0.00    +0.008 A 
ATOM      2  C   UNL     1       0.737  -0.396   4.109  0.00  0.00    +0.067 A 
ATOM      3  S   UNL     1       0.283   0.836   5.316  0.00  0.00    -0.061 S 
ATOM      4  C   UNL     1       1.080   2.155   4.644  0.00  0.00    +0.163 A 
ATOM      5  N   UNL     1       1.670   1.631   3.536  0.00  0.00    -0.341 N 
ATOM      6  N   UNL     1       1.127   3.409   5.092  0.00  0.00    -0.152 NA
ATOM      7  H   UNL     1       2.208   2.188   2.952  0.00  0.00    +0.167 HD
ENDROOT
BRANCH   6   8
ATOM      8  C   UNL     1       0.484   3.742   6.213  0.00  0.00    +0.269 C 
ATOM      9  O   UNL     1      -0.146   2.898   6.828  0.00  0.00    -0.268 OA
BRANCH   8  10
ATOM     10  C   UNL     1       0.536   5.136   6.712  0.00  0.00    +0.041 A 
ATOM     11  C   UNL     1       1.252   6.104   6.007  0.00  0.00    +0.013 A 
ATOM     12  C   UNL     1       1.300   7.403   6.473  0.00  0.00    +0.003 A 
ATOM     13  C   UNL     1       0.640   7.749   7.637  0.00  0.00    +0.023 A 
ATOM     14  C   UNL     1      -0.076   6.791   8.346  0.00  0.00    +0.034 A 
ATOM     15  C   UNL     1      -0.134   5.486   7.882  0.00  0.00    +0.036 A 
BRANCH  14  16
ATOM     16  N   UNL     1      -0.741   7.146   9.524  0.00  0.00    -0.281 N 
ATOM     17  C   UNL     1      -0.850   6.256  10.530  0.00  0.00    +0.255 C 
ATOM     18  O   UNL     1      -0.287   5.179  10.454  0.00  0.00    -0.269 OA
ATOM     19  H   UNL     1      -1.125   8.032   9.616  0.00  0.00    +0.155 HD
BRANCH  17  20
ATOM     20  C   UNL     1      -1.645   6.585  11.717  0.00  0.00    +0.074 A 
ATOM     21  C   UNL     1      -1.877   5.823  12.852  0.00  0.00    +0.021 A 
ATOM     22  C   UNL     1      -2.673   6.406  13.809  0.00  0.00    +0.008 A 
ATOM     23  C   UNL     1      -3.166   7.650  13.588  0.00  0.00    +0.046 A 
ATOM     24  S   UNL     1      -2.559   8.072  12.080  0.00  0.00    -0.092 S 
ENDBRANCH  17  20
ENDBRANCH  14  16
ENDBRANCH   8  10
ENDBRANCH   6   8
BRANCH   1  25
ATOM     25  C   UNL     1       2.108  -0.326   2.042  0.00  0.00    -0.024 C 
BRANCH  25  31
ATOM     26  C   UNL     1      -0.361   2.130  -0.341  0.00  0.00    +0.005 C 
ATOM     27  C   UNL     1      -0.529   0.614  -0.457  0.00  0.00    -0.031 C 
ATOM     28  C   UNL     1       0.170   0.118  -1.727  0.00  0.00    +0.003 C 
ATOM     29  C   UNL     1       1.671   0.399  -1.614  0.00  0.00    -0.031 C 
ATOM     30  C   UNL     1       2.217  -0.272  -0.352  0.00  0.00    -0.075 C 
ATOM     31  N   UNL     1       1.527   0.263   0.828  0.00  0.00    +0.384 N 
ATOM     32  C   UNL     1       0.097  -0.065   0.763  0.00  0.00    -0.075 C 
ATOM     33  C   UNL     1       2.389  -0.161  -2.843  0.00  0.00    +0.005 C 
ATOM     34  H   UNL     1       1.640   1.266   0.857  0.00  0.00    -0.081 HD
ENDBRANCH  25  31
ENDBRANCH   1  25
TORSDOF 6
