REMARK  Name = ZINC04657047
REMARK  8 active torsions:
REMARK  status: ('A' for Active; 'I' for Inactive)
REMARK    1  A    between atoms: C_1  and  C_2
REMARK    2  A    between atoms: C_2  and  C_3
REMARK    3  A    between atoms: C_2  and  C_4
REMARK    4  A    between atoms: C_4  and  C_5
REMARK    5  A    between atoms: N_7  and  C_8
REMARK    6  A    between atoms: C_8  and  N_10
REMARK    7  A    between atoms: N_10  and  C_11
REMARK    8  A    between atoms: C_12  and  C_20
REMARK                            x       y       z     vdW  Elec       q    Type
REMARK                         _______ _______ _______ _____ _____    ______ ____
ROOT
ATOM      1  C   UNL     1      -2.388   1.657   0.022  0.00  0.00    +0.084 A 
ATOM      2  C   UNL     1      -3.685   2.150   0.037  0.00  0.00    +0.068 A 
ATOM      3  C   UNL     1      -4.771   1.183   0.031  0.00  0.00    -0.023 A 
ATOM      4  C   UNL     1      -4.388  -0.112   0.023  0.00  0.00    -0.004 A 
ATOM      5  S   UNL     1      -2.618  -0.061   0.015  0.00  0.00    -0.077 S 
ATOM      6  C   UNL     1      -5.277  -1.317   0.021  0.00  0.00    +0.043 C 
ATOM      7  C   UNL     1      -6.695  -0.872   0.408  0.00  0.00    +0.005 C 
ATOM      8  C   UNL     1      -7.069   0.361  -0.421  0.00  0.00    +0.005 C 
ATOM      9  C   UNL     1      -6.246   1.565   0.038  0.00  0.00    +0.037 C 
ENDROOT
BRANCH   2  10
ATOM     10  C   UNL     1      -3.951   3.591   0.053  0.00  0.00    +0.244 C 
ATOM     11  O   UNL     1      -4.069   4.200  -0.994  0.00  0.00    -0.270 OA
ATOM     12  N   UNL     1      -4.064   4.242   1.228  0.00  0.00    -0.325 N 
ATOM     13  H   UNL     1      -3.969   3.757   2.062  0.00  0.00    +0.145 HD
ATOM     14  H   UNL     1      -4.239   5.196   1.239  0.00  0.00    +0.145 HD
ENDBRANCH   2  10
BRANCH   1  15
ATOM     15  N   UNL     1      -1.197   2.366   0.021  0.00  0.00    -0.291 N 
ATOM     16  H   UNL     1      -1.210   3.336   0.026  0.00  0.00    +0.154 HD
BRANCH  15  17
ATOM     17  C   UNL     1      -0.021   1.708   0.011  0.00  0.00    +0.141 C 
ATOM     18  S   UNL     1       0.002  -0.004   0.002  0.00  0.00    -0.018 S 
BRANCH  17  21
ATOM     19  C   UNL     1       2.313   1.740  -0.011  0.00  0.00    +0.219 C 
ATOM     20  O   UNL     1       2.329   0.527  -0.017  0.00  0.00    -0.275 OA
ATOM     21  N   UNL     1       1.137   2.397   0.004  0.00  0.00    -0.268 N 
ATOM     22  H   UNL     1       1.124   3.367   0.009  0.00  0.00    +0.156 HD
BRANCH  19  23
ATOM     23  C   UNL     1       3.608   2.511  -0.019  0.00  0.00    +0.099 C 
BRANCH  23  25
ATOM     24  C   UNL     1       6.094   2.312  -0.169  0.00  0.00    +0.008 C 
ATOM     25  C   UNL     1       4.784   1.532  -0.035  0.00  0.00    -0.008 C 
ATOM     26  C   UNL     1       4.799   0.731   1.268  0.00  0.00    +0.008 C 
ENDBRANCH  23  25
ENDBRANCH  19  23
ENDBRANCH  17  21
ENDBRANCH  15  17
ENDBRANCH   1  15
TORSDOF 6
