REMARK  Name = ZINC39674250
REMARK  11 active torsions:
REMARK  status: ('A' for Active; 'I' for Inactive)
REMARK    1  A    between atoms: C_1  and  C_2
REMARK    2  A    between atoms: C_4  and  C_9
REMARK    3  A    between atoms: C_5  and  C_8
REMARK    4  A    between atoms: C_9  and  C_11
REMARK    5  A    between atoms: C_9  and  N_12
REMARK    6  A    between atoms: C_13  and  C_15
REMARK    7  A    between atoms: C_26  and  C_28
REMARK    8  A    between atoms: C_31  and  O_36
REMARK    9  A    between atoms: C_33  and  O_34
REMARK   10  A    between atoms: O_34  and  C_35
REMARK   11  A    between atoms: O_36  and  C_37
REMARK                            x       y       z     vdW  Elec       q    Type
REMARK                         _______ _______ _______ _____ _____    ______ ____
ROOT
ATOM      1  C   UNL     1      -2.831  -1.856  -4.667  0.00  0.00    +0.100 C 
ATOM      2  C   UNL     1      -2.353  -0.492  -5.215  0.00  0.00    +0.121 C 
ATOM      3  N   UNL     1      -2.986  -0.383  -6.550  0.00  0.00    -0.296 N 
ATOM      4  C   UNL     1      -4.345  -0.944  -6.362  0.00  0.00    +0.115 C 
ATOM      5  C   UNL     1      -4.138  -2.148  -5.422  0.00  0.00    -0.004 C 
ATOM      6  C   UNL     1      -4.004  -3.434  -6.233  0.00  0.00    -0.010 C 
ATOM      7  C   UNL     1      -5.334  -3.733  -6.929  0.00  0.00    -0.082 C 
ATOM      8  N   UNL     1      -6.394  -3.875  -5.923  0.00  0.00    +0.379 N 
ATOM      9  C   UNL     1      -6.580  -2.605  -5.210  0.00  0.00    -0.082 C 
ATOM     10  C   UNL     1      -5.302  -2.257  -4.441  0.00  0.00    -0.010 C 
ATOM     11  C   UNL     1      -2.447   0.115  -7.681  0.00  0.00    +0.250 C 
ATOM     12  O   UNL     1      -3.127   0.219  -8.684  0.00  0.00    -0.270 OA
ATOM     13  H   UNL     1      -7.256  -4.132  -6.379  0.00  0.00    -0.086 HD
ATOM     14  H   UNL     1      -6.137  -4.594  -5.265  0.00  0.00    -0.086 HD
ENDROOT
BRANCH  11  15
ATOM     15  C   UNL     1      -1.034   0.532  -7.702  0.00  0.00    +0.079 A 
ATOM     16  C   UNL     1      -0.455   1.109  -6.567  0.00  0.00    +0.020 A 
ATOM     17  C   UNL     1       0.864   1.497  -6.591  0.00  0.00    +0.046 A 
ATOM     18  C   UNL     1       1.627   1.318  -7.742  0.00  0.00    +0.124 A 
ATOM     19  C   UNL     1       1.063   0.747  -8.873  0.00  0.00    +0.092 A 
ATOM     20  C   UNL     1      -0.263   0.347  -8.859  0.00  0.00    +0.136 A 
BRANCH  20  21
ATOM     21  O   UNL     1      -0.815  -0.216  -9.963  0.00  0.00    -0.494 OA
ATOM     22  C   UNL     1       0.032  -0.373 -11.104  0.00  0.00    +0.277 C 
ENDBRANCH  20  21
BRANCH  18  23
ATOM     23  O   UNL     1       2.928   1.704  -7.756  0.00  0.00    -0.495 OA
ATOM     24  C   UNL     1       3.446   2.285  -6.558  0.00  0.00    +0.277 C 
ENDBRANCH  18  23
ENDBRANCH  11  15
BRANCH   1  26
ATOM     25  N   UNL     1      -3.075  -2.880  -2.429  0.00  0.00    -0.309 N 
ATOM     26  C   UNL     1      -3.089  -1.765  -3.185  0.00  0.00    +0.219 C 
ATOM     27  O   UNL     1      -3.310  -0.688  -2.673  0.00  0.00    -0.275 OA
ATOM     28  H   UNL     1      -2.898  -3.742  -2.838  0.00  0.00    +0.149 HD
BRANCH  25  29
ATOM     29  C   UNL     1      -3.327  -2.792  -0.988  0.00  0.00    +0.100 C 
ATOM     30  C   UNL     1      -2.022  -2.459  -0.262  0.00  0.00    +0.033 C 
BRANCH  29  33
ATOM     31  C   UNL     1      -1.872  -5.570  -0.020  0.00  0.00    +0.039 C 
ATOM     32  C   UNL     1      -3.254  -5.492  -0.672  0.00  0.00    +0.154 C 
ATOM     33  C   UNL     1      -3.858  -4.111  -0.489  0.00  0.00    -0.001 C 
ATOM     34  C   UNL     1      -4.967  -4.336   0.217  0.00  0.00    +0.063 C 
ATOM     35  N   UNL     1      -5.109  -5.654   0.480  0.00  0.00    -0.159 NA
ATOM     36  N   UNL     1      -4.209  -6.370   0.024  0.00  0.00    -0.180 NA
ATOM     37  C   UNL     1      -5.931  -3.267   0.662  0.00  0.00    +0.067 C 
ENDBRANCH  29  33
ENDBRANCH  25  29
ENDBRANCH   1  26
TORSDOF 6
