REMARK  Name = ZINC16685545
REMARK  10 active torsions:
REMARK  status: ('A' for Active; 'I' for Inactive)
REMARK    1  A    between atoms: C_1  and  C_2
REMARK    2  A    between atoms: C_6  and  N_9
REMARK    3  A    between atoms: C_7  and  C_8
REMARK    4  A    between atoms: C_13  and  C_15
REMARK    5  A    between atoms: C_15  and  S_16
REMARK    6  A    between atoms: S_16  and  C_17
REMARK    7  A    between atoms: C_20  and  C_29
REMARK    8  A    between atoms: N_21  and  C_22
REMARK    9  A    between atoms: C_22  and  C_23
REMARK   10  A    between atoms: C_29  and  N_67
REMARK                            x       y       z     vdW  Elec       q    Type
REMARK                         _______ _______ _______ _____ _____    ______ ____
ROOT
ATOM      1  C   UNL     1       1.212   1.743   0.053  0.00  0.00    +0.192 A 
ATOM      2  N   UNL     1      -0.017   1.280   0.070  0.00  0.00    -0.123 NA
ATOM      3  N   UNL     1       0.001  -0.005   0.075  0.00  0.00    -0.135 NA
ATOM      4  C   UNL     1       1.230  -0.435   0.061  0.00  0.00    +0.118 A 
ATOM      5  N   UNL     1       2.046   0.662   0.046  0.00  0.00    -0.303 N 
ENDROOT
BRANCH   1   6
ATOM      6  S   UNL     1       1.694   3.438   0.040  0.00  0.00    -0.077 S 
BRANCH   6   7
ATOM      7  C   UNL     1       0.065   4.227   0.058  0.00  0.00    +0.173 C 
BRANCH   7  12
ATOM      8  N   UNL     1      -1.787   8.664   0.065  0.00  0.00    -0.269 N 
ATOM      9  C   UNL     1      -0.703   7.864   0.054  0.00  0.00    +0.310 C 
ATOM     10  O   UNL     1       0.411   8.351   0.037  0.00  0.00    -0.252 OA
ATOM     11  N   UNL     1      -0.852   6.525   0.061  0.00  0.00    -0.239 N 
ATOM     12  C   UNL     1       0.233   5.725   0.050  0.00  0.00    +0.231 C 
ATOM     13  O   UNL     1       1.343   6.210   0.034  0.00  0.00    -0.274 OA
ATOM     14  H   UNL     1      -2.675   8.278  -0.004  0.00  0.00    +0.156 HD
ATOM     15  H   UNL     1      -1.741   6.136   0.074  0.00  0.00    +0.159 HD
BRANCH   8  21
ATOM     16  C   UNL     1      -3.530  13.192  -0.728  0.00  0.00    +0.044 C 
ATOM     17  C   UNL     1      -2.463  12.268  -0.200  0.00  0.00    -0.046 A 
ATOM     18  C   UNL     1      -1.330  12.791   0.396  0.00  0.00    +0.004 A 
ATOM     19  C   UNL     1      -0.348  11.947   0.882  0.00  0.00    +0.002 A 
ATOM     20  C   UNL     1      -0.497  10.578   0.774  0.00  0.00    +0.023 A 
ATOM     21  C   UNL     1      -1.634  10.050   0.176  0.00  0.00    +0.038 A 
ATOM     22  C   UNL     1      -2.615  10.901  -0.316  0.00  0.00    -0.026 A 
ATOM     23  C   UNL     1      -3.847  10.332  -0.971  0.00  0.00    +0.046 C 
ENDBRANCH   8  21
ENDBRANCH   7  12
ENDBRANCH   6   7
ENDBRANCH   1   6
BRANCH   5  24
ATOM     24  C   UNL     1       3.511   0.675   0.027  0.00  0.00    +0.160 C 
BRANCH  24  25
ATOM     25  C   UNL     1       3.995   0.674  -1.400  0.00  0.00    -0.028 A 
ATOM     26  C   UNL     1       4.233  -0.523  -2.049  0.00  0.00    +0.005 A 
ATOM     27  C   UNL     1       4.672  -0.523  -3.360  0.00  0.00    +0.000 A 
ATOM     28  C   UNL     1       4.883   0.674  -4.018  0.00  0.00    +0.000 A 
ATOM     29  C   UNL     1       4.650   1.871  -3.368  0.00  0.00    +0.000 A 
ATOM     30  C   UNL     1       4.206   1.871  -2.059  0.00  0.00    +0.005 A 
ENDBRANCH  24  25
ENDBRANCH   5  24
BRANCH   4  31
ATOM     31  C   UNL     1       1.672  -1.876   0.060  0.00  0.00    -0.001 C 
BRANCH  31  37
ATOM     32  C   UNL     1       0.489  -2.379  -1.991  0.00  0.00    -0.078 C 
ATOM     33  C   UNL     1       0.675  -2.735  -3.468  0.00  0.00    -0.019 C 
ATOM     34  C   UNL     1       1.355  -4.103  -3.576  0.00  0.00    -0.004 C 
ATOM     35  C   UNL     1       2.693  -4.059  -2.833  0.00  0.00    -0.019 C 
ATOM     36  C   UNL     1       2.448  -3.665  -1.375  0.00  0.00    -0.078 C 
ATOM     37  N   UNL     1       1.814  -2.330  -1.339  0.00  0.00    +0.384 N 
ATOM     38  H   UNL     1       2.410  -1.665  -1.845  0.00  0.00    -0.081 HD
ENDBRANCH  31  37
ENDBRANCH   4  31
TORSDOF 8
