REMARK  Name = ZINC09350407
REMARK  8 active torsions:
REMARK  status: ('A' for Active; 'I' for Inactive)
REMARK    1  A    between atoms: C_1  and  C_2
REMARK    2  A    between atoms: C_2  and  C_3
REMARK    3  A    between atoms: C_3  and  O_4
REMARK    4  A    between atoms: O_4  and  C_5
REMARK    5  A    between atoms: C_8  and  C_11
REMARK    6  A    between atoms: C_18  and  N_32
REMARK    7  A    between atoms: C_19  and  C_30
REMARK    8  A    between atoms: C_20  and  C_22
REMARK                            x       y       z     vdW  Elec       q    Type
REMARK                         _______ _______ _______ _____ _____    ______ ____
ROOT
ATOM      1  C   UNL     1       3.229  -4.415  -5.630  0.00  0.00    +0.074 A 
ATOM      2  C   UNL     1       2.747  -5.463  -6.340  0.00  0.00    +0.054 A 
ATOM      3  C   UNL     1       3.682  -5.777  -7.347  0.00  0.00    +0.245 A 
ATOM      4  N   UNL     1       4.684  -4.950  -7.247  0.00  0.00    -0.135 NA
ATOM      5  N   UNL     1       4.433  -4.074  -6.180  0.00  0.00    -0.273 N 
ATOM      6  H   UNL     1       5.012  -3.354  -5.884  0.00  0.00    +0.189 HD
ATOM      7  O   UNL     1       3.479  -6.794  -8.227  0.00  0.00    -0.421 OA
ATOM      8  C   UNL     1       2.493  -7.670  -7.948  0.00  0.00    +0.201 C 
ATOM      9  C   UNL     1       1.536  -7.473  -7.016  0.00  0.00    +0.098 C 
ATOM     10  C   UNL     1       1.459  -6.228  -6.170  0.00  0.00    +0.103 C 
ENDROOT
BRANCH  10  11
ATOM     11  C   UNL     1       0.300  -5.377  -6.621  0.00  0.00    -0.016 A 
ATOM     12  C   UNL     1       0.240  -4.926  -7.926  0.00  0.00    +0.007 A 
ATOM     13  C   UNL     1      -0.823  -4.146  -8.340  0.00  0.00    +0.020 A 
ATOM     14  C   UNL     1      -1.829  -3.817  -7.449  0.00  0.00    +0.042 A 
ATOM     15  C   UNL     1      -1.770  -4.268  -6.143  0.00  0.00    +0.040 A 
ATOM     16  C   UNL     1      -0.708  -5.053  -5.730  0.00  0.00    +0.046 A 
ATOM     17 CL   UNL     1      -0.636  -5.625  -4.092  0.00  0.00    -0.083 Cl
ATOM     18 CL   UNL     1      -3.164  -2.837  -7.969  0.00  0.00    -0.083 Cl
ENDBRANCH  10  11
BRANCH   1  22
ATOM     19  C   UNL     1       1.341  -2.529  -2.322  0.00  0.00    +0.121 A 
ATOM     20  C   UNL     1       1.908  -1.758  -3.328  0.00  0.00    +0.046 A 
ATOM     21  C   UNL     1       2.521  -2.366  -4.403  0.00  0.00    +0.013 A 
ATOM     22  C   UNL     1       2.572  -3.759  -4.478  0.00  0.00    +0.000 A 
ATOM     23  C   UNL     1       2.002  -4.530  -3.465  0.00  0.00    +0.013 A 
ATOM     24  C   UNL     1       1.395  -3.915  -2.391  0.00  0.00    +0.046 A 
BRANCH  19  25
ATOM     25  O   UNL     1       0.738  -1.926  -1.265  0.00  0.00    -0.492 OA
BRANCH  25  26
ATOM     26  C   UNL     1       0.718  -0.497  -1.257  0.00  0.00    +0.229 C 
BRANCH  26  28
ATOM     27  C   UNL     1      -0.019   1.526   0.010  0.00  0.00    +0.007 C 
ATOM     28  C   UNL     1       0.002  -0.004   0.002  0.00  0.00    +0.038 C 
ENDBRANCH  26  28
ENDBRANCH  25  26
ENDBRANCH  19  25
ENDBRANCH   1  22
BRANCH   8  29
ATOM     29  N   UNL     1       2.459  -8.842  -8.660  0.00  0.00    -0.328 N 
ATOM     30  H   UNL     1       3.130  -9.018  -9.338  0.00  0.00    +0.145 HD
ATOM     31  H   UNL     1       1.764  -9.496  -8.486  0.00  0.00    +0.145 HD
ENDBRANCH   8  29
BRANCH   9  32
ATOM     32  C   UNL     1       0.551  -8.494  -6.822  0.00  0.00    +0.101 C 
ATOM     33  N   UNL     1      -0.231  -9.303  -6.668  0.00  0.00    -0.191 NA
ENDBRANCH   9  32
TORSDOF 7
