REMARK  Name = ZINC13064124
REMARK  17 active torsions:
REMARK  status: ('A' for Active; 'I' for Inactive)
REMARK    1  A    between atoms: C_1  and  C_2
REMARK    2  A    between atoms: C_2  and  C_3
REMARK    3  A    between atoms: C_3  and  C_5
REMARK    4  A    between atoms: C_3  and  N_70
REMARK    5  A    between atoms: N_9  and  C_10
REMARK    6  A    between atoms: C_10  and  C_11
REMARK    7  A    between atoms: C_11  and  O_13
REMARK    8  A    between atoms: O_13  and  C_14
REMARK    9  A    between atoms: C_14  and  C_15
REMARK   10  A    between atoms: C_16  and  C_17
REMARK   11  A    between atoms: C_16  and  N_70
REMARK   12  A    between atoms: C_20  and  O_23
REMARK   13  A    between atoms: O_23  and  C_24
REMARK   14  A    between atoms: C_25  and  C_26
REMARK   15  A    between atoms: C_25  and  N_70
REMARK   16  A    between atoms: C_30  and  O_38
REMARK   17  A    between atoms: O_38  and  C_39
REMARK                            x       y       z     vdW  Elec       q    Type
REMARK                         _______ _______ _______ _____ _____    ______ ____
ROOT
ATOM      1  N   UNL     1      -2.663   4.753   1.034  0.00  0.00    +0.392 N 
ATOM      2  H   UNL     1      -1.886   5.285   1.443  0.00  0.00    -0.080 HD
ENDROOT
BRANCH   1   3
ATOM      3  C   UNL     1      -3.894   5.569   1.104  0.00  0.00    +0.003 C 
BRANCH   3   4
ATOM      4  C   UNL     1      -5.004   4.918   0.320  0.00  0.00    +0.139 A 
ATOM      5  N   UNL     1      -4.912   4.386  -0.875  0.00  0.00    -0.115 NA
ATOM      6  N   UNL     1      -6.074   3.935  -1.200  0.00  0.00    -0.023 NA
ATOM      7  N   UNL     1      -6.905   4.165  -0.245  0.00  0.00    -0.043 NA
ATOM      8  N   UNL     1      -6.282   4.765   0.713  0.00  0.00    -0.220 N 
BRANCH   8   9
ATOM      9  C   UNL     1      -6.859   5.201   1.987  0.00  0.00    +0.267 C 
BRANCH   9  10
ATOM     10  C   UNL     1      -7.457   6.574   1.824  0.00  0.00    +0.329 C 
ATOM     11  O   UNL     1      -7.407   7.132   0.753  0.00  0.00    -0.249 OA
BRANCH  10  12
ATOM     12  O   UNL     1      -8.046   7.178   2.868  0.00  0.00    -0.464 OA
BRANCH  12  13
ATOM     13  C   UNL     1      -8.600   8.501   2.639  0.00  0.00    +0.229 C 
ATOM     14  C   UNL     1      -9.224   9.024   3.934  0.00  0.00    +0.048 C 
ENDBRANCH  12  13
ENDBRANCH  10  12
ENDBRANCH   9  10
ENDBRANCH   8   9
ENDBRANCH   3   4
BRANCH   3  16
ATOM     15  C   UNL     1      -2.577   7.671   1.401  0.00  0.00    +0.002 C 
ATOM     16  C   UNL     1      -3.601   6.953   0.521  0.00  0.00    -0.011 C 
ENDBRANCH   3  16
ENDBRANCH   1   3
BRANCH   1  17
ATOM     17  C   UNL     1      -2.843   3.502   1.800  0.00  0.00    -0.042 C 
BRANCH  17  18
ATOM     18  C   UNL     1      -2.792   3.823   3.271  0.00  0.00    -0.064 A 
ATOM     19  C   UNL     1      -1.573   3.910   3.917  0.00  0.00    +0.005 A 
ATOM     20  C   UNL     1      -1.523   4.211   5.264  0.00  0.00    +0.046 A 
ATOM     21  C   UNL     1      -2.699   4.413   5.972  0.00  0.00    +0.120 A 
ATOM     22  C   UNL     1      -3.921   4.319   5.323  0.00  0.00    +0.046 A 
ATOM     23  C   UNL     1      -3.965   4.024   3.974  0.00  0.00    +0.005 A 
BRANCH  21  24
ATOM     24  O   UNL     1      -2.653   4.703   7.299  0.00  0.00    -0.495 OA
ATOM     25  C   UNL     1      -1.359   4.784   7.901  0.00  0.00    +0.277 C 
ENDBRANCH  21  24
ENDBRANCH  17  18
ENDBRANCH   1  17
BRANCH   1  26
ATOM     26  C   UNL     1      -2.343   4.442  -0.375  0.00  0.00    -0.036 C 
BRANCH  26  27
ATOM     27  C   UNL     1      -0.912   3.976  -0.454  0.00  0.00    +0.001 A 
ATOM     28  C   UNL     1      -0.631   2.649  -0.437  0.00  0.00    +0.017 A 
ATOM     29  C   UNL     1       0.769   2.229  -0.519  0.00  0.00    +0.002 A 
ATOM     30  C   UNL     1       1.118   0.874  -0.510  0.00  0.00    +0.055 A 
ATOM     31  C   UNL     1       2.448   0.513  -0.584  0.00  0.00    +0.121 A 
ATOM     32  C   UNL     1       3.438   1.489  -0.666  0.00  0.00    +0.047 A 
ATOM     33  C   UNL     1       3.107   2.826  -0.677  0.00  0.00    +0.030 A 
ATOM     34  C   UNL     1       1.773   3.212  -0.603  0.00  0.00    +0.049 A 
ATOM     35  N   UNL     1       1.421   4.546  -0.611  0.00  0.00    -0.322 N 
ATOM     36  H   UNL     1       2.113   5.223  -0.669  0.00  0.00    +0.169 HD
ATOM     37  C   UNL     1       0.132   4.922  -0.540  0.00  0.00    +0.251 A 
ATOM     38  O   UNL     1      -0.142   6.110  -0.549  0.00  0.00    -0.268 OA
BRANCH  31  39
ATOM     39  O   UNL     1       2.793  -0.802  -0.575  0.00  0.00    -0.495 OA
ATOM     40  C   UNL     1       4.187  -1.107  -0.653  0.00  0.00    +0.277 C 
ENDBRANCH  31  39
ENDBRANCH  26  27
ENDBRANCH   1  26
TORSDOF 13
