REMARK  Name = ZINC09592506
REMARK  11 active torsions:
REMARK  status: ('A' for Active; 'I' for Inactive)
REMARK    1  A    between atoms: C_1  and  C_2
REMARK    2  A    between atoms: C_2  and  C_3
REMARK    3  A    between atoms: C_3  and  C_4
REMARK    4  A    between atoms: C_4  and  N_5
REMARK    5  A    between atoms: C_6  and  N_37
REMARK    6  A    between atoms: C_7  and  N_14
REMARK    7  A    between atoms: N_14  and  C_15
REMARK    8  A    between atoms: C_15  and  C_16
REMARK    9  A    between atoms: C_21  and  C_23
REMARK   10  A    between atoms: N_28  and  C_30
REMARK   11  A    between atoms: C_33  and  C_36
REMARK                            x       y       z     vdW  Elec       q    Type
REMARK                         _______ _______ _______ _____ _____    ______ ____
ROOT
ATOM      1  N   UNL     1       0.128  -8.744  -1.280  0.00  0.00    -0.257 N 
ATOM      2  C   UNL     1       0.003  -7.488  -1.756  0.00  0.00    +0.225 C 
ATOM      3  O   UNL     1       0.564  -6.569  -1.196  0.00  0.00    -0.275 OA
ENDROOT
BRANCH   1   6
ATOM      4  N   UNL     1      -0.164 -11.766  -3.351  0.00  0.00    -0.280 N 
ATOM      5  C   UNL     1       0.400 -10.716  -2.664  0.00  0.00    +0.127 A 
ATOM      6  C   UNL     1      -0.420  -9.828  -1.999  0.00  0.00    +0.140 A 
ATOM      7  C   UNL     1      -1.814 -10.018  -2.054  0.00  0.00    +0.277 A 
ATOM      8  O   UNL     1      -2.562  -9.245  -1.480  0.00  0.00    -0.266 OA
ATOM      9  N   UNL     1      -2.315 -11.059  -2.746  0.00  0.00    -0.273 N 
ATOM     10  H   UNL     1      -3.305 -11.196  -2.786  0.00  0.00    +0.173 HD
ATOM     11  C   UNL     1      -1.500 -11.918  -3.384  0.00  0.00    +0.331 A 
ATOM     12  O   UNL     1      -1.980 -12.850  -4.002  0.00  0.00    -0.246 OA
BRANCH   5  13
ATOM     13  N   UNL     1       1.765 -10.557  -2.636  0.00  0.00    -0.343 N 
ATOM     14  H   UNL     1       2.162  -9.873  -2.073  0.00  0.00    +0.144 HD
ATOM     15  H   UNL     1       2.331 -11.127  -3.178  0.00  0.00    +0.144 HD
ENDBRANCH   5  13
BRANCH   4  16
ATOM     16  C   UNL     1       0.696 -12.720  -4.056  0.00  0.00    +0.128 C 
BRANCH  16  17
ATOM     17  C   UNL     1       0.931 -12.233  -5.488  0.00  0.00    +0.021 C 
BRANCH  17  19
ATOM     18  C   UNL     1       2.063 -12.742  -7.656  0.00  0.00    +0.004 C 
ATOM     19  C   UNL     1       1.828 -13.229  -6.224  0.00  0.00    -0.002 C 
ENDBRANCH  17  19
ENDBRANCH  16  17
ENDBRANCH   4  16
ENDBRANCH   1   6
BRANCH   2  20
ATOM     20  C   UNL     1      -0.832  -7.225  -2.982  0.00  0.00    +0.102 C 
ATOM     21  C   UNL     1       0.046  -7.197  -4.254  0.00  0.00    +0.110 C 
ATOM     22  C   UNL     1      -0.572  -6.111  -5.107  0.00  0.00    +0.221 C 
ATOM     23  O   UNL     1      -0.365  -5.957  -6.293  0.00  0.00    -0.275 OA
ATOM     24  N   UNL     1      -1.384  -5.343  -4.361  0.00  0.00    -0.271 N 
ATOM     25  C   UNL     1      -1.402  -5.787  -2.963  0.00  0.00    +0.127 C 
BRANCH  24  26
ATOM     26  C   UNL     1      -2.114  -4.255  -4.853  0.00  0.00    +0.036 A 
ATOM     27  C   UNL     1      -2.118  -3.978  -6.214  0.00  0.00    +0.024 A 
ATOM     28  C   UNL     1      -2.840  -2.904  -6.697  0.00  0.00    +0.005 A 
ATOM     29  C   UNL     1      -3.558  -2.105  -5.827  0.00  0.00    -0.050 A 
ATOM     30  C   UNL     1      -3.552  -2.375  -4.470  0.00  0.00    +0.005 A 
ATOM     31  C   UNL     1      -2.836  -3.450  -3.982  0.00  0.00    +0.024 A 
ATOM     32  C   UNL     1      -4.345  -0.934  -6.357  0.00  0.00    +0.044 C 
ENDBRANCH  24  26
ENDBRANCH   2  20
BRANCH   1  33
ATOM     33  C   UNL     1       0.833  -8.984  -0.019  0.00  0.00    +0.188 C 
BRANCH  33  34
ATOM     34  C   UNL     1      -0.151  -8.945   1.122  0.00  0.00    +0.122 A 
ATOM     35  C   UNL     1      -0.791 -10.007   1.644  0.00  0.00    +0.046 A 
ATOM     36  C   UNL     1      -1.612  -9.518   2.687  0.00  0.00    +0.041 A 
ATOM     37  C   UNL     1      -1.424  -8.187   2.739  0.00  0.00    +0.195 A 
ATOM     38  O   UNL     1      -0.534  -7.846   1.792  0.00  0.00    -0.466 OA
ENDBRANCH  33  34
ENDBRANCH   1  33
TORSDOF 9
