REMARK  Name = ZINC36306827
REMARK  16 active torsions:
REMARK  status: ('A' for Active; 'I' for Inactive)
REMARK    1  A    between atoms: C_1  and  C_2
REMARK    2  A    between atoms: C_2  and  C_3
REMARK    3  A    between atoms: C_2  and  O_4
REMARK    4  A    between atoms: O_4  and  C_5
REMARK    5  A    between atoms: C_5  and  C_6
REMARK    6  A    between atoms: C_6  and  C_8
REMARK    7  A    between atoms: C_6  and  O_38
REMARK    8  A    between atoms: C_8  and  N_9
REMARK    9  A    between atoms: N_9  and  C_10
REMARK   10  A    between atoms: N_9  and  C_31
REMARK   11  A    between atoms: C_10  and  C_11
REMARK   12  A    between atoms: C_12  and  C_25
REMARK   13  A    between atoms: N_14  and  C_24
REMARK   14  A    between atoms: C_15  and  O_16
REMARK   15  A    between atoms: O_16  and  C_17
REMARK   16  A    between atoms: C_31  and  C_32
REMARK                            x       y       z     vdW  Elec       q    Type
REMARK                         _______ _______ _______ _____ _____    ______ ____
ROOT
ATOM      1  C   UNL     1      -0.924  -3.526   6.425  0.00  0.00    +0.025 A 
ATOM      2  C   UNL     1      -2.129  -3.499   5.698  0.00  0.00    +0.098 A 
ATOM      3  N   UNL     1      -2.436  -4.736   5.370  0.00  0.00    -0.168 NA
ATOM      4  N   UNL     1      -1.443  -5.584   5.873  0.00  0.00    -0.235 N 
ATOM      5  C   UNL     1      -0.521  -4.819   6.513  0.00  0.00    +0.221 A 
ATOM      6  C   UNL     1      -1.402  -7.042   5.730  0.00  0.00    +0.176 C 
ENDROOT
BRANCH   2   7
ATOM      7  C   UNL     1      -2.917  -2.287   5.362  0.00  0.00    +0.002 A 
ATOM      8  C   UNL     1      -3.110  -1.291   6.317  0.00  0.00    +0.010 A 
ATOM      9  C   UNL     1      -3.842  -0.166   5.999  0.00  0.00    +0.001 A 
ATOM     10  C   UNL     1      -4.385  -0.025   4.734  0.00  0.00    +0.000 A 
ATOM     11  C   UNL     1      -4.196  -1.011   3.782  0.00  0.00    +0.001 A 
ATOM     12  C   UNL     1      -3.461  -2.138   4.088  0.00  0.00    +0.010 A 
ENDBRANCH   2   7
BRANCH   1  13
ATOM     13  C   UNL     1      -0.205  -2.331   6.998  0.00  0.00    -0.035 C 
BRANCH  13  14
ATOM     14  N   UNL     1       0.843  -1.897   6.065  0.00  0.00    +0.386 N 
ATOM     15  H   UNL     1       1.448  -2.676   5.853  0.00  0.00    -0.081 HD
BRANCH  14  16
ATOM     16  C   UNL     1       0.224  -1.406   4.827  0.00  0.00    -0.044 C 
BRANCH  16  17
ATOM     17  C   UNL     1       1.316  -1.071   3.809  0.00  0.00    +0.124 C 
BRANCH  17  18
ATOM     18  O   UNL     1       2.006  -2.266   3.439  0.00  0.00    -0.391 OA
ATOM     19  H   UNL     1       1.439  -2.939   3.038  0.00  0.00    +0.210 HD
ENDBRANCH  17  18
BRANCH  17  20
ATOM     20  C   UNL     1       0.680  -0.444   2.567  0.00  0.00    +0.189 C 
BRANCH  20  21
ATOM     21  O   UNL     1       1.707  -0.024   1.666  0.00  0.00    -0.375 OA
BRANCH  21  23
ATOM     22  C   UNL     1       1.073   2.087   0.675  0.00  0.00    +0.037 C 
ATOM     23  C   UNL     1       1.217   0.579   0.466  0.00  0.00    +0.112 C 
ATOM     24  C   UNL     1       2.201   0.314  -0.676  0.00  0.00    +0.037 C 
ENDBRANCH  21  23
ENDBRANCH  20  21
ENDBRANCH  17  20
ENDBRANCH  16  17
ENDBRANCH  14  16
BRANCH  14  25
ATOM     25  C   UNL     1       1.629  -0.819   6.680  0.00  0.00    -0.046 C 
BRANCH  25  26
ATOM     26  C   UNL     1       2.400  -1.371   7.880  0.00  0.00    +0.102 C 
ATOM     27  C   UNL     1       3.250  -0.250   8.518  0.00  0.00    +0.032 C 
ATOM     28  C   UNL     1       4.560  -0.999   8.886  0.00  0.00    +0.030 C 
ATOM     29  C   UNL     1       4.654  -2.017   7.722  0.00  0.00    +0.160 C 
ATOM     30  O   UNL     1       3.295  -2.403   7.450  0.00  0.00    -0.378 OA
ENDBRANCH  25  26
ENDBRANCH  14  25
ENDBRANCH  13  14
ENDBRANCH   1  13
BRANCH   5  31
ATOM     31  O   UNL     1       0.601  -5.268   7.131  0.00  0.00    -0.435 OA
BRANCH  31  32
ATOM     32  C   UNL     1       0.498  -5.673   8.425  0.00  0.00    +0.165 A 
ATOM     33  C   UNL     1      -0.743  -5.720   9.041  0.00  0.00    +0.049 A 
ATOM     34  C   UNL     1      -0.846  -6.132  10.356  0.00  0.00    +0.004 A 
ATOM     35  C   UNL     1       0.288  -6.497  11.059  0.00  0.00    +0.003 A 
ATOM     36  C   UNL     1       1.528  -6.450  10.449  0.00  0.00    +0.042 A 
ATOM     37  C   UNL     1       1.636  -6.045   9.130  0.00  0.00    +0.165 A 
ATOM     38  F   UNL     1       2.846  -6.004   8.532  0.00  0.00    -0.202 F 
ENDBRANCH  31  32
ENDBRANCH   5  31
TORSDOF 13
