REMARK  Name = ZINC08801685
REMARK  8 active torsions:
REMARK  status: ('A' for Active; 'I' for Inactive)
REMARK    1  A    between atoms: C_1  and  C_2
REMARK    2  A    between atoms: C_7  and  S_8
REMARK    3  A    between atoms: S_8  and  N_11
REMARK    4  A    between atoms: N_11  and  C_12
REMARK    5  A    between atoms: C_12  and  C_13
REMARK    6  A    between atoms: C_13  and  C_15
REMARK    7  A    between atoms: C_13  and  N_60
REMARK    8  A    between atoms: N_23  and  C_24
REMARK                            x       y       z     vdW  Elec       q    Type
REMARK                         _______ _______ _______ _____ _____    ______ ____
ROOT
ATOM      1  C   UNL     1      -3.582   6.503  -0.809  0.00  0.00    -0.022 C 
ENDROOT
BRANCH   1   2
ATOM      2  C   UNL     1      -2.761   5.497  -0.045  0.00  0.00    -0.059 A 
ATOM      3  C   UNL     1      -2.941   5.346   1.318  0.00  0.00    +0.004 A 
ATOM      4  C   UNL     1      -2.193   4.425   2.021  0.00  0.00    +0.023 A 
ATOM      5  C   UNL     1      -1.250   3.639   1.361  0.00  0.00    +0.033 A 
ATOM      6  C   UNL     1      -1.073   3.800  -0.007  0.00  0.00    -0.025 A 
ATOM      7  C   UNL     1      -1.825   4.722  -0.706  0.00  0.00    +0.007 A 
ATOM      8  C   UNL     1       0.007   2.836  -0.456  0.00  0.00    +0.056 C 
ATOM      9  C   UNL     1       0.683   2.435   0.875  0.00  0.00    +0.109 C 
ATOM     10  N   UNL     1      -0.392   2.650   1.867  0.00  0.00    -0.332 N 
ATOM     11  C   UNL     1       0.163   3.043   3.169  0.00  0.00    +0.129 C 
ENDBRANCH   1   2
BRANCH   1  17
ATOM     12  C   UNL     1      -2.228   7.994   0.534  0.00  0.00    -0.078 C 
ATOM     13  C   UNL     1      -2.151   9.409   1.111  0.00  0.00    -0.019 C 
ATOM     14  C   UNL     1      -3.289   9.608   2.116  0.00  0.00    -0.004 C 
ATOM     15  C   UNL     1      -4.628   9.355   1.417  0.00  0.00    -0.019 C 
ATOM     16  C   UNL     1      -4.632   7.941   0.831  0.00  0.00    -0.078 C 
ATOM     17  N   UNL     1      -3.529   7.822  -0.146  0.00  0.00    +0.385 N 
ATOM     18  H   UNL     1      -3.633   8.557  -0.856  0.00  0.00    -0.081 HD
ENDBRANCH   1  17
BRANCH   1  19
ATOM     19  C   UNL     1      -5.034   6.027  -0.881  0.00  0.00    +0.095 C 
BRANCH  19  20
ATOM     20  N   UNL     1      -5.840   7.022  -1.593  0.00  0.00    -0.191 NA
ATOM     21  H   UNL     1      -5.496   7.920  -1.725  0.00  0.00    +0.148 HD
BRANCH  20  22
ATOM     22  S   UNL     1      -7.337   6.615  -2.173  0.00  0.00    +0.059 S 
ATOM     23  O   UNL     1      -7.901   7.803  -2.710  0.00  0.00    -0.153 OA
ATOM     24  O   UNL     1      -7.165   5.436  -2.947  0.00  0.00    -0.153 OA
BRANCH  22  31
ATOM     25  C   UNL     1      -8.116   8.519   0.043  0.00  0.00    +0.046 C 
ATOM     26  C   UNL     1      -8.633   7.110   0.178  0.00  0.00    -0.024 A 
ATOM     27  C   UNL     1      -9.411   6.760   1.265  0.00  0.00    +0.007 A 
ATOM     28  C   UNL     1      -9.885   5.467   1.389  0.00  0.00    +0.020 A 
ATOM     29  C   UNL     1      -9.580   4.524   0.424  0.00  0.00    +0.043 A 
ATOM     30  C   UNL     1      -8.805   4.876  -0.667  0.00  0.00    +0.048 A 
ATOM     31  C   UNL     1      -8.328   6.167  -0.787  0.00  0.00    +0.110 A 
ATOM     32 CL   UNL     1     -10.175   2.900   0.579  0.00  0.00    -0.083 Cl
ENDBRANCH  22  31
ENDBRANCH  20  22
ENDBRANCH  19  20
ENDBRANCH   1  19
TORSDOF 6
