REMARK  Name = ZINC17306808
REMARK  13 active torsions:
REMARK  status: ('A' for Active; 'I' for Inactive)
REMARK    1  A    between atoms: C_1  and  C_2
REMARK    2  A    between atoms: C_2  and  C_3
REMARK    3  A    between atoms: C_2  and  N_4
REMARK    4  A    between atoms: C_5  and  C_7
REMARK    5  A    between atoms: C_7  and  N_63
REMARK    6  A    between atoms: C_8  and  N_63
REMARK    7  A    between atoms: C_9  and  C_10
REMARK    8  A    between atoms: C_9  and  N_63
REMARK    9  A    between atoms: N_12  and  C_13
REMARK   10  A    between atoms: C_14  and  C_22
REMARK   11  A    between atoms: C_22  and  C_24
REMARK   12  A    between atoms: C_29  and  O_30
REMARK   13  A    between atoms: O_30  and  C_31
REMARK                            x       y       z     vdW  Elec       q    Type
REMARK                         _______ _______ _______ _____ _____    ______ ____
ROOT
ATOM      1  C   UNL     1      -4.377   0.800   2.113  0.00  0.00    +0.083 A 
ATOM      2  C   UNL     1      -3.058   1.200   2.290  0.00  0.00    +0.054 A 
ATOM      3  C   UNL     1      -2.221   1.291   1.106  0.00  0.00    -0.024 A 
ATOM      4  C   UNL     1      -2.830   0.972  -0.056  0.00  0.00    -0.005 A 
ATOM      5  S   UNL     1      -4.489   0.554   0.402  0.00  0.00    -0.077 S 
ATOM      6  C   UNL     1      -2.223   0.976  -1.425  0.00  0.00    +0.043 C 
ATOM      7  C   UNL     1      -0.903   1.757  -1.367  0.00  0.00    +0.005 C 
ATOM      8  C   UNL     1      -0.090   1.263  -0.167  0.00  0.00    +0.005 C 
ATOM      9  C   UNL     1      -0.758   1.713   1.133  0.00  0.00    +0.037 C 
ENDROOT
BRANCH   1  12
ATOM     10  C   UNL     1      -6.626   0.347   2.699  0.00  0.00    +0.201 C 
ATOM     11  O   UNL     1      -6.898   0.229   1.523  0.00  0.00    -0.278 OA
ATOM     12  N   UNL     1      -5.364   0.637   3.072  0.00  0.00    -0.281 N 
ATOM     13  H   UNL     1      -5.146   0.731   4.013  0.00  0.00    +0.155 HD
BRANCH  10  14
ATOM     14  C   UNL     1      -7.699   0.170   3.742  0.00  0.00    +0.019 C 
BRANCH  14  16
ATOM     15  C   UNL     1      -9.446   1.004   2.289  0.00  0.00    -0.095 C 
ATOM     16  N   UNL     1      -8.971  -0.160   3.066  0.00  0.00    +0.389 N 
ATOM     17  H   UNL     1      -8.814  -0.947   2.426  0.00  0.00    -0.081 HD
BRANCH  16  18
ATOM     18  C   UNL     1      -9.988  -0.549   4.066  0.00  0.00    +0.019 C 
BRANCH  18  20
ATOM     19  N   UNL     1     -12.259  -1.529   4.047  0.00  0.00    -0.315 N 
ATOM     20  C   UNL     1     -11.197  -1.089   3.345  0.00  0.00    +0.197 C 
ATOM     21  O   UNL     1     -11.213  -1.126   2.133  0.00  0.00    -0.278 OA
ATOM     22  H   UNL     1     -12.246  -1.498   5.017  0.00  0.00    +0.149 HD
BRANCH  19  24
ATOM     23  C   UNL     1     -14.187  -3.018   4.265  0.00  0.00    +0.027 C 
ATOM     24  C   UNL     1     -13.434  -2.053   3.347  0.00  0.00    +0.067 C 
ATOM     25  C   UNL     1     -14.355  -0.894   2.959  0.00  0.00    +0.027 C 
ENDBRANCH  19  24
ENDBRANCH  18  20
ENDBRANCH  16  18
ENDBRANCH  14  16
ENDBRANCH  10  14
ENDBRANCH   1  12
BRANCH   2  26
ATOM     26  C   UNL     1      -2.531   1.517   3.620  0.00  0.00    +0.199 C 
ATOM     27  O   UNL     1      -1.950   0.663   4.265  0.00  0.00    -0.286 OA
BRANCH  26  28
ATOM     28  C   UNL     1      -2.705   2.873   4.179  0.00  0.00    +0.064 A 
ATOM     29  C   UNL     1      -3.465   3.823   3.493  0.00  0.00    +0.015 A 
ATOM     30  C   UNL     1      -3.623   5.086   4.019  0.00  0.00    +0.001 A 
ATOM     31  C   UNL     1      -3.032   5.419   5.227  0.00  0.00    +0.004 A 
ATOM     32  C   UNL     1      -2.278   4.489   5.915  0.00  0.00    +0.046 A 
ATOM     33  C   UNL     1      -2.113   3.211   5.403  0.00  0.00    +0.131 A 
BRANCH  33  34
ATOM     34  O   UNL     1      -1.378   2.295   6.081  0.00  0.00    -0.494 OA
ATOM     35  C   UNL     1      -0.805   2.712   7.322  0.00  0.00    +0.277 C 
ENDBRANCH  33  34
ENDBRANCH  26  28
ENDBRANCH   2  26
TORSDOF 9
