REMARK  Name = ZINC20751675
REMARK  3 active torsions:
REMARK  status: ('A' for Active; 'I' for Inactive)
REMARK    1  A    between atoms: C_9  and  O_30
REMARK    2  A    between atoms: C_10  and  C_11
REMARK    3  A    between atoms: C_22  and  N_27
REMARK                            x       y       z     vdW  Elec       q    Type
REMARK                         _______ _______ _______ _____ _____    ______ ____
ROOT
ATOM      1  C   UNL     1      -0.035   1.089   0.023  0.00  0.00    +0.109 C 
ATOM      2  C   UNL     1      -0.974   0.926   1.205  0.00  0.00    +0.029 C 
ATOM      3  C   UNL     1      -2.240   0.087   0.982  0.00  0.00    +0.033 C 
ATOM      4  C   UNL     1      -3.212   0.728   1.974  0.00  0.00    -0.030 C 
ATOM      5  C   UNL     1      -2.863   1.989   2.202  0.00  0.00    -0.023 C 
ATOM      6  C   UNL     1      -1.672   2.308   1.374  0.00  0.00    +0.049 C 
ATOM      7  C   UNL     1      -0.651   3.283   1.814  0.00  0.00    -0.017 A 
ATOM      8  C   UNL     1      -0.941   4.321   2.673  0.00  0.00    +0.038 A 
ATOM      9  C   UNL     1       0.040   5.229   3.027  0.00  0.00    +0.127 A 
ATOM     10  C   UNL     1       1.319   5.097   2.518  0.00  0.00    +0.034 A 
ATOM     11  C   UNL     1       1.621   4.056   1.664  0.00  0.00    +0.025 A 
ATOM     12  C   UNL     1       0.644   3.134   1.308  0.00  0.00    +0.032 A 
ATOM     13  N   UNL     1       0.979   2.077   0.453  0.00  0.00    -0.336 N 
ATOM     14  H   UNL     1       2.017   1.989   0.100  0.00  0.00    +0.147 HD
ENDROOT
BRANCH   1  24
ATOM     15  C   UNL     1      -2.916  -1.004  -3.652  0.00  0.00    +0.001 A 
ATOM     16  C   UNL     1      -2.225  -1.498  -2.546  0.00  0.00    +0.001 A 
ATOM     17  C   UNL     1      -1.526  -0.665  -1.728  0.00  0.00    +0.009 A 
ATOM     18  C   UNL     1      -1.498   0.714  -1.999  0.00  0.00    -0.009 A 
ATOM     19  C   UNL     1      -2.200   1.216  -3.123  0.00  0.00    -0.017 A 
ATOM     20  C   UNL     1      -2.911   0.324  -3.945  0.00  0.00    +0.008 A 
ATOM     21  C   UNL     1      -2.174   2.594  -3.396  0.00  0.00    +0.012 A 
ATOM     22  C   UNL     1      -1.476   3.430  -2.580  0.00  0.00    +0.046 A 
ATOM     23  C   UNL     1      -0.787   2.938  -1.467  0.00  0.00    +0.122 A 
ATOM     24  C   UNL     1      -0.787   1.603  -1.177  0.00  0.00    +0.022 A 
BRANCH  23  25
ATOM     25  O   UNL     1      -0.104   3.798  -0.667  0.00  0.00    -0.506 OA
ATOM     26  H   UNL     1       0.440   3.419   0.210  0.00  0.00    +0.292 HD
ENDBRANCH  23  25
ENDBRANCH   1  24
BRANCH   9  27
ATOM     27  N   UNL     1      -0.279   6.341   3.950  0.00  0.00    +0.056 N 
ATOM     28  O   UNL     1       0.586   7.141   4.261  0.00  0.00    -0.126 OA
ATOM     29  O   UNL     1      -1.405   6.457   4.398  0.00  0.00    -0.126 OA
ENDBRANCH   9  27
TORSDOF 3
