REMARK  Name = ZINC38975458
REMARK  7 active torsions:
REMARK  status: ('A' for Active; 'I' for Inactive)
REMARK    1  A    between atoms: C_1  and  C_2
REMARK    2  A    between atoms: C_2  and  O_3
REMARK    3  A    between atoms: O_3  and  C_4
REMARK    4  A    between atoms: C_7  and  C_10
REMARK    5  A    between atoms: N_16  and  N_17
REMARK    6  A    between atoms: C_18  and  C_19
REMARK    7  A    between atoms: C_24  and  O_25
REMARK                            x       y       z     vdW  Elec       q    Type
REMARK                         _______ _______ _______ _____ _____    ______ ____
ROOT
ATOM      1  C   UNL     1       1.119  -6.054  -1.844  0.00  0.00    +0.264 C 
ATOM      2  N   UNL     1      -0.066  -6.730  -1.294  0.00  0.00    -0.189 NA
ATOM      3  N   UNL     1      -0.636  -7.317  -2.217  0.00  0.00    -0.219 N 
ATOM      4  C   UNL     1      -0.016  -7.164  -3.418  0.00  0.00    +0.174 C 
ATOM      5  S   UNL     1      -0.553  -7.849  -4.893  0.00  0.00    -0.015 S 
ATOM      6  N   UNL     1       1.088  -6.393  -3.279  0.00  0.00    -0.172 N 
ATOM      7  H   UNL     1      -1.446  -7.836  -2.098  0.00  0.00    +0.176 HD
ENDROOT
BRANCH   1  11
ATOM      8  C   UNL     1       0.826  -1.827  -1.293  0.00  0.00    +0.121 A 
ATOM      9  C   UNL     1       0.288  -2.689  -0.348  0.00  0.00    +0.046 A 
ATOM     10  C   UNL     1       0.384  -4.056  -0.529  0.00  0.00    +0.011 A 
ATOM     11  C   UNL     1       1.016  -4.564  -1.649  0.00  0.00    -0.002 A 
ATOM     12  C   UNL     1       1.552  -3.706  -2.592  0.00  0.00    +0.011 A 
ATOM     13  C   UNL     1       1.454  -2.339  -2.419  0.00  0.00    +0.046 A 
BRANCH   8  14
ATOM     14  O   UNL     1       0.732  -0.482  -1.117  0.00  0.00    -0.492 OA
BRANCH  14  16
ATOM     15  C   UNL     1       0.065   1.503   0.088  0.00  0.00    +0.048 C 
ATOM     16  C   UNL     1       0.072  -0.026   0.065  0.00  0.00    +0.225 C 
ENDBRANCH  14  16
ENDBRANCH   8  14
ENDBRANCH   1  11
BRANCH   6  17
ATOM     17  N   UNL     1       1.997  -6.003  -4.272  0.00  0.00    -0.183 NA
ATOM     18  C   UNL     1       1.889  -6.481  -5.475  0.00  0.00    +0.142 C 
BRANCH  18  19
ATOM     19  C   UNL     1       2.908  -6.159  -6.489  0.00  0.00    +0.038 A 
ATOM     20  C   UNL     1       2.792  -6.667  -7.786  0.00  0.00    +0.028 A 
ATOM     21  C   UNL     1       3.750  -6.362  -8.731  0.00  0.00    +0.020 A 
ATOM     22  C   UNL     1       4.825  -5.554  -8.401  0.00  0.00    +0.034 A 
ATOM     23  C   UNL     1       4.951  -5.046  -7.120  0.00  0.00    +0.061 A 
ATOM     24  C   UNL     1       3.995  -5.338  -6.160  0.00  0.00    +0.139 A 
ATOM     25 BR   UNL     1       6.424  -3.945  -6.682  0.00  0.00    -0.046 Br
ATOM     26 BR   UNL     1       3.593  -7.049 -10.486  0.00  0.00    -0.050 Br
BRANCH  24  27
ATOM     27  O   UNL     1       4.114  -4.835  -4.904  0.00  0.00    -0.505 OA
ATOM     28  H   UNL     1       4.613  -5.401  -4.299  0.00  0.00    +0.292 HD
ENDBRANCH  24  27
ENDBRANCH  18  19
ENDBRANCH   6  17
TORSDOF 6
