REMARK  Name = ZINC39665422
REMARK  9 active torsions:
REMARK  status: ('A' for Active; 'I' for Inactive)
REMARK    1  A    between atoms: C_1  and  C_2
REMARK    2  A    between atoms: C_3  and  C_8
REMARK    3  A    between atoms: C_4  and  C_7
REMARK    4  A    between atoms: C_12  and  C_21
REMARK    5  A    between atoms: N_23  and  C_24
REMARK    6  A    between atoms: C_24  and  C_25
REMARK    7  A    between atoms: C_25  and  C_27
REMARK    8  A    between atoms: C_25  and  O_28
REMARK    9  A    between atoms: O_28  and  C_29
REMARK                            x       y       z     vdW  Elec       q    Type
REMARK                         _______ _______ _______ _____ _____    ______ ____
ROOT
ATOM      1  C   UNL     1      -0.005  -0.452  -2.540  0.00  0.00    +0.252 C 
ATOM      2  O   UNL     1       1.046  -0.251  -3.117  0.00  0.00    -0.270 OA
ATOM      3  N   UNL     1      -1.174  -0.261  -3.183  0.00  0.00    -0.296 N 
ATOM      4  C   UNL     1      -2.545  -0.445  -2.650  0.00  0.00    +0.121 C 
ATOM      5  C   UNL     1      -3.355   0.729  -3.244  0.00  0.00    +0.100 C 
ATOM      6  C   UNL     1      -2.587   1.135  -4.513  0.00  0.00    -0.004 C 
ATOM      7  C   UNL     1      -1.379   0.188  -4.581  0.00  0.00    +0.115 C 
ATOM      8  C   UNL     1      -3.469   0.957  -5.744  0.00  0.00    -0.010 C 
ATOM      9  C   UNL     1      -2.703   1.421  -6.986  0.00  0.00    -0.082 C 
ATOM     10  N   UNL     1      -2.323   2.830  -6.831  0.00  0.00    +0.379 N 
ATOM     11  C   UNL     1      -1.400   2.978  -5.699  0.00  0.00    -0.082 C 
ATOM     12  C   UNL     1      -2.111   2.580  -4.403  0.00  0.00    -0.010 C 
ATOM     13  H   UNL     1      -1.873   3.151  -7.675  0.00  0.00    -0.086 HD
ATOM     14  H   UNL     1      -3.150   3.384  -6.664  0.00  0.00    -0.086 HD
ENDROOT
BRANCH   1  17
ATOM     15  C   UNL     1      -0.034   1.452   0.079  0.00  0.00    +0.070 C 
ATOM     16  C   UNL     1      -0.015  -0.055   0.055  0.00  0.00    +0.093 A 
ATOM     17  C   UNL     1      -0.002  -0.905  -1.137  0.00  0.00    +0.101 A 
ATOM     18  C   UNL     1       0.015  -2.199  -0.699  0.00  0.00    +0.147 A 
ATOM     19  O   UNL     1       0.012  -2.183   0.636  0.00  0.00    -0.359 OA
ATOM     20  N   UNL     1      -0.001  -0.844   1.088  0.00  0.00    -0.083 NA
ATOM     21  C   UNL     1       0.032  -3.428  -1.570  0.00  0.00    +0.090 C 
ENDBRANCH   1  17
BRANCH   5  22
ATOM     22  C   UNL     1      -4.750   0.279  -3.594  0.00  0.00    +0.218 C 
ATOM     23  O   UNL     1      -4.940  -0.847  -4.000  0.00  0.00    -0.275 OA
ATOM     24  N   UNL     1      -5.787   1.129  -3.455  0.00  0.00    -0.312 N 
ATOM     25  H   UNL     1      -5.635   2.031  -3.130  0.00  0.00    +0.149 HD
BRANCH  24  26
ATOM     26  C   UNL     1      -7.143   0.692  -3.796  0.00  0.00    +0.148 C 
BRANCH  26  27
ATOM     27  C   UNL     1      -8.126   1.839  -3.550  0.00  0.00    +0.187 C 
ATOM     28  C   UNL     1      -9.542   1.383  -3.905  0.00  0.00    +0.053 C 
BRANCH  27  29
ATOM     29  O   UNL     1      -8.079   2.219  -2.173  0.00  0.00    -0.488 OA
BRANCH  29  30
ATOM     30  C   UNL     1      -8.451   3.491  -1.871  0.00  0.00    +0.121 A 
ATOM     31  C   UNL     1      -8.316   3.965  -0.574  0.00  0.00    +0.045 A 
ATOM     32  C   UNL     1      -8.695   5.258  -0.270  0.00  0.00    +0.004 A 
ATOM     33  C   UNL     1      -9.209   6.080  -1.256  0.00  0.00    +0.000 A 
ATOM     34  C   UNL     1      -9.345   5.609  -2.549  0.00  0.00    +0.004 A 
ATOM     35  C   UNL     1      -8.962   4.319  -2.860  0.00  0.00    +0.045 A 
ENDBRANCH  29  30
ENDBRANCH  27  29
ENDBRANCH  26  27
ENDBRANCH  24  26
ENDBRANCH   5  22
TORSDOF 6
