REMARK  Name = ZINC23044111
REMARK  11 active torsions:
REMARK  status: ('A' for Active; 'I' for Inactive)
REMARK    1  A    between atoms: C_1  and  C_2
REMARK    2  A    between atoms: C_2  and  C_3
REMARK    3  A    between atoms: C_3  and  N_4
REMARK    4  A    between atoms: C_8  and  S_27
REMARK    5  A    between atoms: C_12  and  S_13
REMARK    6  A    between atoms: S_13  and  C_14
REMARK    7  A    between atoms: C_14  and  C_15
REMARK    8  A    between atoms: N_17  and  C_18
REMARK    9  A    between atoms: C_19  and  C_26
REMARK   10  A    between atoms: C_21  and  C_25
REMARK   11  A    between atoms: S_27  and  N_30
REMARK                            x       y       z     vdW  Elec       q    Type
REMARK                         _______ _______ _______ _____ _____    ______ ____
ROOT
ATOM      1  N   UNL     1      -7.387   1.326  -2.169  0.00  0.00    -0.319 N 
ATOM      2  C   UNL     1      -6.279   1.617  -1.389  0.00  0.00    +0.070 A 
ATOM      3  C   UNL     1      -6.021   2.552  -0.398  0.00  0.00    +0.030 A 
ATOM      4  C   UNL     1      -4.780   2.588   0.205  0.00  0.00    +0.030 A 
ATOM      5  C   UNL     1      -3.789   1.695  -0.174  0.00  0.00    +0.107 A 
ATOM      6  C   UNL     1      -4.026   0.764  -1.160  0.00  0.00    +0.058 A 
ATOM      7  C   UNL     1      -5.279   0.711  -1.777  0.00  0.00    +0.092 A 
ATOM      8  N   UNL     1      -5.806  -0.075  -2.752  0.00  0.00    -0.222 NA
ATOM      9  C   UNL     1      -7.045   0.284  -2.985  0.00  0.00    +0.170 A 
ENDROOT
BRANCH   5  10
ATOM     10  S   UNL     1      -2.211   1.758   0.609  0.00  0.00    +0.056 S 
ATOM     11  O   UNL     1      -2.061   3.077   1.115  0.00  0.00    -0.153 OA
ATOM     12  O   UNL     1      -1.284   1.180  -0.300  0.00  0.00    -0.153 OA
BRANCH  10  13
ATOM     13  N   UNL     1      -2.276   0.751   1.922  0.00  0.00    -0.204 NA
ATOM     14  H   UNL     1      -1.306   0.762   2.440  0.00  0.00    +0.144 HD
ATOM     15  H   UNL     1      -2.502  -0.273   1.589  0.00  0.00    +0.144 HD
ENDBRANCH  10  13
ENDBRANCH   5  10
BRANCH   1  16
ATOM     16  C   UNL     1      -8.683   2.007  -2.127  0.00  0.00    +0.124 C 
BRANCH  16  18
ATOM     17  C   UNL     1     -10.030   3.889  -3.067  0.00  0.00    +0.005 C 
ATOM     18  C   UNL     1      -8.677   3.178  -3.111  0.00  0.00    +0.018 C 
ENDBRANCH  16  18
ENDBRANCH   1  16
BRANCH   9  19
ATOM     19  S   UNL     1      -8.110  -0.465  -4.171  0.00  0.00    -0.078 S 
BRANCH  19  20
ATOM     20  C   UNL     1      -6.998  -1.726  -4.840  0.00  0.00    +0.173 C 
BRANCH  20  21
ATOM     21  C   UNL     1      -7.715  -2.515  -5.905  0.00  0.00    +0.228 C 
ATOM     22  O   UNL     1      -8.866  -2.251  -6.184  0.00  0.00    -0.275 OA
ATOM     23  N   UNL     1      -7.079  -3.515  -6.547  0.00  0.00    -0.283 N 
ATOM     24  H   UNL     1      -6.012  -3.701  -6.354  0.00  0.00    +0.155 HD
BRANCH  23  25
ATOM     25  C   UNL     1      -7.776  -4.316  -7.459  0.00  0.00    +0.055 A 
ATOM     26  C   UNL     1      -7.762  -4.003  -8.812  0.00  0.00    -0.028 A 
ATOM     27  C   UNL     1      -8.450  -4.796  -9.710  0.00  0.00    +0.008 A 
ATOM     28  C   UNL     1      -9.153  -5.900  -9.264  0.00  0.00    -0.049 A 
ATOM     29  C   UNL     1      -9.169  -6.215  -7.917  0.00  0.00    +0.025 A 
ATOM     30  C   UNL     1      -8.478  -5.429  -7.014  0.00  0.00    +0.063 A 
ATOM     31 CL   UNL     1      -8.493  -5.829  -5.325  0.00  0.00    -0.082 Cl
ATOM     32  C   UNL     1      -9.903  -6.761 -10.246  0.00  0.00    +0.044 C 
ATOM     33  C   UNL     1      -6.997  -2.800  -9.300  0.00  0.00    +0.046 C 
ENDBRANCH  23  25
ENDBRANCH  20  21
ENDBRANCH  19  20
ENDBRANCH   9  19
TORSDOF 8
