REMARK  Name = ZINC34750094
REMARK  9 active torsions:
REMARK  status: ('A' for Active; 'I' for Inactive)
REMARK    1  A    between atoms: C_1  and  C_2
REMARK    2  A    between atoms: C_2  and  C_3
REMARK    3  A    between atoms: C_2  and  C_4
REMARK    4  A    between atoms: C_4  and  N_5
REMARK    5  A    between atoms: C_18  and  S_20
REMARK    6  A    between atoms: S_20  and  C_21
REMARK    7  A    between atoms: C_21  and  C_22
REMARK    8  A    between atoms: C_31  and  C_33
REMARK    9  A    between atoms: C_31  and  C_34
REMARK                            x       y       z     vdW  Elec       q    Type
REMARK                         _______ _______ _______ _____ _____    ______ ____
ROOT
ATOM      1  N   UNL     1       2.559   0.621  -0.160  0.00  0.00    +0.382 N 
ATOM      2  C   UNL     1       3.842   1.286   0.104  0.00  0.00    -0.060 C 
ATOM      3  C   UNL     1       4.802   1.021  -1.060  0.00  0.00    +0.088 C 
ATOM      4  N   UNL     1       4.902  -0.433  -1.260  0.00  0.00    -0.318 N 
ATOM      5  C   UNL     1       3.654  -1.204  -1.372  0.00  0.00    +0.088 C 
ATOM      6  C   UNL     1       2.748  -0.835  -0.193  0.00  0.00    -0.060 C 
ATOM      7  C   UNL     1       6.133  -1.057  -1.343  0.00  0.00    +0.134 A 
ATOM      8  C   UNL     1       6.724  -1.317  -2.611  0.00  0.00    +0.051 A 
ATOM      9  C   UNL     1       6.206  -1.014  -3.944  0.00  0.00    -0.020 A 
ATOM     10  C   UNL     1       6.972  -1.369  -4.998  0.00  0.00    +0.021 A 
ATOM     11  S   UNL     1       8.411  -2.119  -4.290  0.00  0.00    -0.071 S 
ATOM     12  C   UNL     1       7.981  -1.956  -2.576  0.00  0.00    +0.115 A 
ATOM     13  N   UNL     1       8.557  -2.285  -1.436  0.00  0.00    -0.215 NA
ATOM     14  C   UNL     1       7.958  -2.018  -0.283  0.00  0.00    +0.191 A 
ATOM     15  N   UNL     1       6.777  -1.413  -0.244  0.00  0.00    -0.206 NA
ATOM     16  C   UNL     1       6.642  -1.161  -6.443  0.00  0.00    +0.203 C 
ATOM     17  O   UNL     1       5.251  -0.814  -6.534  0.00  0.00    -0.368 OA
ATOM     18  C   UNL     1       4.859   0.214  -5.620  0.00  0.00    +0.068 C 
ATOM     19  C   UNL     1       4.864  -0.326  -4.187  0.00  0.00    +0.071 C 
ATOM     20  C   UNL     1       5.838   1.385  -5.725  0.00  0.00    +0.041 C 
ATOM     21  C   UNL     1       3.452   0.698  -5.975  0.00  0.00    +0.041 C 
ATOM     22  H   UNL     1       2.199   0.933  -1.049  0.00  0.00    -0.082 HD
ENDROOT
BRANCH   1  23
ATOM     23  C   UNL     1       1.604   0.966   0.901  0.00  0.00    -0.076 C 
BRANCH  23  25
ATOM     24  C   UNL     1       0.600   2.809  -0.454  0.00  0.00    +0.005 C 
ATOM     25  C   UNL     1       1.311   2.466   0.857  0.00  0.00    -0.034 C 
ATOM     26  C   UNL     1       0.414   2.846   2.037  0.00  0.00    +0.005 C 
ENDBRANCH  23  25
ENDBRANCH   1  23
BRANCH  14  27
ATOM     27  S   UNL     1       8.749  -2.468   1.226  0.00  0.00    -0.081 S 
BRANCH  27  28
ATOM     28  C   UNL     1      10.302  -3.240   0.695  0.00  0.00    +0.114 C 
BRANCH  28  29
ATOM     29  C   UNL     1      11.086  -3.677   1.906  0.00  0.00    -0.019 A 
ATOM     30  C   UNL     1      11.983  -2.809   2.499  0.00  0.00    +0.006 A 
ATOM     31  C   UNL     1      12.702  -3.210   3.609  0.00  0.00    +0.000 A 
ATOM     32  C   UNL     1      12.524  -4.480   4.127  0.00  0.00    +0.001 A 
ATOM     33  C   UNL     1      11.627  -5.348   3.535  0.00  0.00    +0.020 A 
ATOM     34  C   UNL     1      10.903  -4.946   2.427  0.00  0.00    +0.045 A 
ATOM     35 CL   UNL     1       9.772  -6.034   1.686  0.00  0.00    -0.083 Cl
ENDBRANCH  28  29
ENDBRANCH  27  28
ENDBRANCH  14  27
TORSDOF 5
