REMARK  Name = ZINC39664745
REMARK  9 active torsions:
REMARK  status: ('A' for Active; 'I' for Inactive)
REMARK    1  A    between atoms: C_1  and  C_2
REMARK    2  A    between atoms: C_5  and  C_10
REMARK    3  A    between atoms: C_14  and  C_23
REMARK    4  A    between atoms: N_25  and  C_26
REMARK    5  A    between atoms: C_26  and  C_28
REMARK    6  A    between atoms: C_26  and  C_32
REMARK    7  A    between atoms: C_28  and  N_29
REMARK    8  A    between atoms: N_29  and  C_30
REMARK    9  A    between atoms: N_29  and  C_31
REMARK                            x       y       z     vdW  Elec       q    Type
REMARK                         _______ _______ _______ _____ _____    ______ ____
ROOT
ATOM      1  C   UNL     1       1.170  -3.703  -0.503  0.00  0.00    +0.250 C 
ATOM      2  O   UNL     1       1.086  -4.097   0.644  0.00  0.00    -0.270 OA
ATOM      3  N   UNL     1       0.649  -4.436  -1.507  0.00  0.00    -0.296 N 
ATOM      4  C   UNL     1       0.746  -4.179  -2.963  0.00  0.00    +0.121 C 
ATOM      5  C   UNL     1       0.943  -5.576  -3.594  0.00  0.00    +0.100 C 
ATOM      6  C   UNL     1       0.352  -6.557  -2.567  0.00  0.00    -0.004 C 
ATOM      7  C   UNL     1      -0.144  -5.685  -1.405  0.00  0.00    +0.115 C 
ATOM      8  C   UNL     1      -0.811  -7.329  -3.182  0.00  0.00    -0.010 C 
ATOM      9  C   UNL     1      -1.344  -8.339  -2.162  0.00  0.00    -0.082 C 
ATOM     10  N   UNL     1      -0.270  -9.260  -1.774  0.00  0.00    +0.379 N 
ATOM     11  C   UNL     1       0.804  -8.521  -1.099  0.00  0.00    -0.082 C 
ATOM     12  C   UNL     1       1.429  -7.519  -2.075  0.00  0.00    -0.010 C 
ATOM     13  H   UNL     1      -0.638  -9.961  -1.149  0.00  0.00    -0.086 HD
ATOM     14  H   UNL     1       0.100  -9.710  -2.599  0.00  0.00    -0.086 HD
ENDROOT
BRANCH   1  19
ATOM     15  C   UNL     1       3.788   1.294  -1.649  0.00  0.00    +0.047 C 
ATOM     16  C   UNL     1       3.105  -0.015  -1.348  0.00  0.00    -0.012 A 
ATOM     17  C   UNL     1       1.994  -0.397  -2.081  0.00  0.00    +0.007 A 
ATOM     18  C   UNL     1       1.362  -1.592  -1.811  0.00  0.00    +0.016 A 
ATOM     19  C   UNL     1       1.844  -2.422  -0.796  0.00  0.00    +0.075 A 
ATOM     20  C   UNL     1       2.966  -2.034  -0.059  0.00  0.00    +0.171 A 
ATOM     21  C   UNL     1       3.594  -0.832  -0.344  0.00  0.00    +0.162 A 
ATOM     22  F   UNL     1       4.682  -0.455   0.363  0.00  0.00    -0.202 F 
ATOM     23  F   UNL     1       3.438  -2.829   0.926  0.00  0.00    -0.202 F 
ENDBRANCH   1  19
BRANCH   5  24
ATOM     24  C   UNL     1       0.200  -5.671  -4.902  0.00  0.00    +0.219 C 
ATOM     25  O   UNL     1       0.745  -6.144  -5.876  0.00  0.00    -0.275 OA
ATOM     26  N   UNL     1      -1.071  -5.231  -4.988  0.00  0.00    -0.310 N 
ATOM     27  H   UNL     1      -1.530  -4.914  -4.194  0.00  0.00    +0.149 HD
BRANCH  26  28
ATOM     28  C   UNL     1      -1.759  -5.229  -6.282  0.00  0.00    +0.087 C 
BRANCH  28  29
ATOM     29  C   UNL     1      -3.249  -5.244  -6.058  0.00  0.00    -0.029 A 
ATOM     30  C   UNL     1      -3.804  -4.481  -5.047  0.00  0.00    +0.005 A 
ATOM     31  C   UNL     1      -5.171  -4.495  -4.841  0.00  0.00    +0.000 A 
ATOM     32  C   UNL     1      -5.983  -5.271  -5.647  0.00  0.00    +0.000 A 
ATOM     33  C   UNL     1      -5.428  -6.033  -6.659  0.00  0.00    +0.000 A 
ATOM     34  C   UNL     1      -4.062  -6.016  -6.867  0.00  0.00    +0.005 A 
ENDBRANCH  28  29
BRANCH  28  35
ATOM     35  C   UNL     1      -1.373  -3.971  -7.063  0.00  0.00    -0.052 C 
BRANCH  35  36
ATOM     36  N   UNL     1      -1.954  -4.035  -8.411  0.00  0.00    +0.377 N 
ATOM     37  C   UNL     1      -1.694  -2.772  -9.116  0.00  0.00    -0.097 C 
ATOM     38  C   UNL     1      -1.345  -5.145  -9.154  0.00  0.00    -0.097 C 
ATOM     39  H   UNL     1      -2.950  -4.182  -8.341  0.00  0.00    -0.083 HD
ENDBRANCH  35  36
ENDBRANCH  28  35
ENDBRANCH  26  28
ENDBRANCH   5  24
TORSDOF 6
