REMARK  Name = ZINC13064202
REMARK  14 active torsions:
REMARK  status: ('A' for Active; 'I' for Inactive)
REMARK    1  A    between atoms: C_1  and  C_2
REMARK    2  A    between atoms: C_2  and  C_3
REMARK    3  A    between atoms: C_3  and  C_5
REMARK    4  A    between atoms: C_3  and  N_73
REMARK    5  A    between atoms: N_9  and  C_10
REMARK    6  A    between atoms: C_10  and  C_11
REMARK    7  A    between atoms: C_11  and  C_12
REMARK    8  A    between atoms: C_18  and  C_19
REMARK    9  A    between atoms: C_18  and  N_73
REMARK   10  A    between atoms: C_19  and  C_20
REMARK   11  A    between atoms: C_26  and  C_27
REMARK   12  A    between atoms: C_26  and  N_73
REMARK   13  A    between atoms: C_31  and  O_39
REMARK   14  A    between atoms: O_39  and  C_40
REMARK                            x       y       z     vdW  Elec       q    Type
REMARK                         _______ _______ _______ _____ _____    ______ ____
ROOT
ATOM      1  N   UNL     1       3.943  -0.207  -1.158  0.00  0.00    +0.389 N 
ATOM      2  H   UNL     1       3.687   0.015  -2.127  0.00  0.00    -0.080 HD
ENDROOT
BRANCH   1   3
ATOM      3  C   UNL     1       3.374   0.822  -0.263  0.00  0.00    +0.003 C 
BRANCH   3   4
ATOM      4  C   UNL     1       3.892   0.647   1.141  0.00  0.00    +0.138 A 
ATOM      5  N   UNL     1       5.149   0.582   1.509  0.00  0.00    -0.115 NA
ATOM      6  N   UNL     1       5.181   0.430   2.788  0.00  0.00    -0.023 NA
ATOM      7  N   UNL     1       3.978   0.396   3.246  0.00  0.00    -0.044 NA
ATOM      8  N   UNL     1       3.155   0.526   2.261  0.00  0.00    -0.231 N 
BRANCH   8   9
ATOM      9  C   UNL     1       1.693   0.540   2.346  0.00  0.00    +0.152 C 
BRANCH   9  10
ATOM     10  C   UNL     1       1.207   1.977   2.545  0.00  0.00    +0.058 C 
BRANCH  10  11
ATOM     11  C   UNL     1      -0.298   1.991   2.632  0.00  0.00    -0.046 A 
ATOM     12  C   UNL     1      -1.055   2.145   1.486  0.00  0.00    +0.004 A 
ATOM     13  C   UNL     1      -2.435   2.152   1.565  0.00  0.00    +0.000 A 
ATOM     14  C   UNL     1      -3.058   2.017   2.792  0.00  0.00    +0.000 A 
ATOM     15  C   UNL     1      -2.300   1.869   3.938  0.00  0.00    +0.000 A 
ATOM     16  C   UNL     1      -0.920   1.856   3.859  0.00  0.00    +0.004 A 
ENDBRANCH  10  11
ENDBRANCH   9  10
ENDBRANCH   8   9
ENDBRANCH   3   4
BRANCH   3  18
ATOM     17  C   UNL     1       3.134   2.435  -2.156  0.00  0.00    +0.002 C 
ATOM     18  C   UNL     1       3.771   2.205  -0.784  0.00  0.00    -0.011 C 
ENDBRANCH   3  18
ENDBRANCH   1   3
BRANCH   1  19
ATOM     19  C   UNL     1       3.400  -1.536  -0.810  0.00  0.00    -0.073 C 
BRANCH  19  20
ATOM     20  C   UNL     1       1.922  -1.583  -1.204  0.00  0.00    +0.016 C 
BRANCH  20  21
ATOM     21  C   UNL     1       1.342  -2.920  -0.819  0.00  0.00    -0.049 A 
ATOM     22  C   UNL     1       1.455  -3.995  -1.680  0.00  0.00    +0.003 A 
ATOM     23  C   UNL     1       0.926  -5.223  -1.326  0.00  0.00    +0.000 A 
ATOM     24  C   UNL     1       0.277  -5.372  -0.115  0.00  0.00    +0.000 A 
ATOM     25  C   UNL     1       0.159  -4.295   0.744  0.00  0.00    +0.000 A 
ATOM     26  C   UNL     1       0.692  -3.069   0.392  0.00  0.00    +0.003 A 
ENDBRANCH  20  21
ENDBRANCH  19  20
ENDBRANCH   1  19
BRANCH   1  27
ATOM     27  C   UNL     1       5.417  -0.217  -1.042  0.00  0.00    -0.037 C 
BRANCH  27  28
ATOM     28  C   UNL     1       5.988  -1.000  -2.197  0.00  0.00    +0.001 A 
ATOM     29  C   UNL     1       6.372  -0.354  -3.326  0.00  0.00    +0.017 A 
ATOM     30  C   UNL     1       6.923  -1.143  -4.429  0.00  0.00    +0.002 A 
ATOM     31  C   UNL     1       7.336  -0.531  -5.618  0.00  0.00    +0.055 A 
ATOM     32  C   UNL     1       7.851  -1.304  -6.638  0.00  0.00    +0.121 A 
ATOM     33  C   UNL     1       7.960  -2.685  -6.489  0.00  0.00    +0.047 A 
ATOM     34  C   UNL     1       7.557  -3.299  -5.323  0.00  0.00    +0.030 A 
ATOM     35  C   UNL     1       7.035  -2.538  -4.282  0.00  0.00    +0.049 A 
ATOM     36  N   UNL     1       6.625  -3.134  -3.107  0.00  0.00    -0.322 N 
ATOM     37  H   UNL     1       6.703  -4.096  -3.006  0.00  0.00    +0.169 HD
ATOM     38  C   UNL     1       6.126  -2.401  -2.097  0.00  0.00    +0.251 A 
ATOM     39  O   UNL     1       5.779  -2.960  -1.071  0.00  0.00    -0.268 OA
BRANCH  32  40
ATOM     40  O   UNL     1       8.254  -0.716  -7.796  0.00  0.00    -0.495 OA
ATOM     41  C   UNL     1       8.778  -1.573  -8.812  0.00  0.00    +0.277 C 
ENDBRANCH  32  40
ENDBRANCH  27  28
ENDBRANCH   1  27
TORSDOF 12
