REMARK  Name = ZINC32944584
REMARK  14 active torsions:
REMARK  status: ('A' for Active; 'I' for Inactive)
REMARK    1  A    between atoms: C_1  and  C_2
REMARK    2  A    between atoms: C_2  and  C_3
REMARK    3  A    between atoms: C_2  and  C_4
REMARK    4  A    between atoms: C_4  and  C_5
REMARK    5  A    between atoms: C_5  and  N_6
REMARK    6  A    between atoms: C_12  and  C_31
REMARK    7  A    between atoms: C_16  and  S_17
REMARK    8  A    between atoms: S_17  and  C_18
REMARK    9  A    between atoms: C_18  and  C_19
REMARK   10  A    between atoms: C_19  and  C_21
REMARK   11  A    between atoms: N_33  and  C_34
REMARK   12  A    between atoms: C_34  and  C_35
REMARK   13  A    between atoms: C_35  and  O_36
REMARK   14  A    between atoms: O_36  and  C_37
REMARK                            x       y       z     vdW  Elec       q    Type
REMARK                         _______ _______ _______ _____ _____    ______ ____
ROOT
ATOM      1  N   UNL     1      -7.239  -0.588   0.031  0.00  0.00    -0.287 N 
ATOM      2  C   UNL     1      -6.099  -1.317   0.022  0.00  0.00    +0.262 A 
ATOM      3  O   UNL     1      -6.128  -2.534   0.016  0.00  0.00    -0.267 OA
ATOM      4  C   UNL     1      -4.822  -0.585   0.021  0.00  0.00    +0.065 A 
ATOM      5  C   UNL     1      -3.597  -1.250   0.012  0.00  0.00    +0.016 A 
ATOM      6  C   UNL     1      -2.434  -0.534   0.005  0.00  0.00    +0.014 A 
ATOM      7  C   UNL     1      -2.459   0.866   0.018  0.00  0.00    +0.039 A 
ATOM      8  C   UNL     1      -3.668   1.549   0.028  0.00  0.00    +0.041 A 
ATOM      9  C   UNL     1      -4.865   0.827   0.029  0.00  0.00    +0.080 A 
ATOM     10  N   UNL     1      -6.067   1.451   0.038  0.00  0.00    -0.223 NA
ATOM     11  C   UNL     1      -7.190   0.776   0.039  0.00  0.00    +0.173 A 
ENDROOT
BRANCH   7  12
ATOM     12  C   UNL     1      -1.187   1.624   0.017  0.00  0.00    +0.244 C 
ATOM     13  O   UNL     1      -1.204   2.839   0.023  0.00  0.00    -0.270 OA
ATOM     14  N   UNL     1      -0.011   0.966   0.007  0.00  0.00    -0.309 N 
ATOM     15  H   UNL     1       0.004  -0.134   0.006  0.00  0.00    +0.149 HD
BRANCH  14  16
ATOM     16  C   UNL     1       1.248   1.716  -0.001  0.00  0.00    +0.132 C 
BRANCH  16  17
ATOM     17  C   UNL     1       2.424   0.737  -0.017  0.00  0.00    +0.178 C 
BRANCH  17  18
ATOM     18  O   UNL     1       2.414   0.001  -1.242  0.00  0.00    -0.381 OA
ATOM     19  C   UNL     1       3.478  -0.946  -1.360  0.00  0.00    +0.194 C 
ENDBRANCH  17  18
ENDBRANCH  16  17
ENDBRANCH  14  16
ENDBRANCH   7  12
BRANCH   1  20
ATOM     20  C   UNL     1      -8.536  -1.269   0.034  0.00  0.00    +0.127 C 
BRANCH  20  21
ATOM     21  C   UNL     1      -8.995  -1.498  -1.408  0.00  0.00    +0.025 C 
BRANCH  21  23
ATOM     22  C   UNL     1     -11.406  -1.291  -0.785  0.00  0.00    +0.007 C 
ATOM     23  C   UNL     1     -10.350  -2.208  -1.405  0.00  0.00    -0.016 C 
ATOM     24  C   UNL     1     -10.750  -2.549  -2.842  0.00  0.00    +0.007 C 
ENDBRANCH  21  23
ENDBRANCH  20  21
ENDBRANCH   1  20
BRANCH  11  25
ATOM     25  S   UNL     1      -8.708   1.671   0.050  0.00  0.00    -0.080 S 
BRANCH  25  26
ATOM     26  C   UNL     1      -8.073   3.366   0.057  0.00  0.00    +0.157 C 
BRANCH  26  27
ATOM     27  C   UNL     1      -9.227   4.335   0.068  0.00  0.00    +0.175 C 
ATOM     28  O   UNL     1     -10.368   3.920   0.070  0.00  0.00    -0.291 OA
BRANCH  27  29
ATOM     29  C   UNL     1      -8.981   5.731   0.074  0.00  0.00    +0.043 A 
ATOM     30  C   UNL     1      -7.752   6.355   0.079  0.00  0.00    +0.095 A 
ATOM     31  N   UNL     1      -7.923   7.691   0.082  0.00  0.00    -0.360 N 
ATOM     32  H   UNL     1      -7.047   8.357   0.079  0.00  0.00    +0.165 HD
ATOM     33  C   UNL     1      -9.265   8.011   0.089  0.00  0.00    +0.047 A 
ATOM     34  C   UNL     1      -9.990   6.809   0.085  0.00  0.00    +0.010 A 
ATOM     35  C   UNL     1     -11.381   6.831   0.090  0.00  0.00    +0.011 A 
ATOM     36  C   UNL     1     -12.044   8.039   0.099  0.00  0.00    +0.001 A 
ATOM     37  C   UNL     1     -11.331   9.228   0.104  0.00  0.00    +0.002 A 
ATOM     38  C   UNL     1      -9.952   9.220   0.099  0.00  0.00    +0.026 A 
ENDBRANCH  27  29
ENDBRANCH  26  27
ENDBRANCH  25  26
ENDBRANCH  11  25
TORSDOF 11
