REMARK  Name = ZINC08964821
REMARK  8 active torsions:
REMARK  status: ('A' for Active; 'I' for Inactive)
REMARK    1  A    between atoms: C_1  and  C_2
REMARK    2  A    between atoms: C_6  and  C_33
REMARK    3  A    between atoms: C_6  and  O_34
REMARK    4  A    between atoms: C_7  and  O_32
REMARK    5  A    between atoms: C_17  and  C_19
REMARK    6  A    between atoms: C_19  and  N_70
REMARK    7  A    between atoms: N_22  and  C_25
REMARK    8  A    between atoms: O_34  and  C_35
REMARK                            x       y       z     vdW  Elec       q    Type
REMARK                         _______ _______ _______ _____ _____    ______ ____
ROOT
ATOM      1  C   UNL     1       2.321   2.170  -2.023  0.00  0.00    +0.014 C 
ATOM      2  C   UNL     1       3.186   0.960  -1.674  0.00  0.00    +0.003 C 
ATOM      3  C   UNL     1       4.482   1.009  -2.492  0.00  0.00    +0.010 C 
ATOM      4  C   UNL     1       4.174   0.793  -3.971  0.00  0.00    +0.003 C 
ATOM      5  C   UNL     1       3.545  -0.581  -4.177  0.00  0.00    +0.037 C 
ATOM      6  C   UNL     1       2.266  -0.739  -3.357  0.00  0.00    +0.095 C 
ATOM      7  C   UNL     1       2.487  -0.375  -1.900  0.00  0.00    +0.100 C 
ATOM      8  C   UNL     1       1.177  -0.400  -1.115  0.00  0.00    +0.046 C 
ATOM      9  C   UNL     1       1.475  -0.341   0.387  0.00  0.00    +0.044 C 
ATOM     10  C   UNL     1       2.384   0.848   0.734  0.00  0.00    +0.181 C 
ATOM     11  C   UNL     1       3.561   1.037  -0.186  0.00  0.00    +0.054 C 
ATOM     12  O   UNL     1       1.513   2.002   0.827  0.00  0.00    -0.461 OA
ATOM     13  C   UNL     1       0.246   1.620   1.072  0.00  0.00    +0.309 C 
ATOM     14  O   UNL     1      -0.688   2.371   1.252  0.00  0.00    -0.251 OA
ATOM     15  C   UNL     1       0.156   0.107   1.082  0.00  0.00    +0.088 C 
ATOM     16  C   UNL     1       1.126   0.042  -4.004  0.00  0.00    +0.044 C 
ENDROOT
BRANCH   7  17
ATOM     17  O   UNL     1       3.333  -1.407  -1.330  0.00  0.00    -0.385 OA
ATOM     18  H   UNL     1       2.977  -2.302  -1.421  0.00  0.00    +0.210 HD
ENDBRANCH   7  17
BRANCH   6  19
ATOM     19  O   UNL     1       1.905  -2.139  -3.407  0.00  0.00    -0.374 OA
ATOM     20  C   UNL     1       1.664  -2.631  -4.727  0.00  0.00    +0.194 C 
ENDBRANCH   6  19
BRANCH  15  21
ATOM     21  C   UNL     1       0.092  -0.421   2.516  0.00  0.00    -0.064 C 
BRANCH  21  27
ATOM     22  C   UNL     1      -1.051  -0.037   4.617  0.00  0.00    -0.060 C 
ATOM     23  C   UNL     1      -2.330   0.525   5.242  0.00  0.00    +0.086 C 
ATOM     24  N   UNL     1      -3.487  -0.238   4.754  0.00  0.00    -0.333 N 
ATOM     25  C   UNL     1      -3.585  -0.161   3.289  0.00  0.00    +0.086 C 
ATOM     26  C   UNL     1      -2.306  -0.723   2.664  0.00  0.00    -0.060 C 
ATOM     27  N   UNL     1      -1.154   0.067   3.146  0.00  0.00    +0.382 N 
ATOM     28  H   UNL     1      -1.293   1.052   2.890  0.00  0.00    -0.082 HD
BRANCH  24  29
ATOM     29  C   UNL     1      -4.667   0.201   5.359  0.00  0.00    +0.031 A 
ATOM     30  C   UNL     1      -4.779   0.207   6.744  0.00  0.00    +0.023 A 
ATOM     31  C   UNL     1      -5.946   0.641   7.339  0.00  0.00    +0.003 A 
ATOM     32  C   UNL     1      -7.005   1.070   6.559  0.00  0.00    +0.020 A 
ATOM     33  C   UNL     1      -6.897   1.065   5.179  0.00  0.00    +0.043 A 
ATOM     34  C   UNL     1      -5.729   0.637   4.577  0.00  0.00    +0.043 A 
ATOM     35 CL   UNL     1      -8.228   1.604   4.204  0.00  0.00    -0.083 Cl
ENDBRANCH  24  29
ENDBRANCH  21  27
ENDBRANCH  15  21
TORSDOF 5
