REMARK  Name = ZINC22793390
REMARK  6 active torsions:
REMARK  status: ('A' for Active; 'I' for Inactive)
REMARK    1  A    between atoms: C_1  and  C_2
REMARK    2  A    between atoms: C_2  and  C_4
REMARK    3  A    between atoms: C_2  and  N_21
REMARK    4  A    between atoms: C_10  and  C_15
REMARK    5  A    between atoms: N_24  and  C_27
REMARK    6  A    between atoms: C_27  and  C_28
REMARK                            x       y       z     vdW  Elec       q    Type
REMARK                         _______ _______ _______ _____ _____    ______ ____
ROOT
ATOM      1  C   UNL     1       8.724  -4.569  -1.281  0.00  0.00    -0.005 C 
ATOM      2  C   UNL     1       9.054  -3.114  -0.940  0.00  0.00    -0.004 C 
ENDROOT
BRANCH   2   3
ATOM      3  C   UNL     1       8.865  -2.256  -2.164  0.00  0.00    +0.097 A 
ATOM      4  N   UNL     1       9.491  -2.596  -3.320  0.00  0.00    -0.312 N 
ATOM      5  H   UNL     1      10.130  -3.490  -3.358  0.00  0.00    +0.170 HD
ATOM      6  C   UNL     1       9.348  -1.857  -4.436  0.00  0.00    +0.260 A 
ATOM      7  O   UNL     1       9.916  -2.175  -5.466  0.00  0.00    -0.267 OA
ATOM      8  C   UNL     1       8.519  -0.691  -4.394  0.00  0.00    +0.080 A 
ATOM      9  C   UNL     1       8.209   0.260  -5.456  0.00  0.00    +0.004 A 
ATOM     10  C   UNL     1       7.388   1.301  -5.179  0.00  0.00    +0.056 A 
ATOM     11  S   UNL     1       6.981   1.060  -3.460  0.00  0.00    -0.076 S 
ATOM     12  C   UNL     1       7.913  -0.419  -3.157  0.00  0.00    +0.116 A 
ATOM     13  N   UNL     1       8.098  -1.201  -2.097  0.00  0.00    -0.228 NA
BRANCH   9  14
ATOM     14  C   UNL     1       8.783   0.091  -6.812  0.00  0.00    -0.017 A 
ATOM     15  C   UNL     1      10.153  -0.112  -6.972  0.00  0.00    +0.008 A 
ATOM     16  C   UNL     1      10.681  -0.274  -8.236  0.00  0.00    +0.001 A 
ATOM     17  C   UNL     1       9.855  -0.225  -9.345  0.00  0.00    +0.000 A 
ATOM     18  C   UNL     1       8.496  -0.018  -9.193  0.00  0.00    +0.001 A 
ATOM     19  C   UNL     1       7.956   0.140  -7.933  0.00  0.00    +0.008 A 
ENDBRANCH   9  14
ENDBRANCH   2   3
BRANCH   2  20
ATOM     20  N   UNL     1       8.161  -2.647   0.128  0.00  0.00    +0.388 N 
ATOM     21  C   UNL     1       8.533  -1.297   0.573  0.00  0.00    -0.062 C 
ATOM     22  C   UNL     1       7.631  -0.879   1.737  0.00  0.00    +0.066 C 
ATOM     23  N   UNL     1       6.227  -0.920   1.305  0.00  0.00    -0.302 NA
ATOM     24  C   UNL     1       5.855  -2.270   0.860  0.00  0.00    +0.066 C 
ATOM     25  C   UNL     1       6.757  -2.687  -0.304  0.00  0.00    -0.062 C 
ATOM     26  H   UNL     1       8.273  -3.330   0.984  0.00  0.00    -0.081 HD
BRANCH  23  27
ATOM     27  C   UNL     1       5.334  -0.452   2.373  0.00  0.00    +0.119 C 
BRANCH  27  28
ATOM     28  C   UNL     1       3.943  -0.274   1.822  0.00  0.00    -0.030 A 
ATOM     29  C   UNL     1       3.049  -1.328   1.852  0.00  0.00    +0.009 A 
ATOM     30  C   UNL     1       1.771  -1.169   1.347  0.00  0.00    +0.050 A 
ATOM     31  C   UNL     1       1.384   0.049   0.811  0.00  0.00    +0.166 A 
ATOM     32  C   UNL     1       2.285   1.111   0.781  0.00  0.00    +0.167 A 
ATOM     33  C   UNL     1       3.563   0.944   1.289  0.00  0.00    +0.054 A 
ATOM     34  O   UNL     1       1.671   2.188   0.210  0.00  0.00    -0.453 OA
ATOM     35  C   UNL     1       0.261   1.899   0.263  0.00  0.00    +0.466 C 
ATOM     36  O   UNL     1       0.206   0.461   0.258  0.00  0.00    -0.453 OA
ENDBRANCH  27  28
ENDBRANCH  23  27
ENDBRANCH   2  20
TORSDOF 5
