REMARK  Name = ZINC58201795
REMARK  8 active torsions:
REMARK  status: ('A' for Active; 'I' for Inactive)
REMARK    1  A    between atoms: C_1  and  C_2
REMARK    2  A    between atoms: C_4  and  N_7
REMARK    3  A    between atoms: C_8  and  C_10
REMARK    4  A    between atoms: C_10  and  C_12
REMARK    5  A    between atoms: C_10  and  N_13
REMARK    6  A    between atoms: N_13  and  C_14
REMARK    7  A    between atoms: C_14  and  C_15
REMARK    8  A    between atoms: C_15  and  C_21
REMARK                            x       y       z     vdW  Elec       q    Type
REMARK                         _______ _______ _______ _____ _____    ______ ____
ROOT
ATOM      1  N   UNL     1      -0.432  -7.040  -0.745  0.00  0.00    +0.387 N 
ATOM      2  H   UNL     1       0.242  -6.969   0.003  0.00  0.00    -0.085 HD
ATOM      3  H   UNL     1      -1.312  -7.364  -0.374  0.00  0.00    -0.085 HD
ENDROOT
BRANCH   1   4
ATOM      4  C   UNL     1      -0.617  -5.720  -1.363  0.00  0.00    +0.013 C 
ATOM      5  C   UNL     1      -1.728  -5.800  -2.412  0.00  0.00    -0.004 C 
BRANCH   4   7
ATOM      6  N   UNL     1      -1.220  -3.432  -0.641  0.00  0.00    -0.256 N 
ATOM      7  C   UNL     1      -0.997  -4.718  -0.304  0.00  0.00    +0.205 C 
ATOM      8  O   UNL     1      -1.103  -5.068   0.852  0.00  0.00    -0.277 OA
ATOM      9  H   UNL     1      -1.135  -3.152  -1.566  0.00  0.00    +0.158 HD
BRANCH   6  13
ATOM     10  C   UNL     1      -2.485   0.831   1.613  0.00  0.00    +0.069 C 
ATOM     11  C   UNL     1      -2.138  -0.616   1.372  0.00  0.00    +0.082 A 
ATOM     12  C   UNL     1      -1.821  -1.190   0.134  0.00  0.00    +0.092 A 
ATOM     13  C   UNL     1      -1.570  -2.509   0.334  0.00  0.00    +0.224 A 
ATOM     14  O   UNL     1      -1.721  -2.762   1.645  0.00  0.00    -0.339 OA
ATOM     15  N   UNL     1      -2.076  -1.549   2.282  0.00  0.00    -0.081 NA
ENDBRANCH   6  13
ENDBRANCH   4   7
ENDBRANCH   1   4
BRANCH   1  16
ATOM     16  C   UNL     1       0.054  -7.989  -1.754  0.00  0.00    -0.070 C 
BRANCH  16  17
ATOM     17  C   UNL     1       0.373  -9.327  -1.084  0.00  0.00    -0.015 C 
ATOM     18  C   UNL     1       0.737 -10.362  -2.153  0.00  0.00    +0.038 C 
ATOM     19  C   UNL     1      -0.472 -10.589  -3.065  0.00  0.00    +0.160 C 
ATOM     20  O   UNL     1      -1.587 -11.014  -2.280  0.00  0.00    -0.380 OA
ATOM     21  C   UNL     1      -2.002 -10.066  -1.294  0.00  0.00    +0.160 C 
ATOM     22  C   UNL     1      -0.855  -9.819  -0.311  0.00  0.00    +0.038 C 
BRANCH  17  23
ATOM     23  C   UNL     1       1.530  -9.153  -0.135  0.00  0.00    -0.043 A 
ATOM     24  C   UNL     1       2.195  -7.943  -0.071  0.00  0.00    +0.005 A 
ATOM     25  C   UNL     1       3.256  -7.782   0.799  0.00  0.00    +0.020 A 
ATOM     26  C   UNL     1       3.653  -8.832   1.608  0.00  0.00    +0.041 A 
ATOM     27  C   UNL     1       2.986 -10.043   1.544  0.00  0.00    +0.020 A 
ATOM     28  C   UNL     1       1.922 -10.201   0.677  0.00  0.00    +0.005 A 
ATOM     29 CL   UNL     1       4.986  -8.631   2.702  0.00  0.00    -0.084 Cl
ENDBRANCH  17  23
ENDBRANCH  16  17
ENDBRANCH   1  16
TORSDOF 6
