REMARK  Name = ZINC63119433
REMARK  5 active torsions:
REMARK  status: ('A' for Active; 'I' for Inactive)
REMARK    1  A    between atoms: C_1  and  C_2
REMARK    2  A    between atoms: C_2  and  C_3
REMARK    3  A    between atoms: C_3  and  C_4
REMARK    4  A    between atoms: C_16  and  N_17
REMARK    5  A    between atoms: N_17  and  N_18
REMARK                            x       y       z     vdW  Elec       q    Type
REMARK                         _______ _______ _______ _____ _____    ______ ____
ROOT
ATOM      1  C   UNL     1       0.762  -2.018   1.233  0.00  0.00    -0.006 A 
ATOM      2  C   UNL     1      -0.191  -2.717   1.911  0.00  0.00    +0.020 A 
ATOM      3  C   UNL     1      -0.137  -4.125   1.877  0.00  0.00    +0.042 A 
ATOM      4  C   UNL     1       0.898  -4.758   1.147  0.00  0.00    +0.111 A 
ATOM      5  C   UNL     1       0.953  -6.163   1.114  0.00  0.00    +0.152 A 
ATOM      6  C   UNL     1       0.014  -6.894   1.781  0.00  0.00    +0.081 A 
ATOM      7  C   UNL     1      -1.005  -6.269   2.499  0.00  0.00    +0.162 A 
ATOM      8  C   UNL     1      -1.088  -4.907   2.554  0.00  0.00    +0.168 A 
ATOM      9  F   UNL     1      -2.081  -4.315   3.254  0.00  0.00    -0.202 F 
ATOM     10  F   UNL     1      -1.920  -7.021   3.149  0.00  0.00    -0.202 F 
ATOM     11  F   UNL     1       1.931  -6.788   0.423  0.00  0.00    -0.203 F 
ATOM     12  N   UNL     1       1.808  -4.019   0.502  0.00  0.00    -0.228 NA
ATOM     13  C   UNL     1       1.759  -2.703   0.524  0.00  0.00    +0.136 A 
ENDROOT
BRANCH  13  14
ATOM     14  N   UNL     1       2.720  -1.977  -0.166  0.00  0.00    -0.267 N 
ATOM     15  H   UNL     1       2.697  -1.007  -0.153  0.00  0.00    +0.167 HD
BRANCH  14  16
ATOM     16  N   UNL     1       3.698  -2.628  -0.862  0.00  0.00    -0.255 NA
ATOM     17  H   UNL     1       3.300  -3.266  -1.535  0.00  0.00    +0.140 HD
ATOM     18  H   UNL     1       4.321  -1.972  -1.309  0.00  0.00    +0.140 HD
ENDBRANCH  14  16
ENDBRANCH  13  14
BRANCH   1  19
ATOM     19  C   UNL     1       0.742  -0.511   1.242  0.00  0.00    +0.038 C 
BRANCH  19  21
ATOM     20  C   UNL     1      -0.019   1.526   0.010  0.00  0.00    +0.004 C 
ATOM     21  C   UNL     1       0.002  -0.004   0.002  0.00  0.00    +0.001 C 
ENDBRANCH  19  21
ENDBRANCH   1  19
TORSDOF 4
