REMARK  Name = ZINC64900769
REMARK  6 active torsions:
REMARK  status: ('A' for Active; 'I' for Inactive)
REMARK    1  A    between atoms: C_1  and  C_2
REMARK    2  A    between atoms: C_5  and  C_8
REMARK    3  A    between atoms: C_11  and  C_13
REMARK    4  A    between atoms: C_18  and  C_19
REMARK    5  A    between atoms: N_21  and  N_22
REMARK    6  A    between atoms: N_25  and  C_26
REMARK                            x       y       z     vdW  Elec       q    Type
REMARK                         _______ _______ _______ _____ _____    ______ ____
ROOT
ATOM      1  C   UNL     1       0.115  -7.518  -1.548  0.00  0.00    +0.049 A 
ATOM      2  C   UNL     1       0.014  -7.385  -2.933  0.00  0.00    +0.014 A 
ATOM      3  C   UNL     1       0.015  -8.508  -3.735  0.00  0.00    +0.001 A 
ATOM      4  C   UNL     1       0.116  -9.771  -3.175  0.00  0.00    +0.001 A 
ATOM      5  C   UNL     1       0.216  -9.924  -1.807  0.00  0.00    +0.014 A 
ATOM      6  C   UNL     1       0.223  -8.802  -0.979  0.00  0.00    +0.050 A 
ENDROOT
BRANCH   1  10
ATOM      7  C   UNL     1       0.716  -4.825   0.775  0.00  0.00    +0.156 A 
ATOM      8  C   UNL     1      -0.495  -4.480   0.256  0.00  0.00    +0.161 A 
ATOM      9  N   UNL     1      -0.836  -5.415  -0.635  0.00  0.00    -0.217 NA
ATOM     10  C   UNL     1       0.114  -6.321  -0.685  0.00  0.00    +0.229 A 
ATOM     11  O   UNL     1       1.089  -5.975   0.175  0.00  0.00    -0.435 OA
BRANCH   7  16
ATOM     12  C   UNL     1       3.689  -1.919   4.753  0.00  0.00    +0.044 C 
ATOM     13  C   UNL     1       2.910  -2.680   3.712  0.00  0.00    -0.050 A 
ATOM     14  C   UNL     1       3.425  -3.852   3.187  0.00  0.00    +0.004 A 
ATOM     15  C   UNL     1       2.718  -4.554   2.233  0.00  0.00    +0.012 A 
ATOM     16  C   UNL     1       1.479  -4.079   1.797  0.00  0.00    +0.019 A 
ATOM     17  C   UNL     1       0.965  -2.896   2.332  0.00  0.00    +0.012 A 
ATOM     18  C   UNL     1       1.680  -2.207   3.289  0.00  0.00    +0.004 A 
ENDBRANCH   7  16
ENDBRANCH   1  10
BRANCH   6  19
ATOM     19  C   UNL     1       0.336  -8.960   0.485  0.00  0.00    +0.261 C 
ATOM     20  O   UNL     1       0.232  -7.989   1.210  0.00  0.00    -0.269 OA
ATOM     21  N   UNL     1       0.553 -10.179   1.016  0.00  0.00    -0.229 N 
ATOM     22  H   UNL     1       0.636 -10.953   0.438  0.00  0.00    +0.173 HD
BRANCH  21  23
ATOM     23  N   UNL     1       0.661 -10.328   2.405  0.00  0.00    -0.218 N 
ATOM     24  C   UNL     1       0.878 -11.547   2.937  0.00  0.00    +0.316 C 
ATOM     25  O   UNL     1       0.971 -11.677   4.142  0.00  0.00    -0.251 OA
ATOM     26  N   UNL     1       0.993 -12.623   2.133  0.00  0.00    -0.295 N 
ATOM     27  H   UNL     1       0.578  -9.554   2.984  0.00  0.00    +0.174 HD
ATOM     28  H   UNL     1       0.918 -12.519   1.171  0.00  0.00    +0.151 HD
BRANCH  26  29
ATOM     29  C   UNL     1       1.230 -13.948   2.711  0.00  0.00    +0.075 C 
ATOM     30  C   UNL     1       2.272 -14.838   2.032  0.00  0.00    +0.024 C 
ATOM     31  C   UNL     1       0.783 -15.164   1.896  0.00  0.00    +0.024 C 
ENDBRANCH  26  29
ENDBRANCH  21  23
ENDBRANCH   6  19
TORSDOF 5
