REMARK  Name = ZINC11126874
REMARK  7 active torsions:
REMARK  status: ('A' for Active; 'I' for Inactive)
REMARK    1  A    between atoms: C_1  and  C_2
REMARK    2  A    between atoms: C_5  and  S_8
REMARK    3  A    between atoms: S_8  and  N_11
REMARK    4  A    between atoms: C_14  and  C_17
REMARK    5  A    between atoms: N_19  and  C_20
REMARK    6  A    between atoms: C_21  and  C_31
REMARK    7  A    between atoms: C_26  and  C_30
REMARK                            x       y       z     vdW  Elec       q    Type
REMARK                         _______ _______ _______ _____ _____    ______ ____
ROOT
ATOM      1  C   UNL     1       5.893   1.106   4.068  0.00  0.00    +0.221 C 
ATOM      2  O   UNL     1       6.168   1.401   2.925  0.00  0.00    -0.275 OA
ATOM      3  N   UNL     1       4.609   0.897   4.420  0.00  0.00    -0.279 N 
ATOM      4  H   UNL     1       4.389   0.661   5.335  0.00  0.00    +0.155 HD
ENDROOT
BRANCH   3   5
ATOM      5  C   UNL     1       3.602   1.019   3.475  0.00  0.00    +0.084 A 
ATOM      6  C   UNL     1       2.236   0.845   3.643  0.00  0.00    +0.068 A 
ATOM      7  C   UNL     1       1.387   1.034   2.479  0.00  0.00    -0.023 A 
ATOM      8  C   UNL     1       2.035   1.365   1.342  0.00  0.00    -0.004 A 
ATOM      9  S   UNL     1       3.745   1.427   1.797  0.00  0.00    -0.077 S 
ATOM     10  C   UNL     1       1.427   1.620  -0.003  0.00  0.00    +0.046 C 
ATOM     11  C   UNL     1      -0.013   1.086   0.008  0.00  0.00    -0.009 C 
ATOM     12  C   UNL     1      -0.714   1.583   1.276  0.00  0.00    +0.008 C 
ATOM     13  C   UNL     1      -0.129   0.880   2.502  0.00  0.00    +0.037 C 
ATOM     14  C   UNL     1      -0.758   1.595  -1.227  0.00  0.00    +0.008 C 
BRANCH   6  15
ATOM     15  C   UNL     1       1.670   0.483   4.947  0.00  0.00    +0.244 C 
ATOM     16  O   UNL     1       1.335   1.355   5.727  0.00  0.00    -0.270 OA
ATOM     17  N   UNL     1       1.521  -0.814   5.280  0.00  0.00    -0.325 N 
ATOM     18  H   UNL     1       1.788  -1.508   4.658  0.00  0.00    +0.145 HD
ATOM     19  H   UNL     1       1.147  -1.053   6.143  0.00  0.00    +0.145 HD
ENDBRANCH   6  15
ENDBRANCH   3   5
BRANCH   1  23
ATOM     20  N   UNL     1       9.151   1.943   6.638  0.00  0.00    -0.177 NA
ATOM     21  C   UNL     1       9.453   1.092   5.479  0.00  0.00    +0.110 C 
ATOM     22  C   UNL     1       8.340   1.261   4.440  0.00  0.00    +0.030 C 
ATOM     23  C   UNL     1       6.987   0.974   5.096  0.00  0.00    +0.078 C 
ATOM     24  C   UNL     1       6.746   1.973   6.230  0.00  0.00    +0.030 C 
ATOM     25  C   UNL     1       7.841   1.812   7.289  0.00  0.00    +0.110 C 
BRANCH  20  26
ATOM     26  S   UNL     1      10.267   3.030   7.200  0.00  0.00    +0.061 S 
ATOM     27  O   UNL     1       9.953   3.266   8.566  0.00  0.00    -0.153 OA
ATOM     28  O   UNL     1      11.541   2.557   6.783  0.00  0.00    -0.153 OA
BRANCH  26  33
ATOM     29  C   UNL     1       9.318   8.229   4.289  0.00  0.00    +0.044 C 
ATOM     30  C   UNL     1       9.555   6.930   5.016  0.00  0.00    -0.050 A 
ATOM     31  C   UNL     1       8.900   6.675   6.206  0.00  0.00    +0.005 A 
ATOM     32  C   UNL     1       9.118   5.484   6.873  0.00  0.00    +0.029 A 
ATOM     33  C   UNL     1       9.990   4.548   6.350  0.00  0.00    +0.105 A 
ATOM     34  C   UNL     1      10.649   4.805   5.162  0.00  0.00    +0.029 A 
ATOM     35  C   UNL     1      10.428   5.994   4.493  0.00  0.00    +0.005 A 
ENDBRANCH  26  33
ENDBRANCH  20  26
ENDBRANCH   1  23
TORSDOF 5
