REMARK  Name = ZINC39836440
REMARK  10 active torsions:
REMARK  status: ('A' for Active; 'I' for Inactive)
REMARK    1  A    between atoms: C_1  and  C_2
REMARK    2  A    between atoms: C_2  and  C_3
REMARK    3  A    between atoms: C_2  and  C_4
REMARK    4  A    between atoms: C_2  and  C_5
REMARK    5  A    between atoms: C_12  and  N_25
REMARK    6  A    between atoms: C_13  and  C_14
REMARK    7  A    between atoms: N_16  and  C_17
REMARK    8  A    between atoms: C_26  and  C_28
REMARK    9  A    between atoms: C_33  and  O_34
REMARK   10  A    between atoms: O_34  and  C_35
REMARK                            x       y       z     vdW  Elec       q    Type
REMARK                         _______ _______ _______ _____ _____    ______ ____
ROOT
ATOM      1  C   UNL     1       0.718  -0.497  -1.257  0.00  0.00    -0.000 C 
ATOM      2  C   UNL     1      -0.017   0.013  -2.499  0.00  0.00    +0.009 C 
ATOM      3  C   UNL     1       0.538  -0.670  -3.751  0.00  0.00    +0.037 C 
ATOM      4  C   UNL     1       2.052  -0.516  -3.760  0.00  0.00    -0.023 A 
ATOM      5  C   UNL     1       2.731  -0.199  -2.636  0.00  0.00    -0.004 A 
ATOM      6  S   UNL     1       4.426  -0.135  -3.140  0.00  0.00    -0.077 S 
ATOM      7  C   UNL     1       4.255  -0.511  -4.768  0.00  0.00    +0.085 A 
ATOM      8  C   UNL     1       2.890  -0.688  -4.933  0.00  0.00    +0.069 A 
ATOM      9  C   UNL     1       2.158   0.038  -1.273  0.00  0.00    +0.046 C 
ENDROOT
BRANCH   1  11
ATOM     10  C   UNL     1      -0.019   1.526   0.010  0.00  0.00    +0.011 C 
ATOM     11  C   UNL     1       0.002  -0.004   0.002  0.00  0.00    -0.035 C 
ATOM     12  C   UNL     1       0.742  -0.511   1.242  0.00  0.00    +0.011 C 
ATOM     13  C   UNL     1      -1.433  -0.534   0.013  0.00  0.00    +0.011 C 
ENDBRANCH   1  11
BRANCH   8  14
ATOM     14  C   UNL     1       2.317  -1.035  -6.237  0.00  0.00    +0.247 C 
ATOM     15  O   UNL     1       1.974  -0.155  -7.004  0.00  0.00    -0.270 OA
ATOM     16  N   UNL     1       2.170  -2.329  -6.586  0.00  0.00    -0.307 N 
ATOM     17  H   UNL     1       2.444  -3.030  -5.975  0.00  0.00    +0.149 HD
BRANCH  16  18
ATOM     18  C   UNL     1       1.598  -2.675  -7.889  0.00  0.00    +0.096 C 
ATOM     19  C   UNL     1       0.064  -2.716  -7.788  0.00  0.00    +0.046 C 
ATOM     20  C   UNL     1      -0.530  -3.385  -9.051  0.00  0.00    +0.168 C 
ATOM     21  S   UNL     1       0.819  -4.517  -9.582  0.00  0.00    -0.029 S 
ATOM     22  O   UNL     1       1.281  -4.115 -10.864  0.00  0.00    -0.174 OA
ATOM     23  O   UNL     1       0.402  -5.860  -9.377  0.00  0.00    -0.174 OA
ATOM     24  C   UNL     1       2.092  -4.085  -8.322  0.00  0.00    +0.188 C 
ENDBRANCH  16  18
ENDBRANCH   8  14
BRANCH   7  25
ATOM     25  N   UNL     1       5.250  -0.620  -5.726  0.00  0.00    -0.275 N 
ATOM     26  C   UNL     1       6.538  -0.413  -5.386  0.00  0.00    +0.252 C 
ATOM     27  O   UNL     1       6.827  -0.131  -4.239  0.00  0.00    -0.270 OA
ATOM     28  H   UNL     1       5.020  -0.846  -6.641  0.00  0.00    +0.156 HD
BRANCH  26  29
ATOM     29  C   UNL     1       7.597  -0.529  -6.406  0.00  0.00    +0.079 A 
ATOM     30  C   UNL     1       7.270  -0.848  -7.726  0.00  0.00    +0.017 A 
ATOM     31  C   UNL     1       8.264  -0.954  -8.674  0.00  0.00    +0.001 A 
ATOM     32  C   UNL     1       9.588  -0.747  -8.325  0.00  0.00    +0.004 A 
ATOM     33  C   UNL     1       9.926  -0.431  -7.024  0.00  0.00    +0.046 A 
ATOM     34  C   UNL     1       8.938  -0.315  -6.057  0.00  0.00    +0.132 A 
BRANCH  34  35
ATOM     35  O   UNL     1       9.268   0.001  -4.780  0.00  0.00    -0.494 OA
ATOM     36  C   UNL     1      10.654   0.205  -4.499  0.00  0.00    +0.277 C 
ENDBRANCH  34  35
ENDBRANCH  26  29
ENDBRANCH   7  25
TORSDOF 6
