REMARK  Name = ZINC13271888
REMARK  13 active torsions:
REMARK  status: ('A' for Active; 'I' for Inactive)
REMARK    1  A    between atoms: C_1  and  C_2
REMARK    2  A    between atoms: C_4  and  C_14
REMARK    3  A    between atoms: C_5  and  C_13
REMARK    4  A    between atoms: C_9  and  C_12
REMARK    5  A    between atoms: C_14  and  C_16
REMARK    6  A    between atoms: C_16  and  S_17
REMARK    7  A    between atoms: S_17  and  C_18
REMARK    8  A    between atoms: C_21  and  C_30
REMARK    9  A    between atoms: N_22  and  C_23
REMARK   10  A    between atoms: C_23  and  C_25
REMARK   11  A    between atoms: C_23  and  C_28
REMARK   12  A    between atoms: C_25  and  C_26
REMARK   13  A    between atoms: C_25  and  C_27
REMARK                            x       y       z     vdW  Elec       q    Type
REMARK                         _______ _______ _______ _____ _____    ______ ____
ROOT
ATOM      1  S   UNL     1       0.053   1.737  -0.756  0.00  0.00    -0.078 S 
ENDROOT
BRANCH   1   2
ATOM      2  C   UNL     1       0.117  -0.003  -1.024  0.00  0.00    +0.193 A 
ATOM      3  N   UNL     1       1.200  -0.745  -1.070  0.00  0.00    -0.122 NA
ATOM      4  N   UNL     1       0.887  -1.973  -1.280  0.00  0.00    -0.128 NA
ATOM      5  C   UNL     1      -0.417  -2.091  -1.389  0.00  0.00    +0.172 A 
ATOM      6  N   UNL     1      -0.951  -0.832  -1.228  0.00  0.00    -0.287 N 
BRANCH   5   7
ATOM      7  C   UNL     1      -1.166  -3.334  -1.636  0.00  0.00    +0.056 A 
ATOM      8  C   UNL     1      -0.704  -4.550  -2.074  0.00  0.00    +0.019 A 
ATOM      9  C   UNL     1      -1.603  -5.580  -2.233  0.00  0.00    +0.008 A 
ATOM     10  C   UNL     1      -2.914  -5.364  -1.952  0.00  0.00    +0.046 A 
ATOM     11  S   UNL     1      -2.911  -3.656  -1.435  0.00  0.00    -0.094 S 
ENDBRANCH   5   7
BRANCH   6  12
ATOM     12  C   UNL     1      -2.367  -0.458  -1.268  0.00  0.00    +0.206 C 
BRANCH  12  13
ATOM     13  C   UNL     1      -2.768   0.167   0.069  0.00  0.00    +0.017 C 
ATOM     14  C   UNL     1      -4.247   0.557   0.027  0.00  0.00    +0.010 C 
ATOM     15  C   UNL     1      -2.539  -0.845   1.194  0.00  0.00    +0.010 C 
ENDBRANCH  12  13
BRANCH  12  16
ATOM     16  C   UNL     1      -2.592   0.538  -2.376  0.00  0.00    +0.379 C 
ATOM     17  O   UNL     1      -3.028   1.636  -2.122  0.00  0.00    -0.244 OA
ATOM     18  O   UNL     1      -2.308   0.207  -3.646  0.00  0.00    -0.244 OA
ENDBRANCH  12  16
ENDBRANCH   6  12
ENDBRANCH   1   2
BRANCH   1  19
ATOM     19  C   UNL     1       1.818   2.093  -0.577  0.00  0.00    +0.157 C 
BRANCH  19  20
ATOM     20  C   UNL     1       2.011   3.567  -0.332  0.00  0.00    +0.175 C 
ATOM     21  O   UNL     1       1.049   4.306  -0.284  0.00  0.00    -0.291 OA
BRANCH  20  25
ATOM     22  C   UNL     1       7.075   3.952   0.084  0.00  0.00    +0.064 C 
ATOM     23  C   UNL     1       5.601   4.261   0.028  0.00  0.00    +0.023 A 
ATOM     24  C   UNL     1       4.625   3.362  -0.175  0.00  0.00    +0.034 A 
ATOM     25  C   UNL     1       3.360   4.110  -0.153  0.00  0.00    +0.039 A 
ATOM     26  C   UNL     1       3.703   5.428   0.077  0.00  0.00    +0.033 A 
ATOM     27  N   UNL     1       5.045   5.500   0.183  0.00  0.00    -0.299 N 
ATOM     28  C   UNL     1       5.765   6.676   0.418  0.00  0.00    +0.181 A 
ATOM     29  C   UNL     1       6.806   6.863   1.365  0.00  0.00    +0.094 A 
ATOM     30  C   UNL     1       7.169   8.155   1.201  0.00  0.00    +0.136 A 
ATOM     31  O   UNL     1       6.387   8.652   0.232  0.00  0.00    -0.358 OA
ATOM     32  N   UNL     1       5.620   7.821  -0.195  0.00  0.00    -0.060 NA
ATOM     33  C   UNL     1       8.243   8.893   1.959  0.00  0.00    +0.089 C 
ATOM     34  C   UNL     1       2.743   6.585   0.190  0.00  0.00    +0.064 C 
ENDBRANCH  20  25
ENDBRANCH  19  20
ENDBRANCH   1  19
TORSDOF 8
