REMARK  Name = ZINC03311724
REMARK  4 active torsions:
REMARK  status: ('A' for Active; 'I' for Inactive)
REMARK    1  A    between atoms: C_4  and  C_7
REMARK    2  A    between atoms: C_10  and  S_12
REMARK    3  A    between atoms: S_12  and  C_13
REMARK    4  A    between atoms: N_18  and  C_21
REMARK                            x       y       z     vdW  Elec       q    Type
REMARK                         _______ _______ _______ _____ _____    ______ ____
ROOT
ATOM      1  C   UNL     1       7.766  -3.390  -0.091  0.00  0.00    +0.151 C 
ATOM      2  C   UNL     1       8.624  -4.671  -0.038  0.00  0.00    +0.120 C 
ATOM      3  C   UNL     1       9.411  -4.625  -1.329  0.00  0.00    +0.228 C 
ATOM      4  O   UNL     1      10.217  -5.455  -1.690  0.00  0.00    -0.275 OA
ATOM      5  N   UNL     1       9.075  -3.522  -2.010  0.00  0.00    -0.207 N 
ATOM      6  C   UNL     1       8.157  -2.751  -1.406  0.00  0.00    +0.240 C 
ATOM      7  O   UNL     1       7.712  -1.712  -1.842  0.00  0.00    -0.274 OA
ENDROOT
BRANCH   5   8
ATOM      8  C   UNL     1       9.637  -3.197  -3.254  0.00  0.00    +0.079 A 
ATOM      9  C   UNL     1       9.038  -3.640  -4.425  0.00  0.00    +0.027 A 
ATOM     10  C   UNL     1       9.594  -3.318  -5.648  0.00  0.00    +0.002 A 
ATOM     11  C   UNL     1      10.746  -2.556  -5.708  0.00  0.00    +0.003 A 
ATOM     12  C   UNL     1      11.347  -2.113  -4.544  0.00  0.00    +0.040 A 
ATOM     13  C   UNL     1      10.792  -2.426  -3.316  0.00  0.00    +0.145 A 
ATOM     14  F   UNL     1      11.376  -1.988  -2.179  0.00  0.00    -0.204 F 
ENDBRANCH   5   8
BRANCH   1  15
ATOM     15  S   UNL     1       6.000  -3.804  -0.084  0.00  0.00    -0.052 S 
BRANCH  15  19
ATOM     16  C   UNL     1       3.695  -0.684  -0.037  0.00  0.00    +0.249 A 
ATOM     17  N   UNL     1       4.886  -0.138  -0.041  0.00  0.00    -0.106 NA
ATOM     18  N   UNL     1       5.781  -1.062  -0.056  0.00  0.00    -0.101 NA
ATOM     19  C   UNL     1       5.194  -2.237  -0.063  0.00  0.00    +0.278 A 
ATOM     20  O   UNL     1       3.865  -2.025  -0.046  0.00  0.00    -0.411 OA
BRANCH  16  24
ATOM     21  C   UNL     1      -0.017   1.379   0.010  0.00  0.00    +0.000 A 
ATOM     22  C   UNL     1       1.168   2.094   0.002  0.00  0.00    +0.001 A 
ATOM     23  C   UNL     1       2.377   1.430  -0.013  0.00  0.00    +0.013 A 
ATOM     24  C   UNL     1       2.404   0.034  -0.021  0.00  0.00    +0.039 A 
ATOM     25  C   UNL     1       1.204  -0.681  -0.013  0.00  0.00    +0.013 A 
ATOM     26  C   UNL     1       0.002  -0.004   0.002  0.00  0.00    +0.001 A 
ENDBRANCH  16  24
ENDBRANCH  15  19
ENDBRANCH   1  15
TORSDOF 4
