REMARK  Name = ZINC09496132
REMARK  8 active torsions:
REMARK  status: ('A' for Active; 'I' for Inactive)
REMARK    1  A    between atoms: C_1  and  C_2
REMARK    2  A    between atoms: C_2  and  C_31
REMARK    3  A    between atoms: C_6  and  C_18
REMARK    4  A    between atoms: C_12  and  C_14
REMARK    5  A    between atoms: C_22  and  O_26
REMARK    6  A    between atoms: C_23  and  O_24
REMARK    7  A    between atoms: O_24  and  C_25
REMARK    8  A    between atoms: O_26  and  C_27
REMARK                            x       y       z     vdW  Elec       q    Type
REMARK                         _______ _______ _______ _____ _____    ______ ____
ROOT
ATOM      1  C   UNL     1       3.883   0.646  -4.227  0.00  0.00    +0.011 C 
ATOM      2  C   UNL     1       4.683  -0.655  -4.310  0.00  0.00    -0.023 C 
ATOM      3  C   UNL     1       5.684  -0.715  -3.154  0.00  0.00    +0.060 C 
ATOM      4  C   UNL     1       4.938  -0.707  -1.841  0.00  0.00    +0.028 C 
ATOM      5  C   UNL     1       3.673  -1.254  -1.764  0.00  0.00    +0.041 C 
ATOM      6  C   UNL     1       2.971  -1.223  -0.420  0.00  0.00    +0.168 C 
ATOM      7  N   UNL     1       3.718  -0.604   0.680  0.00  0.00    -0.188 N 
ATOM      8  C   UNL     1       4.972  -0.104   0.432  0.00  0.00    +0.217 C 
ATOM      9  N   UNL     1       5.514  -0.171  -0.772  0.00  0.00    -0.330 N 
ATOM     10  N   UNL     1       5.430   0.400   1.594  0.00  0.00    -0.192 NA
ATOM     11  C   UNL     1       4.540   0.244   2.539  0.00  0.00    +0.243 C 
ATOM     12  N   UNL     1       3.451  -0.377   2.032  0.00  0.00    -0.121 NA
ATOM     13  C   UNL     1       3.046  -1.817  -2.866  0.00  0.00    +0.164 C 
ATOM     14  O   UNL     1       1.932  -2.290  -2.747  0.00  0.00    -0.292 OA
ATOM     15  C   UNL     1       3.731  -1.850  -4.208  0.00  0.00    +0.086 C 
ATOM     16  C   UNL     1       5.436  -0.712  -5.641  0.00  0.00    +0.011 C 
ATOM     17  H   UNL     1       6.521   0.237  -0.946  0.00  0.00    +0.168 HD
ENDROOT
BRANCH   6  18
ATOM     18  C   UNL     1       1.672  -0.477  -0.585  0.00  0.00    +0.025 A 
ATOM     19  C   UNL     1       1.579   0.554  -1.502  0.00  0.00    +0.010 A 
ATOM     20  C   UNL     1       0.389   1.240  -1.656  0.00  0.00    +0.004 A 
ATOM     21  C   UNL     1      -0.714   0.899  -0.894  0.00  0.00    +0.049 A 
ATOM     22  C   UNL     1      -0.626  -0.133   0.026  0.00  0.00    +0.162 A 
ATOM     23  C   UNL     1       0.572  -0.824   0.182  0.00  0.00    +0.167 A 
BRANCH  23  24
ATOM     24  O   UNL     1       0.662  -1.838   1.084  0.00  0.00    -0.491 OA
ATOM     25  C   UNL     1       0.228  -3.129   0.653  0.00  0.00    +0.277 C 
ENDBRANCH  23  24
BRANCH  22  26
ATOM     26  O   UNL     1      -1.709  -0.469   0.777  0.00  0.00    -0.491 OA
ATOM     27  C   UNL     1      -2.905   0.283   0.565  0.00  0.00    +0.277 C 
ENDBRANCH  22  26
ENDBRANCH   6  18
BRANCH  11  28
ATOM     28  C   UNL     1       4.704   0.686   3.971  0.00  0.00    +0.451 C 
ATOM     29  F   UNL     1       5.955   1.291   4.132  0.00  0.00    -0.163 F 
ATOM     30  F   UNL     1       3.697   1.603   4.293  0.00  0.00    -0.163 F 
ATOM     31  F   UNL     1       4.610  -0.425   4.815  0.00  0.00    -0.163 F 
ENDBRANCH  11  28
TORSDOF 4
