REMARK  Name = ZINC66758603
REMARK  7 active torsions:
REMARK  status: ('A' for Active; 'I' for Inactive)
REMARK    1  A    between atoms: C_1  and  C_2
REMARK    2  A    between atoms: C_3  and  C_17
REMARK    3  A    between atoms: N_6  and  C_7
REMARK    4  A    between atoms: N_19  and  C_20
REMARK    5  A    between atoms: N_19  and  C_21
REMARK    6  A    between atoms: C_21  and  C_23
REMARK    7  A    between atoms: C_21  and  C_24
REMARK                            x       y       z     vdW  Elec       q    Type
REMARK                         _______ _______ _______ _____ _____    ______ ____
ROOT
ATOM      1  C   UNL     1      -0.656   1.382  -0.046  0.00  0.00    +0.068 C 
ATOM      2  C   UNL     1      -0.910  -0.096  -0.197  0.00  0.00    +0.074 A 
ATOM      3  C   UNL     1      -0.741  -0.839  -1.331  0.00  0.00    +0.170 A 
ATOM      4  N   UNL     1      -1.073  -2.113  -1.058  0.00  0.00    -0.124 NA
ATOM      5  N   UNL     1      -1.438  -2.209   0.173  0.00  0.00    -0.060 NA
ATOM      6  N   UNL     1      -1.343  -0.941   0.763  0.00  0.00    -0.216 N 
ENDROOT
BRANCH   6   7
ATOM      7  C   UNL     1      -1.643  -0.613   2.093  0.00  0.00    +0.068 A 
ATOM      8  C   UNL     1      -0.895   0.371   2.748  0.00  0.00    +0.030 A 
ATOM      9  C   UNL     1      -1.161   0.711   4.037  0.00  0.00    +0.030 A 
ATOM     10  C   UNL     1      -2.204   0.068   4.729  0.00  0.00    +0.071 A 
ATOM     11  C   UNL     1      -2.963  -0.928   4.065  0.00  0.00    +0.002 A 
ATOM     12  C   UNL     1      -2.667  -1.254   2.732  0.00  0.00    +0.038 A 
ATOM     13  C   UNL     1      -4.006  -1.569   4.761  0.00  0.00    +0.011 A 
ATOM     14  C   UNL     1      -4.240  -1.198   6.055  0.00  0.00    +0.020 A 
ATOM     15  C   UNL     1      -3.457  -0.210   6.648  0.00  0.00    +0.111 A 
ATOM     16  N   UNL     1      -2.487   0.384   5.997  0.00  0.00    -0.255 NA
ENDBRANCH   6   7
BRANCH   3  17
ATOM     17  C   UNL     1      -0.273  -0.331  -2.634  0.00  0.00    +0.269 C 
ATOM     18  O   UNL     1      -0.085   0.861  -2.790  0.00  0.00    -0.268 OA
ATOM     19  N   UNL     1      -0.054  -1.186  -3.652  0.00  0.00    -0.292 N 
ATOM     20  C   UNL     1      -0.331  -2.614  -3.481  0.00  0.00    +0.133 C 
BRANCH  19  21
ATOM     21  C   UNL     1       0.462  -0.688  -4.929  0.00  0.00    +0.106 C 
ATOM     22  C   UNL     1       1.858  -1.263  -5.175  0.00  0.00    +0.033 C 
BRANCH  21  23
ATOM     23  C   UNL     1      -0.460  -1.113  -6.044  0.00  0.00    +0.008 A 
ATOM     24  C   UNL     1      -0.094  -2.145  -6.887  0.00  0.00    +0.008 A 
ATOM     25  C   UNL     1      -0.939  -2.536  -7.909  0.00  0.00    +0.000 A 
ATOM     26  C   UNL     1      -2.150  -1.895  -8.089  0.00  0.00    +0.003 A 
ATOM     27  C   UNL     1      -2.518  -0.863  -7.247  0.00  0.00    +0.039 A 
ATOM     28  C   UNL     1      -1.675  -0.474  -6.219  0.00  0.00    +0.128 A 
ATOM     29  F   UNL     1      -2.036   0.531  -5.392  0.00  0.00    -0.205 F 
ENDBRANCH  21  23
ENDBRANCH  19  21
ENDBRANCH   3  17
TORSDOF 4
