REMARK  Name = ZINC09055753
REMARK  10 active torsions:
REMARK  status: ('A' for Active; 'I' for Inactive)
REMARK    1  A    between atoms: C_1  and  C_2
REMARK    2  A    between atoms: C_6  and  C_32
REMARK    3  A    between atoms: C_7  and  N_8
REMARK    4  A    between atoms: C_9  and  C_11
REMARK    5  A    between atoms: C_11  and  O_12
REMARK    6  A    between atoms: O_12  and  C_13
REMARK    7  A    between atoms: C_13  and  C_15
REMARK    8  A    between atoms: C_19  and  N_21
REMARK    9  A    between atoms: C_32  and  C_33
REMARK   10  A    between atoms: C_32  and  C_34
REMARK                            x       y       z     vdW  Elec       q    Type
REMARK                         _______ _______ _______ _____ _____    ______ ____
ROOT
ATOM      1  C   UNL     1      -6.281   3.331   1.744  0.00  0.00    +0.340 C 
ATOM      2  O   UNL     1      -5.946   4.296   1.086  0.00  0.00    -0.245 OA
ENDROOT
BRANCH   1   3
ATOM      3  C   UNL     1      -5.315   2.691   2.660  0.00  0.00    +0.061 A 
ATOM      4  C   UNL     1      -5.698   1.581   3.417  0.00  0.00    +0.015 A 
ATOM      5  C   UNL     1      -4.794   0.986   4.273  0.00  0.00    +0.003 A 
ATOM      6  C   UNL     1      -3.509   1.484   4.384  0.00  0.00    +0.024 A 
ATOM      7  C   UNL     1      -3.119   2.587   3.635  0.00  0.00    +0.045 A 
ATOM      8  C   UNL     1      -4.020   3.196   2.777  0.00  0.00    +0.039 A 
BRANCH   7   9
ATOM      9  N   UNL     1      -1.815   3.088   3.753  0.00  0.00    -0.202 N 
ATOM     10  C   UNL     1      -0.871   2.571   4.560  0.00  0.00    +0.258 C 
ATOM     11  O   UNL     1      -1.011   1.612   5.292  0.00  0.00    -0.269 OA
ATOM     12  C   UNL     1       0.368   3.362   4.403  0.00  0.00    +0.050 A 
ATOM     13  C   UNL     1       1.635   3.297   4.959  0.00  0.00    +0.014 A 
ATOM     14  C   UNL     1       2.599   4.220   4.584  0.00  0.00    +0.001 A 
ATOM     15  C   UNL     1       2.304   5.204   3.659  0.00  0.00    +0.001 A 
ATOM     16  C   UNL     1       1.041   5.282   3.094  0.00  0.00    +0.014 A 
ATOM     17  C   UNL     1       0.067   4.366   3.459  0.00  0.00    +0.050 A 
ATOM     18  C   UNL     1      -1.344   4.150   3.075  0.00  0.00    +0.258 C 
ATOM     19  O   UNL     1      -1.971   4.818   2.278  0.00  0.00    -0.269 OA
ENDBRANCH   7   9
ENDBRANCH   1   3
BRANCH   1  20
ATOM     20  O   UNL     1      -7.532   2.844   1.637  0.00  0.00    -0.452 OA
BRANCH  20  21
ATOM     21  C   UNL     1      -8.427   3.523   0.716  0.00  0.00    +0.328 C 
BRANCH  21  23
ATOM     22  N   UNL     1     -10.768   3.305  -0.052  0.00  0.00    -0.282 N 
ATOM     23  C   UNL     1      -9.772   2.844   0.730  0.00  0.00    +0.255 C 
ATOM     24  O   UNL     1      -9.958   1.882   1.445  0.00  0.00    -0.272 OA
ATOM     25  H   UNL     1     -10.636   4.105  -0.584  0.00  0.00    +0.155 HD
BRANCH  22  32
ATOM     26  C   UNL     1     -10.744   0.514  -0.605  0.00  0.00    +0.045 C 
ATOM     27  C   UNL     1     -12.026   1.267  -0.363  0.00  0.00    -0.029 A 
ATOM     28  C   UNL     1     -13.236   0.602  -0.400  0.00  0.00    +0.005 A 
ATOM     29  C   UNL     1     -14.414   1.293  -0.185  0.00  0.00    +0.001 A 
ATOM     30  C   UNL     1     -14.384   2.651   0.075  0.00  0.00    +0.006 A 
ATOM     31  C   UNL     1     -13.178   3.321   0.119  0.00  0.00    -0.023 A 
ATOM     32  C   UNL     1     -11.993   2.629  -0.097  0.00  0.00    +0.040 A 
BRANCH  31  33
ATOM     33  C   UNL     1     -13.146   4.801   0.403  0.00  0.00    +0.015 C 
ATOM     34  C   UNL     1     -13.940   5.543  -0.673  0.00  0.00    +0.012 C 
ATOM     35  C   UNL     1     -13.769   5.071   1.774  0.00  0.00    +0.012 C 
ENDBRANCH  31  33
ENDBRANCH  22  32
ENDBRANCH  21  23
ENDBRANCH  20  21
ENDBRANCH   1  20
TORSDOF 7
