REMARK  Name = ZINC00152586
REMARK  7 active torsions:
REMARK  status: ('A' for Active; 'I' for Inactive)
REMARK    1  A    between atoms: C_1  and  C_2
REMARK    2  A    between atoms: C_3  and  N_18
REMARK    3  A    between atoms: C_7  and  N_8
REMARK    4  A    between atoms: C_11  and  C_16
REMARK    5  A    between atoms: C_11  and  C_17
REMARK    6  A    between atoms: C_13  and  C_14
REMARK    7  A    between atoms: C_13  and  C_15
REMARK                            x       y       z     vdW  Elec       q    Type
REMARK                         _______ _______ _______ _____ _____    ______ ____
ROOT
ATOM      1  C   UNL     1      -1.331   1.985   2.531  0.00  0.00    +0.048 C 
ATOM      2  C   UNL     1      -1.970   2.332   1.211  0.00  0.00    +0.001 A 
ATOM      3  C   UNL     1      -3.184   3.005   1.181  0.00  0.00    +0.030 A 
ATOM      4  C   UNL     1      -3.767   3.321  -0.039  0.00  0.00    +0.027 A 
ATOM      5  C   UNL     1      -3.141   2.967  -1.221  0.00  0.00    -0.034 A 
ATOM      6  C   UNL     1      -1.930   2.301  -1.188  0.00  0.00    -0.007 A 
ATOM      7  C   UNL     1      -1.350   1.980   0.029  0.00  0.00    +0.135 A 
ATOM      8  C   UNL     1      -1.459   2.026  -2.600  0.00  0.00    -0.007 C 
ATOM      9  C   UNL     1      -2.708   2.210  -3.487  0.00  0.00    +0.022 C 
ATOM     10  C   UNL     1      -3.562   3.192  -2.658  0.00  0.00    -0.009 C 
ATOM     11  C   UNL     1      -5.050   2.879  -2.830  0.00  0.00    +0.016 C 
ATOM     12  C   UNL     1      -3.270   4.634  -3.077  0.00  0.00    +0.016 C 
ATOM     13  C   UNL     1      -0.930   0.595  -2.717  0.00  0.00    +0.016 C 
ATOM     14  C   UNL     1      -0.373   3.028  -2.997  0.00  0.00    +0.016 C 
ENDROOT
BRANCH   7  15
ATOM     15  N   UNL     1      -0.055   1.263   0.062  0.00  0.00    +0.057 N 
ATOM     16  O   UNL     1      -0.034   0.046   0.081  0.00  0.00    -0.126 OA
ATOM     17  O   UNL     1       0.989   1.891   0.065  0.00  0.00    -0.126 OA
ENDBRANCH   7  15
BRANCH   3  18
ATOM     18  N   UNL     1      -3.817   3.363   2.373  0.00  0.00    -0.358 N 
ATOM     19  H   UNL     1      -3.409   3.141   3.225  0.00  0.00    +0.142 HD
ATOM     20  H   UNL     1      -4.665   3.833   2.350  0.00  0.00    +0.142 HD
ENDBRANCH   3  18
TORSDOF 2
