REMARK  Name = ZINC23125515
REMARK  11 active torsions:
REMARK  status: ('A' for Active; 'I' for Inactive)
REMARK    1  A    between atoms: C_1  and  C_2
REMARK    2  A    between atoms: C_4  and  C_35
REMARK    3  A    between atoms: C_5  and  N_9
REMARK    4  A    between atoms: C_6  and  C_8
REMARK    5  A    between atoms: C_10  and  C_12
REMARK    6  A    between atoms: C_12  and  N_13
REMARK    7  A    between atoms: C_14  and  N_34
REMARK    8  A    between atoms: C_15  and  C_22
REMARK    9  A    between atoms: N_18  and  C_19
REMARK   10  A    between atoms: C_19  and  C_20
REMARK   11  A    between atoms: C_24  and  C_27
REMARK                            x       y       z     vdW  Elec       q    Type
REMARK                         _______ _______ _______ _____ _____    ______ ____
ROOT
ATOM      1  N   UNL     1       7.845  -1.508  -0.256  0.00  0.00    -0.262 N 
ATOM      2  C   UNL     1       7.235  -2.667  -0.577  0.00  0.00    +0.127 A 
ATOM      3  C   UNL     1       5.864  -2.434  -0.546  0.00  0.00    +0.117 A 
ATOM      4  C   UNL     1       5.682  -1.076  -0.179  0.00  0.00    +0.127 A 
ATOM      5  N   UNL     1       6.864  -0.540  -0.010  0.00  0.00    -0.282 N 
ATOM      6  N   UNL     1       4.457  -0.425  -0.024  0.00  0.00    -0.325 N 
ATOM      7  H   UNL     1       3.518  -0.973  -0.191  0.00  0.00    +0.148 HD
ATOM      8  H   UNL     1       7.158   0.481   0.274  0.00  0.00    +0.188 HD
ENDROOT
BRANCH   3   9
ATOM      9  C   UNL     1       4.804  -3.412  -0.833  0.00  0.00    +0.265 A 
ATOM     10  N   UNL     1       3.499  -3.192  -0.804  0.00  0.00    -0.187 NA
ATOM     11  C   UNL     1       2.929  -4.370  -1.130  0.00  0.00    +0.202 A 
ATOM     12  N   UNL     1       3.895  -5.227  -1.345  0.00  0.00    -0.056 NA
ATOM     13  O   UNL     1       4.974  -4.698  -1.180  0.00  0.00    -0.332 OA
BRANCH  11  14
ATOM     14  C   UNL     1       1.474  -4.643  -1.233  0.00  0.00    +0.023 A 
ATOM     15  C   UNL     1       1.024  -5.914  -1.588  0.00  0.00    +0.013 A 
ATOM     16  C   UNL     1      -0.330  -6.162  -1.687  0.00  0.00    +0.021 A 
ATOM     17  C   UNL     1      -1.241  -5.153  -1.423  0.00  0.00    +0.041 A 
ATOM     18  C   UNL     1      -0.800  -3.889  -1.071  0.00  0.00    +0.021 A 
ATOM     19  C   UNL     1       0.552  -3.631  -0.975  0.00  0.00    +0.013 A 
ATOM     20 CL   UNL     1      -2.943  -5.473  -1.543  0.00  0.00    -0.084 Cl
ENDBRANCH  11  14
ENDBRANCH   3   9
BRANCH   2  21
ATOM     21  N   UNL     1       7.857  -3.863  -0.884  0.00  0.00    -0.343 N 
ATOM     22  H   UNL     1       7.253  -4.749  -1.133  0.00  0.00    +0.144 HD
ATOM     23  H   UNL     1       8.955  -3.929  -0.880  0.00  0.00    +0.144 HD
ENDBRANCH   2  21
BRANCH   1  24
ATOM     24  C   UNL     1       9.293  -1.298  -0.170  0.00  0.00    +0.239 C 
BRANCH  24  26
ATOM     25  N   UNL     1      11.067  -1.476   1.544  0.00  0.00    -0.284 N 
ATOM     26  C   UNL     1       9.762  -1.600   1.229  0.00  0.00    +0.239 C 
ATOM     27  O   UNL     1       8.966  -1.956   2.073  0.00  0.00    -0.273 OA
ATOM     28  H   UNL     1      11.798  -1.212   0.765  0.00  0.00    +0.155 HD
BRANCH  25  33
ATOM     29  C   UNL     1      12.789  -2.314   6.884  0.00  0.00    +0.044 C 
ATOM     30  C   UNL     1      12.332  -2.091   5.465  0.00  0.00    -0.050 A 
ATOM     31  C   UNL     1      12.948  -2.766   4.428  0.00  0.00    +0.008 A 
ATOM     32  C   UNL     1      12.531  -2.564   3.127  0.00  0.00    -0.029 A 
ATOM     33  C   UNL     1      11.492  -1.683   2.861  0.00  0.00    +0.039 A 
ATOM     34  C   UNL     1      10.878  -1.003   3.905  0.00  0.00    -0.029 A 
ATOM     35  C   UNL     1      11.296  -1.214   5.205  0.00  0.00    +0.008 A 
ATOM     36  C   UNL     1       9.753  -0.041   3.621  0.00  0.00    +0.045 C 
ATOM     37  C   UNL     1      13.204  -3.299   1.996  0.00  0.00    +0.045 C 
ENDBRANCH  25  33
ENDBRANCH  24  26
ENDBRANCH   1  24
BRANCH   6  38
ATOM     38  C   UNL     1       4.422   0.988   0.361  0.00  0.00    +0.130 C 
BRANCH  38  39
ATOM     39  C   UNL     1       2.990   1.447   0.459  0.00  0.00    -0.016 C 
ATOM     40  C   UNL     1       2.553   1.998   1.565  0.00  0.00    +0.005 C 
ENDBRANCH  38  39
ENDBRANCH   6  38
TORSDOF 8
