REMARK  Name = ZINC63975372
REMARK  13 active torsions:
REMARK  status: ('A' for Active; 'I' for Inactive)
REMARK    1  A    between atoms: C_1  and  C_2
REMARK    2  A    between atoms: C_2  and  C_3
REMARK    3  A    between atoms: C_2  and  C_4
REMARK    4  A    between atoms: C_4  and  C_5
REMARK    5  A    between atoms: C_7  and  C_11
REMARK    6  A    between atoms: C_11  and  C_12
REMARK    7  A    between atoms: C_12  and  C_13
REMARK    8  A    between atoms: C_13  and  N_14
REMARK    9  A    between atoms: C_15  and  C_17
REMARK   10  A    between atoms: C_17  and  C_19
REMARK   11  A    between atoms: C_17  and  N_29
REMARK   12  A    between atoms: C_19  and  C_20
REMARK   13  A    between atoms: C_30  and  C_32
REMARK                            x       y       z     vdW  Elec       q    Type
REMARK                         _______ _______ _______ _____ _____    ______ ____
ROOT
ATOM      1  C   UNL     1      -4.631 -10.697  -1.984  0.00  0.00    +0.163 C 
ENDROOT
BRANCH   1   3
ATOM      2  N   UNL     1      -3.732  -8.406  -1.739  0.00  0.00    -0.314 N 
ATOM      3  C   UNL     1      -4.737  -9.204  -2.153  0.00  0.00    +0.234 C 
ATOM      4  O   UNL     1      -5.726  -8.719  -2.661  0.00  0.00    -0.274 OA
ATOM      5  H   UNL     1      -2.941  -8.793  -1.333  0.00  0.00    +0.149 HD
BRANCH   2   6
ATOM      6  C   UNL     1      -3.835  -6.954  -1.904  0.00  0.00    +0.104 C 
BRANCH   6   7
ATOM      7  C   UNL     1      -2.571  -6.288  -1.357  0.00  0.00    +0.023 C 
BRANCH   7   8
ATOM      8  C   UNL     1      -2.678  -4.771  -1.528  0.00  0.00    +0.058 C 
BRANCH   8  11
ATOM      9  C   UNL     1      -1.416  -2.035  -0.119  0.00  0.00    +0.103 C 
ATOM     10  N   UNL     1      -1.445  -2.661  -1.244  0.00  0.00    -0.346 N 
ATOM     11  C   UNL     1      -1.414  -4.105  -0.981  0.00  0.00    +0.243 C 
ATOM     12  O   UNL     1      -1.363  -4.228   0.449  0.00  0.00    -0.248 OA
ATOM     13  N   UNL     1      -1.362  -2.895   0.938  0.00  0.00    -0.252 N 
ATOM     14  H   UNL     1      -1.330  -2.638   1.873  0.00  0.00    +0.195 HD
ATOM     15  H   UNL     1      -1.481  -2.247  -2.120  0.00  0.00    +0.163 HD
BRANCH   9  16
ATOM     16  C   UNL     1      -1.433  -0.534   0.013  0.00  0.00    +0.076 C 
BRANCH  16  18
ATOM     17  C   UNL     1      -0.019   1.526   0.010  0.00  0.00    +0.007 C 
ATOM     18  C   UNL     1       0.002  -0.004   0.002  0.00  0.00    -0.010 C 
ATOM     19  C   UNL     1       0.742  -0.511   1.242  0.00  0.00    +0.007 C 
ENDBRANCH  16  18
ENDBRANCH   9  16
ENDBRANCH   8  11
ENDBRANCH   7   8
ENDBRANCH   6   7
ENDBRANCH   2   6
ENDBRANCH   1   3
BRANCH   1  20
ATOM     20  N   UNL     1      -5.968 -11.292  -2.047  0.00  0.00    -0.299 N 
ATOM     21  C   UNL     1      -6.721 -11.142  -3.155  0.00  0.00    +0.251 C 
ATOM     22  O   UNL     1      -6.289 -10.513  -4.103  0.00  0.00    -0.270 OA
ATOM     23  H   UNL     1      -6.313 -11.793  -1.291  0.00  0.00    +0.150 HD
BRANCH  21  24
ATOM     24  C   UNL     1      -8.059 -11.737  -3.219  0.00  0.00    +0.074 A 
ATOM     25  C   UNL     1      -8.981 -11.706  -4.254  0.00  0.00    +0.021 A 
ATOM     26  C   UNL     1     -10.165 -12.362  -4.018  0.00  0.00    +0.008 A 
ATOM     27  C   UNL     1     -10.351 -12.979  -2.825  0.00  0.00    +0.046 A 
ATOM     28  S   UNL     1      -8.922 -12.695  -1.988  0.00  0.00    -0.092 S 
ENDBRANCH  21  24
ENDBRANCH   1  20
BRANCH   1  29
ATOM     29  C   UNL     1      -3.762 -11.277  -3.101  0.00  0.00    +0.065 C 
BRANCH  29  30
ATOM     30  C   UNL     1      -3.555 -12.751  -2.864  0.00  0.00    -0.039 C 
ATOM     31  C   UNL     1      -4.271 -13.768  -3.393  0.00  0.00    -0.001 A 
ATOM     32  C   UNL     1      -5.415 -13.806  -4.312  0.00  0.00    +0.010 A 
ATOM     33  C   UNL     1      -5.930 -15.004  -4.670  0.00  0.00    +0.001 A 
ATOM     34  C   UNL     1      -5.401 -16.208  -4.185  0.00  0.00    +0.002 A 
ATOM     35  C   UNL     1      -4.351 -16.254  -3.337  0.00  0.00    +0.026 A 
ATOM     36  C   UNL     1      -3.730 -15.053  -2.896  0.00  0.00    +0.043 A 
ATOM     37  N   UNL     1      -2.719 -14.838  -2.091  0.00  0.00    -0.380 N 
ATOM     38  C   UNL     1      -2.499 -13.391  -1.990  0.00  0.00    +0.144 C 
ATOM     39  H   UNL     1      -2.199 -15.522  -1.639  0.00  0.00    +0.160 HD
ENDBRANCH  29  30
ENDBRANCH   1  29
TORSDOF 11
