REMARK  Name = ZINC04699613
REMARK  8 active torsions:
REMARK  status: ('A' for Active; 'I' for Inactive)
REMARK    1  A    between atoms: C_1  and  C_2
REMARK    2  A    between atoms: C_3  and  C_29
REMARK    3  A    between atoms: N_6  and  C_25
REMARK    4  A    between atoms: C_7  and  C_9
REMARK    5  A    between atoms: C_18  and  C_19
REMARK    6  A    between atoms: C_25  and  C_26
REMARK    7  A    between atoms: C_25  and  C_27
REMARK    8  A    between atoms: C_25  and  C_28
REMARK                            x       y       z     vdW  Elec       q    Type
REMARK                         _______ _______ _______ _____ _____    ______ ____
ROOT
ATOM      1  C   UNL     1       3.379  -0.378   0.055  0.00  0.00    +0.010 A 
ATOM      2  C   UNL     1       1.977  -0.215   0.434  0.00  0.00    +0.006 A 
ATOM      3  C   UNL     1       0.913  -1.104   0.613  0.00  0.00    +0.010 A 
ATOM      4  C   UNL     1      -0.314  -0.629   0.980  0.00  0.00    +0.001 A 
ATOM      5  C   UNL     1      -0.513   0.731   1.177  0.00  0.00    +0.002 A 
ATOM      6  C   UNL     1       0.521   1.625   1.007  0.00  0.00    +0.026 A 
ATOM      7  C   UNL     1       1.779   1.165   0.633  0.00  0.00    +0.047 A 
ATOM      8  N   UNL     1       2.981   1.793   0.391  0.00  0.00    -0.354 N 
ATOM      9  H   UNL     1       3.133   2.748   0.454  0.00  0.00    +0.166 HD
ATOM     10  C   UNL     1       3.932   0.861   0.046  0.00  0.00    +0.053 A 
ENDROOT
BRANCH   1  17
ATOM     11  C   UNL     1       4.875  -2.188   2.259  0.00  0.00    +0.042 C 
ATOM     12  C   UNL     1       4.168  -2.536   0.974  0.00  0.00    -0.040 C 
ATOM     13  C   UNL     1       3.504  -3.659   0.713  0.00  0.00    +0.013 C 
ATOM     14  C   UNL     1       2.962  -3.612  -0.648  0.00  0.00    +0.244 C 
ATOM     15  O   UNL     1       2.309  -4.495  -1.170  0.00  0.00    -0.270 OA
ATOM     16  N   UNL     1       3.292  -2.447  -1.236  0.00  0.00    -0.282 N 
ATOM     17  C   UNL     1       4.078  -1.674  -0.264  0.00  0.00    +0.136 C 
ATOM     18  C   UNL     1       3.337  -4.809   1.673  0.00  0.00    +0.049 C 
BRANCH  16  19
ATOM     19  C   UNL     1       2.936  -2.027  -2.593  0.00  0.00    +0.030 C 
ATOM     20  C   UNL     1       4.211  -1.776  -3.401  0.00  0.00    +0.031 C 
ATOM     21  C   UNL     1       2.113  -3.127  -3.267  0.00  0.00    +0.031 C 
ATOM     22  C   UNL     1       2.111  -0.740  -2.529  0.00  0.00    +0.031 C 
ENDBRANCH  16  19
ENDBRANCH   1  17
BRANCH  10  23
ATOM     23  C   UNL     1       5.342   1.163  -0.285  0.00  0.00    -0.001 A 
ATOM     24  C   UNL     1       6.371   0.410   0.282  0.00  0.00    +0.010 A 
ATOM     25  C   UNL     1       7.684   0.694  -0.034  0.00  0.00    +0.001 A 
ATOM     26  C   UNL     1       7.981   1.730  -0.902  0.00  0.00    +0.000 A 
ATOM     27  C   UNL     1       6.965   2.483  -1.464  0.00  0.00    +0.001 A 
ATOM     28  C   UNL     1       5.648   2.206  -1.160  0.00  0.00    +0.010 A 
ENDBRANCH  10  23
TORSDOF 3
