REMARK  Name = ZINC14038115
REMARK  12 active torsions:
REMARK  status: ('A' for Active; 'I' for Inactive)
REMARK    1  A    between atoms: C_1  and  C_2
REMARK    2  A    between atoms: C_2  and  C_4
REMARK    3  A    between atoms: C_2  and  O_29
REMARK    4  A    between atoms: N_6  and  C_7
REMARK    5  A    between atoms: C_12  and  N_13
REMARK    6  A    between atoms: C_14  and  C_16
REMARK    7  A    between atoms: C_16  and  C_18
REMARK    8  A    between atoms: C_16  and  O_19
REMARK    9  A    between atoms: O_19  and  C_20
REMARK   10  A    between atoms: C_23  and  N_26
REMARK   11  A    between atoms: O_29  and  C_30
REMARK   12  A    between atoms: C_33  and  N_36
REMARK                            x       y       z     vdW  Elec       q    Type
REMARK                         _______ _______ _______ _____ _____    ______ ____
ROOT
ATOM      1  C   UNL     1       3.528   0.699  -4.398  0.00  0.00    +0.055 A 
ATOM      2  C   UNL     1       2.834   0.798  -5.596  0.00  0.00    +0.025 A 
ATOM      3  C   UNL     1       3.518   1.034  -6.773  0.00  0.00    +0.002 A 
ATOM      4  C   UNL     1       4.894   1.172  -6.762  0.00  0.00    +0.002 A 
ATOM      5  C   UNL     1       5.594   1.075  -5.574  0.00  0.00    +0.025 A 
ATOM      6  C   UNL     1       4.915   0.844  -4.387  0.00  0.00    +0.055 A 
ENDROOT
BRANCH   1   9
ATOM      7  C   UNL     1       1.564   0.882  -3.066  0.00  0.00    +0.258 C 
ATOM      8  O   UNL     1       0.993   1.402  -4.001  0.00  0.00    -0.271 OA
ATOM      9  N   UNL     1       2.837   0.460  -3.204  0.00  0.00    -0.281 N 
ATOM     10  H   UNL     1       3.274  -0.009  -2.476  0.00  0.00    +0.155 HD
BRANCH   7  12
ATOM     11  C   UNL     1       1.538   1.558  -0.680  0.00  0.00    +0.062 C 
ATOM     12  C   UNL     1       0.851   0.707  -1.750  0.00  0.00    +0.256 C 
BRANCH  12  13
ATOM     13  O   UNL     1      -0.510   1.121  -1.887  0.00  0.00    -0.480 OA
BRANCH  13  14
ATOM     14  C   UNL     1      -1.418   0.542  -1.058  0.00  0.00    +0.122 A 
ATOM     15  C   UNL     1      -2.771   0.802  -1.218  0.00  0.00    +0.048 A 
ATOM     16  C   UNL     1      -3.692   0.212  -0.375  0.00  0.00    +0.036 A 
ATOM     17  C   UNL     1      -3.266  -0.639   0.629  0.00  0.00    +0.126 A 
ATOM     18  C   UNL     1      -1.918  -0.900   0.791  0.00  0.00    +0.036 A 
ATOM     19  C   UNL     1      -0.993  -0.316  -0.054  0.00  0.00    +0.048 A 
BRANCH  17  20
ATOM     20  N   UNL     1      -4.254  -1.270   1.531  0.00  0.00    +0.056 N 
ATOM     21  O   UNL     1      -5.433  -1.042   1.391  0.00  0.00    -0.126 OA
ATOM     22  O   UNL     1      -3.883  -2.014   2.409  0.00  0.00    -0.126 OA
ENDBRANCH  17  20
ENDBRANCH  13  14
ENDBRANCH  12  13
ENDBRANCH   7  12
ENDBRANCH   1   9
BRANCH   6  23
ATOM     23  N   UNL     1       5.620   0.751  -3.181  0.00  0.00    -0.281 N 
ATOM     24  C   UNL     1       6.873   0.254  -3.170  0.00  0.00    +0.258 C 
ATOM     25  O   UNL     1       7.419  -0.038  -4.213  0.00  0.00    -0.271 OA
ATOM     26  H   UNL     1       5.208   1.044  -2.353  0.00  0.00    +0.155 HD
BRANCH  24  27
ATOM     27  C   UNL     1       7.596   0.062  -1.861  0.00  0.00    +0.256 C 
ATOM     28  C   UNL     1       7.837   1.424  -1.207  0.00  0.00    +0.062 C 
BRANCH  27  29
ATOM     29  O   UNL     1       8.851  -0.580  -2.100  0.00  0.00    -0.480 OA
BRANCH  29  30
ATOM     30  C   UNL     1       9.410  -1.248  -1.057  0.00  0.00    +0.122 A 
ATOM     31  C   UNL     1       8.778  -1.262   0.178  0.00  0.00    +0.048 A 
ATOM     32  C   UNL     1       9.348  -1.943   1.236  0.00  0.00    +0.036 A 
ATOM     33  C   UNL     1      10.548  -2.609   1.066  0.00  0.00    +0.126 A 
ATOM     34  C   UNL     1      11.180  -2.595  -0.164  0.00  0.00    +0.036 A 
ATOM     35  C   UNL     1      10.611  -1.921  -1.227  0.00  0.00    +0.048 A 
BRANCH  33  36
ATOM     36  N   UNL     1      11.157  -3.337   2.201  0.00  0.00    +0.056 N 
ATOM     37  O   UNL     1      10.606  -3.349   3.277  0.00  0.00    -0.126 OA
ATOM     38  O   UNL     1      12.206  -3.919   2.053  0.00  0.00    -0.126 OA
ENDBRANCH  33  36
ENDBRANCH  29  30
ENDBRANCH  27  29
ENDBRANCH  24  27
ENDBRANCH   6  23
TORSDOF 10
