REMARK  Name = ZINC35745205
REMARK  15 active torsions:
REMARK  status: ('A' for Active; 'I' for Inactive)
REMARK    1  A    between atoms: C_1  and  C_2
REMARK    2  A    between atoms: C_5  and  C_7
REMARK    3  A    between atoms: C_7  and  N_8
REMARK    4  A    between atoms: N_8  and  C_9
REMARK    5  A    between atoms: N_8  and  C_33
REMARK    6  A    between atoms: C_9  and  C_10
REMARK    7  A    between atoms: C_13  and  C_15
REMARK    8  A    between atoms: C_15  and  C_16
REMARK    9  A    between atoms: C_15  and  C_24
REMARK   10  A    between atoms: C_15  and  O_32
REMARK   11  A    between atoms: C_19  and  O_22
REMARK   12  A    between atoms: O_22  and  C_23
REMARK   13  A    between atoms: C_27  and  O_30
REMARK   14  A    between atoms: O_30  and  C_31
REMARK   15  A    between atoms: C_33  and  C_34
REMARK                            x       y       z     vdW  Elec       q    Type
REMARK                         _______ _______ _______ _____ _____    ______ ____
ROOT
ATOM      1  C   UNL     1       3.865  -4.123  -3.716  0.00  0.00    +0.089 A 
ATOM      2  C   UNL     1       4.331  -3.828  -4.943  0.00  0.00    +0.043 A 
ATOM      3  C   UNL     1       3.700  -4.716  -5.844  0.00  0.00    +0.048 A 
ATOM      4  C   UNL     1       2.887  -5.500  -5.114  0.00  0.00    +0.146 A 
ATOM      5  O   UNL     1       2.996  -5.140  -3.825  0.00  0.00    -0.463 OA
ENDROOT
BRANCH   1   6
ATOM      6  C   UNL     1       4.259  -3.432  -2.435  0.00  0.00    -0.002 C 
BRANCH   6   7
ATOM      7  N   UNL     1       3.351  -2.304  -2.188  0.00  0.00    +0.391 N 
ATOM      8  H   UNL     1       3.349  -1.692  -2.991  0.00  0.00    -0.080 HD
BRANCH   7   9
ATOM      9  C   UNL     1       3.805  -1.560  -1.006  0.00  0.00    -0.002 C 
BRANCH   9  14
ATOM     10  C   UNL     1       8.787  -0.802  -1.237  0.00  0.00    +0.086 C 
ATOM     11  C   UNL     1       7.304  -0.589  -1.398  0.00  0.00    +0.102 A 
ATOM     12  C   UNL     1       6.720   0.477  -1.975  0.00  0.00    +0.044 A 
ATOM     13  C   UNL     1       5.324   0.265  -1.911  0.00  0.00    +0.043 A 
ATOM     14  C   UNL     1       5.138  -0.918  -1.298  0.00  0.00    +0.089 A 
ATOM     15  O   UNL     1       6.340  -1.433  -0.995  0.00  0.00    -0.467 OA
ENDBRANCH   9  14
ENDBRANCH   7   9
BRANCH   7  16
ATOM     16  C   UNL     1       1.992  -2.811  -1.955  0.00  0.00    -0.046 C 
BRANCH  16  17
ATOM     17  C   UNL     1       1.018  -1.635  -1.860  0.00  0.00    +0.102 C 
ATOM     18  C   UNL     1      -0.407  -2.156  -1.578  0.00  0.00    +0.032 C 
ATOM     19  C   UNL     1      -1.280  -1.222  -2.459  0.00  0.00    +0.030 C 
ATOM     20  C   UNL     1      -0.338  -0.992  -3.668  0.00  0.00    +0.160 C 
ATOM     21  O   UNL     1       0.984  -0.930  -3.107  0.00  0.00    -0.378 OA
ENDBRANCH  16  17
ENDBRANCH   7  16
ENDBRANCH   6   7
ENDBRANCH   1   6
BRANCH   4  22
ATOM     22  C   UNL     1       2.007  -6.600  -5.651  0.00  0.00    +0.174 C 
BRANCH  22  23
ATOM     23  C   UNL     1       1.844  -7.670  -4.601  0.00  0.00    -0.004 A 
ATOM     24  C   UNL     1       2.322  -8.946  -4.837  0.00  0.00    +0.011 A 
ATOM     25  C   UNL     1       2.173  -9.928  -3.877  0.00  0.00    +0.046 A 
ATOM     26  C   UNL     1       1.544  -9.633  -2.676  0.00  0.00    +0.120 A 
ATOM     27  C   UNL     1       1.065  -8.352  -2.442  0.00  0.00    +0.046 A 
ATOM     28  C   UNL     1       1.222  -7.372  -3.403  0.00  0.00    +0.011 A 
BRANCH  26  29
ATOM     29  O   UNL     1       1.396 -10.598  -1.730  0.00  0.00    -0.495 OA
ATOM     30  C   UNL     1       0.738 -10.223  -0.518  0.00  0.00    +0.277 C 
ENDBRANCH  26  29
ENDBRANCH  22  23
BRANCH  22  31
ATOM     31  C   UNL     1       0.656  -6.035  -6.006  0.00  0.00    -0.004 A 
ATOM     32  C   UNL     1       0.054  -5.111  -5.172  0.00  0.00    +0.011 A 
ATOM     33  C   UNL     1      -1.185  -4.591  -5.496  0.00  0.00    +0.046 A 
ATOM     34  C   UNL     1      -1.824  -4.997  -6.658  0.00  0.00    +0.120 A 
ATOM     35  C   UNL     1      -1.217  -5.924  -7.493  0.00  0.00    +0.046 A 
ATOM     36  C   UNL     1       0.024  -6.436  -7.168  0.00  0.00    +0.011 A 
BRANCH  34  37
ATOM     37  O   UNL     1      -3.042  -4.488  -6.978  0.00  0.00    -0.495 OA
ATOM     38  C   UNL     1      -3.641  -4.951  -8.190  0.00  0.00    +0.277 C 
ENDBRANCH  34  37
ENDBRANCH  22  31
BRANCH  22  39
ATOM     39  O   UNL     1       2.609  -7.165  -6.817  0.00  0.00    -0.372 OA
ATOM     40  H   UNL     1       2.745  -6.532  -7.535  0.00  0.00    +0.212 HD
ENDBRANCH  22  39
ENDBRANCH   4  22
TORSDOF 12
