REMARK  Name = ZINC36704367
REMARK  10 active torsions:
REMARK  status: ('A' for Active; 'I' for Inactive)
REMARK    1  A    between atoms: C_1  and  N_2
REMARK    2  A    between atoms: N_2  and  C_3
REMARK    3  A    between atoms: N_2  and  C_4
REMARK    4  A    between atoms: C_4  and  C_5
REMARK    5  A    between atoms: C_5  and  C_6
REMARK    6  A    between atoms: C_6  and  N_7
REMARK    7  A    between atoms: C_13  and  N_17
REMARK    8  A    between atoms: C_20  and  C_22
REMARK    9  A    between atoms: N_27  and  S_28
REMARK   10  A    between atoms: S_28  and  C_31
REMARK                            x       y       z     vdW  Elec       q    Type
REMARK                         _______ _______ _______ _____ _____    ______ ____
ROOT
ATOM      1  N   UNL     1      -0.229   0.058   4.653  0.00  0.00    -0.249 N 
ATOM      2  C   UNL     1      -1.419  -0.509   5.080  0.00  0.00    +0.168 A 
ATOM      3  N   UNL     1      -2.023  -1.586   4.635  0.00  0.00    -0.224 NA
ATOM      4  C   UNL     1      -3.191  -2.028   5.149  0.00  0.00    +0.080 A 
ATOM      5  C   UNL     1      -3.941  -3.163   4.764  0.00  0.00    +0.031 A 
ATOM      6  C   UNL     1      -5.117  -3.473   5.396  0.00  0.00    +0.035 A 
ATOM      7  C   UNL     1      -5.613  -2.691   6.429  0.00  0.00    +0.127 A 
ATOM      8  C   UNL     1      -4.906  -1.573   6.831  0.00  0.00    +0.050 A 
ATOM      9  C   UNL     1      -3.727  -1.255   6.205  0.00  0.00    +0.043 A 
ATOM     10  S   UNL     1      -2.517   0.034   6.381  0.00  0.00    -0.052 S 
ATOM     11  C   UNL     1       0.159   1.255   5.137  0.00  0.00    +0.240 C 
ATOM     12  O   UNL     1       1.236   1.716   4.824  0.00  0.00    -0.273 OA
ENDROOT
BRANCH  11  13
ATOM     13  C   UNL     1      -0.747   2.020   6.068  0.00  0.00    +0.166 C 
ATOM     14  C   UNL     1      -0.533   1.540   7.519  0.00  0.00    +0.031 C 
ATOM     15  C   UNL     1       0.451   2.594   8.092  0.00  0.00    +0.019 C 
ATOM     16  C   UNL     1      -0.027   3.885   7.383  0.00  0.00    +0.110 C 
ATOM     17  N   UNL     1      -0.413   3.451   6.025  0.00  0.00    -0.164 NA
BRANCH  17  18
ATOM     18  S   UNL     1      -0.462   4.413   4.678  0.00  0.00    +0.068 S 
ATOM     19  O   UNL     1       0.424   5.497   4.920  0.00  0.00    -0.152 OA
ATOM     20  O   UNL     1      -0.322   3.551   3.557  0.00  0.00    -0.152 OA
BRANCH  18  21
ATOM     21  C   UNL     1      -2.083   5.099   4.586  0.00  0.00    +0.143 A 
ATOM     22  C   UNL     1      -2.551   6.257   5.112  0.00  0.00    +0.036 A 
ATOM     23  C   UNL     1      -3.875   6.599   4.910  0.00  0.00    +0.010 A 
ATOM     24  C   UNL     1      -4.666   5.766   4.191  0.00  0.00    +0.047 A 
ATOM     25  S   UNL     1      -3.532   4.454   3.768  0.00  0.00    -0.077 S 
ENDBRANCH  18  21
ENDBRANCH  17  18
ENDBRANCH  11  13
BRANCH   7  26
ATOM     26  N   UNL     1      -6.886  -3.049   7.092  0.00  0.00    +0.056 N 
ATOM     27  O   UNL     1      -7.500  -4.027   6.735  0.00  0.00    -0.126 OA
ATOM     28  O   UNL     1      -7.313  -2.363   7.992  0.00  0.00    -0.126 OA
ENDBRANCH   7  26
BRANCH   1  29
ATOM     29  C   UNL     1       0.608  -0.642   3.676  0.00  0.00    +0.114 C 
BRANCH  29  30
ATOM     30  C   UNL     1       0.232  -0.190   2.264  0.00  0.00    +0.001 C 
BRANCH  30  31
ATOM     31  C   UNL     1       1.166  -0.852   1.250  0.00  0.00    -0.078 C 
BRANCH  31  33
ATOM     32  C   UNL     1       1.047   1.025  -0.239  0.00  0.00    -0.097 C 
ATOM     33  N   UNL     1       0.804  -0.418  -0.106  0.00  0.00    +0.376 N 
ATOM     34  C   UNL     1       1.621  -1.144  -1.087  0.00  0.00    -0.097 C 
ATOM     35  H   UNL     1      -0.172  -0.611  -0.272  0.00  0.00    -0.083 HD
ENDBRANCH  31  33
ENDBRANCH  30  31
ENDBRANCH  29  30
ENDBRANCH   1  29
TORSDOF 8
