REMARK  Name = ZINC22986759
REMARK  11 active torsions:
REMARK  status: ('A' for Active; 'I' for Inactive)
REMARK    1  A    between atoms: C_1  and  C_2
REMARK    2  A    between atoms: C_2  and  C_3
REMARK    3  A    between atoms: C_3  and  C_5
REMARK    4  A    between atoms: C_3  and  C_24
REMARK    5  A    between atoms: C_5  and  N_6
REMARK    6  A    between atoms: C_7  and  C_9
REMARK    7  A    between atoms: C_9  and  S_10
REMARK    8  A    between atoms: S_10  and  C_11
REMARK    9  A    between atoms: C_14  and  C_17
REMARK   10  A    between atoms: N_15  and  N_16
REMARK   11  A    between atoms: C_20  and  C_23
REMARK                            x       y       z     vdW  Elec       q    Type
REMARK                         _______ _______ _______ _____ _____    ______ ____
ROOT
ATOM      1  S   UNL     1      -4.018   1.507  -0.809  0.00  0.00    -0.075 S 
ENDROOT
BRANCH   1   2
ATOM      2  C   UNL     1      -5.349   0.382  -1.066  0.00  0.00    +0.209 A 
ATOM      3  N   UNL     1      -5.266  -0.929  -1.102  0.00  0.00    -0.121 NA
ATOM      4  N   UNL     1      -6.428  -1.440  -1.304  0.00  0.00    -0.127 NA
ATOM      5  C   UNL     1      -7.322  -0.486  -1.421  0.00  0.00    +0.182 A 
ATOM      6  N   UNL     1      -6.659   0.710  -1.272  0.00  0.00    -0.224 N 
BRANCH   5   7
ATOM      7  C   UNL     1      -8.769  -0.663  -1.666  0.00  0.00    +0.021 A 
ATOM      8  C   UNL     1      -9.369  -1.906  -1.456  0.00  0.00    +0.012 A 
ATOM      9  C   UNL     1     -10.721  -2.063  -1.681  0.00  0.00    +0.004 A 
ATOM     10  C   UNL     1     -11.480  -0.995  -2.126  0.00  0.00    -0.050 A 
ATOM     11  C   UNL     1     -10.891   0.238  -2.342  0.00  0.00    +0.004 A 
ATOM     12  C   UNL     1      -9.541   0.410  -2.115  0.00  0.00    +0.012 A 
ATOM     13  C   UNL     1     -12.955  -1.176  -2.377  0.00  0.00    +0.044 C 
ENDBRANCH   5   7
BRANCH   6  14
ATOM     14  N   UNL     1      -7.198   1.965  -1.319  0.00  0.00    -0.295 N 
ATOM     15  H   UNL     1      -8.276   2.094  -1.493  0.00  0.00    +0.163 HD
ATOM     16  H   UNL     1      -6.553   2.846  -1.182  0.00  0.00    +0.163 HD
ENDBRANCH   6  14
ENDBRANCH   1   2
BRANCH   1  17
ATOM     17  C   UNL     1      -2.649   0.337  -0.622  0.00  0.00    +0.173 C 
BRANCH  17  19
ATOM     18  N   UNL     1      -0.211   0.427  -0.216  0.00  0.00    -0.314 N 
ATOM     19  C   UNL     1      -1.369   1.095  -0.385  0.00  0.00    +0.223 C 
ATOM     20  O   UNL     1      -1.380   2.308  -0.347  0.00  0.00    -0.275 OA
ATOM     21  H   UNL     1      -0.202  -0.673  -0.246  0.00  0.00    +0.149 HD
BRANCH  18  22
ATOM     22  C   UNL     1       1.035   1.164   0.008  0.00  0.00    +0.112 C 
BRANCH  22  23
ATOM     23  C   UNL     1       2.169   0.176   0.290  0.00  0.00    +0.036 C 
BRANCH  23  24
ATOM     24  C   UNL     1       3.471   0.926   0.407  0.00  0.00    -0.043 A 
ATOM     25  C   UNL     1       3.622   1.900   1.376  0.00  0.00    +0.004 A 
ATOM     26  C   UNL     1       4.818   2.585   1.486  0.00  0.00    +0.000 A 
ATOM     27  C   UNL     1       5.859   2.302   0.622  0.00  0.00    +0.000 A 
ATOM     28  C   UNL     1       5.706   1.330  -0.350  0.00  0.00    +0.000 A 
ATOM     29  C   UNL     1       4.511   0.643  -0.457  0.00  0.00    +0.004 A 
ENDBRANCH  23  24
BRANCH  23  31
ATOM     30  C   UNL     1       2.950  -1.643   1.814  0.00  0.00    +0.004 C 
ATOM     31  C   UNL     1       1.887  -0.564   1.599  0.00  0.00    +0.006 C 
ENDBRANCH  23  31
ENDBRANCH  22  23
ENDBRANCH  18  22
ENDBRANCH  17  19
ENDBRANCH   1  17
TORSDOF 9
