REMARK  Name = ZINC20075515
REMARK  16 active torsions:
REMARK  status: ('A' for Active; 'I' for Inactive)
REMARK    1  A    between atoms: C_1  and  C_2
REMARK    2  A    between atoms: C_5  and  N_9
REMARK    3  A    between atoms: N_9  and  C_10
REMARK    4  A    between atoms: C_10  and  C_11
REMARK    5  A    between atoms: N_13  and  N_14
REMARK    6  A    between atoms: C_15  and  C_16
REMARK    7  A    between atoms: C_18  and  N_31
REMARK    8  A    between atoms: C_21  and  N_22
REMARK    9  A    between atoms: N_22  and  C_23
REMARK   10  A    between atoms: N_22  and  C_27
REMARK   11  A    between atoms: C_23  and  C_24
REMARK   12  A    between atoms: C_24  and  C_25
REMARK   13  A    between atoms: C_24  and  C_26
REMARK   14  A    between atoms: C_27  and  C_28
REMARK   15  A    between atoms: C_28  and  C_29
REMARK   16  A    between atoms: C_28  and  C_30
REMARK                            x       y       z     vdW  Elec       q    Type
REMARK                         _______ _______ _______ _____ _____    ______ ____
ROOT
ATOM      1  C   UNL     1      -1.928   2.697  -6.026  0.00  0.00    +0.018 A 
ATOM      2  C   UNL     1      -1.497   2.748  -7.353  0.00  0.00    +0.044 A 
ATOM      3  C   UNL     1      -2.353   3.197  -8.337  0.00  0.00    +0.127 A 
ATOM      4  C   UNL     1      -3.635   3.608  -8.014  0.00  0.00    +0.034 A 
ATOM      5  C   UNL     1      -4.073   3.569  -6.704  0.00  0.00    +0.026 A 
ATOM      6  C   UNL     1      -3.228   3.115  -5.702  0.00  0.00    +0.039 A 
ENDROOT
BRANCH   3   7
ATOM      7  N   UNL     1      -1.897   3.244  -9.745  0.00  0.00    +0.056 N 
ATOM      8  O   UNL     1      -2.649   3.644 -10.615  0.00  0.00    -0.126 OA
ATOM      9  O   UNL     1      -0.770   2.882 -10.032  0.00  0.00    -0.126 OA
ENDBRANCH   3   7
BRANCH   1  11
ATOM     10  N   UNL     1      -1.457   2.066  -3.757  0.00  0.00    -0.188 NA
ATOM     11  C   UNL     1      -1.021   2.213  -4.971  0.00  0.00    +0.140 C 
BRANCH  10  14
ATOM     12  C   UNL     1      -1.046   1.429  -1.500  0.00  0.00    +0.249 C 
ATOM     13  O   UNL     1      -2.216   1.625  -1.244  0.00  0.00    -0.272 OA
ATOM     14  N   UNL     1      -0.576   1.681  -2.737  0.00  0.00    -0.206 N 
ATOM     15  H   UNL     1       0.500   1.585  -2.947  0.00  0.00    +0.177 HD
BRANCH  12  16
ATOM     16  C   UNL     1      -0.119   0.904  -0.434  0.00  0.00    +0.199 C 
BRANCH  16  17
ATOM     17  N   UNL     1      -0.865   0.714   0.812  0.00  0.00    -0.334 N 
ATOM     18  H   UNL     1      -1.939   0.951   0.852  0.00  0.00    +0.147 HD
BRANCH  17  23
ATOM     19  C   UNL     1       1.780  -1.244   5.431  0.00  0.00    +0.044 C 
ATOM     20  C   UNL     1       1.077  -0.724   4.204  0.00  0.00    -0.049 A 
ATOM     21  C   UNL     1       1.783  -0.545   3.028  0.00  0.00    +0.005 A 
ATOM     22  C   UNL     1       1.142  -0.068   1.902  0.00  0.00    +0.024 A 
ATOM     23  C   UNL     1      -0.214   0.232   1.950  0.00  0.00    +0.042 A 
ATOM     24  C   UNL     1      -0.919   0.056   3.135  0.00  0.00    +0.039 A 
ATOM     25  C   UNL     1      -0.273  -0.427   4.256  0.00  0.00    +0.020 A 
ATOM     26 BR   UNL     1      -2.763   0.469   3.209  0.00  0.00    -0.048 Br
ENDBRANCH  17  23
ENDBRANCH  16  17
ENDBRANCH  12  16
ENDBRANCH  10  14
ENDBRANCH   1  11
BRANCH   6  27
ATOM     27  N   UNL     1      -3.667   3.074  -4.380  0.00  0.00    -0.329 N 
BRANCH  27  28
ATOM     28  C   UNL     1      -4.063   4.410  -3.916  0.00  0.00    +0.108 C 
BRANCH  28  29
ATOM     29  C   UNL     1      -2.831   5.315  -3.856  0.00  0.00    +0.000 C 
ATOM     30  C   UNL     1      -3.268   6.754  -3.572  0.00  0.00    +0.009 C 
ATOM     31  C   UNL     1      -1.899   4.835  -2.742  0.00  0.00    +0.009 C 
ENDBRANCH  28  29
ENDBRANCH  27  28
BRANCH  27  32
ATOM     32  C   UNL     1      -4.768   2.114  -4.221  0.00  0.00    +0.108 C 
BRANCH  32  33
ATOM     33  C   UNL     1      -4.203   0.693  -4.178  0.00  0.00    +0.000 C 
ATOM     34  C   UNL     1      -5.319  -0.289  -3.817  0.00  0.00    +0.009 C 
ATOM     35  C   UNL     1      -3.628   0.331  -5.548  0.00  0.00    +0.009 C 
ENDBRANCH  32  33
ENDBRANCH  27  32
ENDBRANCH   6  27
TORSDOF 11
