REMARK  Name = ZINC36503389
REMARK  8 active torsions:
REMARK  status: ('A' for Active; 'I' for Inactive)
REMARK    1  A    between atoms: C_3  and  C_6
REMARK    2  A    between atoms: C_6  and  N_7
REMARK    3  A    between atoms: N_7  and  C_8
REMARK    4  A    between atoms: C_8  and  C_10
REMARK    5  A    between atoms: C_8  and  C_20
REMARK    6  A    between atoms: C_12  and  N_17
REMARK    7  A    between atoms: N_22  and  C_23
REMARK    8  A    between atoms: C_29  and  C_31
REMARK                            x       y       z     vdW  Elec       q    Type
REMARK                         _______ _______ _______ _____ _____    ______ ____
ROOT
ATOM      1  C   UNL     1       4.269  -0.782   1.931  0.00  0.00    +0.194 C 
ENDROOT
BRANCH   1   2
ATOM      2  C   UNL     1       3.482  -1.000   3.198  0.00  0.00    +0.002 A 
ATOM      3  C   UNL     1       2.954   0.081   3.878  0.00  0.00    +0.040 A 
ATOM      4  C   UNL     1       2.232  -0.119   5.040  0.00  0.00    +0.127 A 
ATOM      5  C   UNL     1       2.038  -1.401   5.522  0.00  0.00    +0.034 A 
ATOM      6  C   UNL     1       2.565  -2.482   4.842  0.00  0.00    +0.022 A 
ATOM      7  C   UNL     1       3.283  -2.283   3.676  0.00  0.00    +0.047 A 
ATOM      8 CL   UNL     1       3.939  -3.642   2.817  0.00  0.00    -0.083 Cl
BRANCH   4   9
ATOM      9  N   UNL     1       1.667   1.039   5.769  0.00  0.00    +0.056 N 
ATOM     10  O   UNL     1       1.837   2.159   5.348  0.00  0.00    -0.126 OA
ATOM     11  O   UNL     1       1.036   0.864   6.785  0.00  0.00    -0.126 OA
ENDBRANCH   4   9
ENDBRANCH   1   2
BRANCH   1  12
ATOM     12  C   UNL     1       5.740  -0.739   2.256  0.00  0.00    +0.238 C 
ATOM     13  O   UNL     1       6.411   0.209   1.906  0.00  0.00    -0.273 OA
ATOM     14  N   UNL     1       6.311  -1.753   2.936  0.00  0.00    -0.311 N 
ATOM     15  H   UNL     1       5.792  -2.544   3.153  0.00  0.00    +0.149 HD
BRANCH  14  16
ATOM     16  C   UNL     1       7.714  -1.662   3.346  0.00  0.00    +0.073 C 
ATOM     17  C   UNL     1       8.613  -2.122   2.196  0.00  0.00    +0.022 C 
ATOM     18  C   UNL     1      10.078  -2.026   2.625  0.00  0.00    +0.002 C 
ATOM     19  C   UNL     1      10.312  -2.922   3.844  0.00  0.00    +0.000 C 
ATOM     20  C   UNL     1       9.413  -2.463   4.994  0.00  0.00    +0.002 C 
ATOM     21  C   UNL     1       7.948  -2.558   4.565  0.00  0.00    +0.022 C 
ENDBRANCH  14  16
ENDBRANCH   1  12
BRANCH   1  22
ATOM     22  N   UNL     1       3.867   0.486   1.319  0.00  0.00    -0.278 N 
ATOM     23  C   UNL     1       4.160   1.652   1.929  0.00  0.00    +0.231 C 
ATOM     24  O   UNL     1       4.840   1.657   2.932  0.00  0.00    -0.274 OA
BRANCH  23  25
ATOM     25  C   UNL     1       3.641   2.949   1.363  0.00  0.00    +0.204 C 
ATOM     26 CL   UNL     1       4.198   4.320   2.394  0.00  0.00    -0.116 Cl
ENDBRANCH  23  25
BRANCH  22  27
ATOM     27  C   UNL     1       3.147   0.488   0.043  0.00  0.00    +0.183 C 
BRANCH  27  30
ATOM     28  C   UNL     1      -0.448   0.988   0.683  0.00  0.00    +0.041 A 
ATOM     29  C   UNL     1       0.853   1.495   0.461  0.00  0.00    +0.046 A 
ATOM     30  C   UNL     1       1.663   0.433   0.303  0.00  0.00    +0.122 A 
ATOM     31  O   UNL     1       0.927  -0.684   0.417  0.00  0.00    -0.466 OA
ATOM     32  C   UNL     1      -0.355  -0.354   0.647  0.00  0.00    +0.195 A 
ENDBRANCH  27  30
ENDBRANCH  22  27
ENDBRANCH   1  22
TORSDOF 8
