REMARK  Name = ZINC66402333
REMARK  5 active torsions:
REMARK  status: ('A' for Active; 'I' for Inactive)
REMARK    1  A    between atoms: C_4  and  C_7
REMARK    2  A    between atoms: C_7  and  C_9
REMARK    3  A    between atoms: C_7  and  N_14
REMARK    4  A    between atoms: N_17  and  C_18
REMARK    5  A    between atoms: C_20  and  C_26
REMARK                            x       y       z     vdW  Elec       q    Type
REMARK                         _______ _______ _______ _____ _____    ______ ____
ROOT
ATOM      1  N   UNL     1       3.584  -2.184   0.942  0.00  0.00    -0.292 N 
ATOM      2  C   UNL     1       3.784  -2.034   2.267  0.00  0.00    +0.304 C 
ATOM      3  O   UNL     1       3.891  -0.920   2.742  0.00  0.00    -0.252 OA
ATOM      4  N   UNL     1       3.864  -3.118   3.063  0.00  0.00    -0.265 N 
ATOM      5  H   UNL     1       3.426  -3.067   0.573  0.00  0.00    +0.151 HD
ATOM      6  H   UNL     1       3.714  -4.002   2.695  0.00  0.00    +0.157 HD
ENDROOT
BRANCH   4   7
ATOM      7  C   UNL     1       4.163  -2.966   4.425  0.00  0.00    +0.100 A 
ATOM      8  C   UNL     1       5.268  -3.568   4.962  0.00  0.00    +0.042 A 
ATOM      9  C   UNL     1       5.544  -3.400   6.326  0.00  0.00    +0.073 A 
ATOM     10  C   UNL     1       4.724  -2.650   7.096  0.00  0.00    +0.098 A 
ATOM     11  N   UNL     1       3.625  -2.051   6.564  0.00  0.00    -0.327 N 
ATOM     12  H   UNL     1       3.048  -1.516   7.132  0.00  0.00    +0.168 HD
ATOM     13  C   UNL     1       3.332  -2.186   5.257  0.00  0.00    +0.270 A 
ATOM     14  O   UNL     1       2.345  -1.637   4.792  0.00  0.00    -0.266 OA
BRANCH   9  15
ATOM     15  C   UNL     1       6.757  -4.056   6.935  0.00  0.00    +0.419 C 
ATOM     16  F   UNL     1       6.820  -3.746   8.298  0.00  0.00    -0.166 F 
ATOM     17  F   UNL     1       6.665  -5.444   6.777  0.00  0.00    -0.166 F 
ATOM     18  F   UNL     1       7.910  -3.590   6.296  0.00  0.00    -0.166 F 
ENDBRANCH   9  15
ENDBRANCH   4   7
BRANCH   1  19
ATOM     19  C   UNL     1       3.607  -1.014   0.060  0.00  0.00    +0.108 C 
BRANCH  19  23
ATOM     20  C   UNL     1      -0.159   0.994   0.261  0.00  0.00    +0.000 A 
ATOM     21  C   UNL     1       1.013   1.725   0.208  0.00  0.00    +0.000 A 
ATOM     22  C   UNL     1       2.232   1.075   0.144  0.00  0.00    +0.005 A 
ATOM     23  C   UNL     1       2.278  -0.306   0.132  0.00  0.00    -0.027 A 
ATOM     24  C   UNL     1       1.107  -1.038   0.185  0.00  0.00    +0.005 A 
ATOM     25  C   UNL     1      -0.112  -0.388   0.248  0.00  0.00    +0.000 A 
ENDBRANCH  19  23
BRANCH  19  26
ATOM     26  C   UNL     1       3.867  -1.465  -1.378  0.00  0.00    +0.014 C 
ATOM     27  C   UNL     1       2.851  -2.553  -1.784  0.00  0.00    +0.006 C 
ATOM     28  C   UNL     1       3.670  -3.529  -2.664  0.00  0.00    +0.000 C 
ATOM     29  C   UNL     1       5.045  -3.560  -1.952  0.00  0.00    +0.000 C 
ATOM     30  C   UNL     1       5.263  -2.106  -1.485  0.00  0.00    +0.006 C 
ENDBRANCH  19  26
ENDBRANCH   1  19
TORSDOF 5
