REMARK  Name = ZINC59117917
REMARK  5 active torsions:
REMARK  status: ('A' for Active; 'I' for Inactive)
REMARK    1  A    between atoms: C_6  and  O_7
REMARK    2  A    between atoms: O_7  and  C_8
REMARK    3  A    between atoms: C_8  and  C_9
REMARK    4  A    between atoms: N_11  and  C_12
REMARK    5  A    between atoms: C_12  and  C_13
REMARK                            x       y       z     vdW  Elec       q    Type
REMARK                         _______ _______ _______ _____ _____    ______ ____
ROOT
ATOM      1  C   UNL     1      -3.937  -4.639   0.015  0.00  0.00    +0.141 C 
ENDROOT
BRANCH   1   2
ATOM      2  C   UNL     1      -3.849  -6.144   0.007  0.00  0.00    -0.014 A 
ATOM      3  C   UNL     1      -4.052  -6.852  -1.171  0.00  0.00    +0.010 A 
ATOM      4  C   UNL     1      -3.962  -8.232  -1.134  0.00  0.00    +0.042 A 
ATOM      5  C   UNL     1      -3.674  -8.860   0.073  0.00  0.00    +0.099 A 
ATOM      6  N   UNL     1      -3.487  -8.149   1.175  0.00  0.00    -0.349 N 
ATOM      7  C   UNL     1      -3.561  -6.831   1.169  0.00  0.00    +0.089 A 
ATOM      8  N   UNL     1      -3.582 -10.246   0.124  0.00  0.00    -0.317 N 
ATOM      9  C   UNL     1      -3.643 -10.990  -1.114  0.00  0.00    +0.106 C 
ATOM     10  C   UNL     1      -5.117 -11.334  -1.441  0.00  0.00    +0.019 C 
ATOM     11  C   UNL     1      -5.621 -12.358  -0.512  0.00  0.00    +0.002 C 
ATOM     12  C   UNL     1      -5.650 -11.921   0.949  0.00  0.00    +0.002 C 
ATOM     13  C   UNL     1      -4.295 -12.160   1.569  0.00  0.00    +0.019 C 
ATOM     14  C   UNL     1      -3.419 -10.896   1.439  0.00  0.00    +0.106 C 
ATOM     15  H   UNL     1      -3.288  -8.608   2.006  0.00  0.00    +0.167 HD
ENDBRANCH   1   2
BRANCH   1  18
ATOM     16  C   UNL     1      -2.454  -2.734  -0.314  0.00  0.00    +0.251 C 
ATOM     17  O   UNL     1      -3.400  -2.001  -0.118  0.00  0.00    -0.272 OA
ATOM     18  N   UNL     1      -2.617  -4.072  -0.270  0.00  0.00    -0.308 N 
ATOM     19  H   UNL     1      -1.860  -4.658  -0.426  0.00  0.00    +0.149 HD
BRANCH  16  20
ATOM     20  C   UNL     1      -1.095  -2.150  -0.607  0.00  0.00    +0.324 C 
BRANCH  20  21
ATOM     21  O   UNL     1      -1.179  -0.724  -0.599  0.00  0.00    -0.483 OA
BRANCH  21  27
ATOM     22  C   UNL     1      -0.041   1.350  -0.856  0.00  0.00    +0.046 A 
ATOM     23  C   UNL     1       1.125   2.045  -1.108  0.00  0.00    +0.018 A 
ATOM     24  C   UNL     1       2.302   1.360  -1.352  0.00  0.00    +0.014 A 
ATOM     25  C   UNL     1       2.313  -0.024  -1.345  0.00  0.00    +0.018 A 
ATOM     26  C   UNL     1       1.148  -0.723  -1.094  0.00  0.00    +0.046 A 
ATOM     27  C   UNL     1      -0.032  -0.037  -0.847  0.00  0.00    +0.121 A 
ATOM     28  I   UNL     1       4.069   2.418  -1.734  0.00  0.00    -0.044 I 
ENDBRANCH  21  27
ENDBRANCH  20  21
ENDBRANCH  16  20
ENDBRANCH   1  18
TORSDOF 5
