REMARK  Name = ZINC27061840
REMARK  9 active torsions:
REMARK  status: ('A' for Active; 'I' for Inactive)
REMARK    1  A    between atoms: C_1  and  C_2
REMARK    2  A    between atoms: C_2  and  O_3
REMARK    3  A    between atoms: O_3  and  C_4
REMARK    4  A    between atoms: C_4  and  C_6
REMARK    5  A    between atoms: C_9  and  N_12
REMARK    6  A    between atoms: C_13  and  C_15
REMARK    7  A    between atoms: C_15  and  C_16
REMARK    8  A    between atoms: C_28  and  C_30
REMARK    9  A    between atoms: C_31  and  C_32
REMARK                            x       y       z     vdW  Elec       q    Type
REMARK                         _______ _______ _______ _____ _____    ______ ____
ROOT
ATOM      1  C   UNL     1      -2.215   1.813   0.161  0.00  0.00    +0.176 C 
ATOM      2  C   UNL     1      -3.265   2.328  -0.791  0.00  0.00    +0.239 C 
ATOM      3  O   UNL     1      -3.944   1.541  -1.416  0.00  0.00    -0.273 OA
ATOM      4  N   UNL     1      -3.457   3.650  -0.956  0.00  0.00    -0.282 N 
ATOM      5  C   UNL     1      -2.653   4.579  -0.285  0.00  0.00    +0.055 A 
ATOM      6  C   UNL     1      -3.017   5.914  -0.220  0.00  0.00    +0.025 A 
ATOM      7  C   UNL     1      -2.206   6.817   0.444  0.00  0.00    +0.002 A 
ATOM      8  C   UNL     1      -1.033   6.394   1.043  0.00  0.00    +0.002 A 
ATOM      9  C   UNL     1      -0.663   5.062   0.985  0.00  0.00    +0.025 A 
ATOM     10  C   UNL     1      -1.471   4.154   0.329  0.00  0.00    +0.059 A 
ATOM     11  N   UNL     1      -1.125   2.796   0.250  0.00  0.00    -0.254 N 
ATOM     12  C   UNL     1       0.164   2.406   0.262  0.00  0.00    +0.244 C 
ATOM     13  O   UNL     1       1.047   3.224   0.444  0.00  0.00    -0.270 OA
ATOM     14  H   UNL     1      -4.252   4.011  -1.624  0.00  0.00    +0.155 HD
ENDROOT
BRANCH  12  15
ATOM     15  C   UNL     1       0.504   0.996   0.061  0.00  0.00    +0.068 C 
ATOM     16  C   UNL     1       1.796   0.617  -0.009  0.00  0.00    +0.014 C 
BRANCH  16  17
ATOM     17  C   UNL     1       2.137  -0.800  -0.211  0.00  0.00    -0.007 A 
ATOM     18  C   UNL     1       1.124  -1.757  -0.330  0.00  0.00    +0.009 A 
ATOM     19  C   UNL     1       1.452  -3.083  -0.519  0.00  0.00    +0.001 A 
ATOM     20  C   UNL     1       2.779  -3.469  -0.591  0.00  0.00    +0.001 A 
ATOM     21  C   UNL     1       3.788  -2.529  -0.474  0.00  0.00    +0.020 A 
ATOM     22  C   UNL     1       3.477  -1.197  -0.291  0.00  0.00    +0.048 A 
ATOM     23 CL   UNL     1       4.744  -0.018  -0.151  0.00  0.00    -0.083 Cl
ENDBRANCH  16  17
ENDBRANCH  12  15
BRANCH   1  24
ATOM     24  C   UNL     1      -2.835   1.609   1.545  0.00  0.00    +0.128 C 
BRANCH  24  26
ATOM     25  N   UNL     1      -2.095   0.823   3.770  0.00  0.00    -0.285 N 
ATOM     26  C   UNL     1      -1.827   0.960   2.457  0.00  0.00    +0.219 C 
ATOM     27  O   UNL     1      -0.773   0.560   2.008  0.00  0.00    -0.275 OA
ATOM     28  H   UNL     1      -3.079   1.117   4.164  0.00  0.00    +0.155 HD
BRANCH  25  32
ATOM     29  C   UNL     1       0.801  -0.714   6.339  0.00  0.00    +0.059 A 
ATOM     30  C   UNL     1      -0.059   0.297   6.778  0.00  0.00    +0.017 A 
ATOM     31  C   UNL     1      -1.015   0.802   5.926  0.00  0.00    +0.024 A 
ATOM     32  C   UNL     1      -1.126   0.308   4.630  0.00  0.00    +0.033 A 
ATOM     33  C   UNL     1      -0.275  -0.702   4.192  0.00  0.00    +0.024 A 
ATOM     34  C   UNL     1       0.687  -1.208   5.036  0.00  0.00    +0.017 A 
BRANCH  29  35
ATOM     35  C   UNL     1       1.827  -1.258   7.248  0.00  0.00    +0.339 C 
ATOM     36  O   UNL     1       1.925  -0.827   8.380  0.00  0.00    -0.245 OA
BRANCH  35  37
ATOM     37  O   UNL     1       2.655  -2.232   6.824  0.00  0.00    -0.461 OA
BRANCH  37  39
ATOM     38  C   UNL     1       4.483  -3.815   7.116  0.00  0.00    +0.048 C 
ATOM     39  C   UNL     1       3.640  -2.720   7.773  0.00  0.00    +0.229 C 
ENDBRANCH  37  39
ENDBRANCH  35  37
ENDBRANCH  29  35
ENDBRANCH  25  32
ENDBRANCH  24  26
ENDBRANCH   1  24
TORSDOF 8
