REMARK  Name = ZINC21265387
REMARK  9 active torsions:
REMARK  status: ('A' for Active; 'I' for Inactive)
REMARK    1  A    between atoms: C_1  and  C_2
REMARK    2  A    between atoms: C_2  and  C_3
REMARK    3  A    between atoms: N_9  and  S_10
REMARK    4  A    between atoms: S_10  and  C_13
REMARK    5  A    between atoms: C_16  and  N_19
REMARK    6  A    between atoms: C_20  and  C_22
REMARK    7  A    between atoms: C_22  and  N_23
REMARK    8  A    between atoms: N_26  and  C_29
REMARK    9  A    between atoms: C_32  and  N_35
REMARK                            x       y       z     vdW  Elec       q    Type
REMARK                         _______ _______ _______ _____ _____    ______ ____
ROOT
ATOM      1  N   UNL     1       8.899   2.514  -0.394  0.00  0.00    -0.287 N 
ATOM      2  C   UNL     1       9.081   3.380  -1.410  0.00  0.00    +0.201 C 
ATOM      3  O   UNL     1       8.132   3.978  -1.874  0.00  0.00    -0.278 OA
ATOM      4  H   UNL     1       9.739   1.898  -0.040  0.00  0.00    +0.155 HD
ENDROOT
BRANCH   1   8
ATOM      5  C   UNL     1       5.158   2.168   1.406  0.00  0.00    +0.106 A 
ATOM      6  C   UNL     1       5.987   1.064   1.319  0.00  0.00    +0.030 A 
ATOM      7  C   UNL     1       7.226   1.174   0.718  0.00  0.00    +0.025 A 
ATOM      8  C   UNL     1       7.643   2.398   0.211  0.00  0.00    +0.033 A 
ATOM      9  C   UNL     1       6.811   3.506   0.305  0.00  0.00    +0.025 A 
ATOM     10  C   UNL     1       5.571   3.387   0.902  0.00  0.00    +0.030 A 
BRANCH   5  11
ATOM     11  S   UNL     1       3.576   2.021   2.167  0.00  0.00    +0.061 S 
ATOM     12  O   UNL     1       3.142   3.342   2.458  0.00  0.00    -0.153 OA
ATOM     13  O   UNL     1       3.698   1.021   3.169  0.00  0.00    -0.153 OA
BRANCH  11  19
ATOM     14  C   UNL     1       1.924   2.313   0.030  0.00  0.00    +0.080 C 
ATOM     15  C   UNL     1       0.404   2.128   0.071  0.00  0.00    +0.021 C 
ATOM     16  C   UNL     1       0.069   0.647  -0.120  0.00  0.00    +0.003 C 
ATOM     17  C   UNL     1       0.686  -0.168   1.018  0.00  0.00    +0.017 C 
ATOM     18  C   UNL     1       2.210  -0.009   0.987  0.00  0.00    +0.110 C 
ATOM     19  N   UNL     1       2.537   1.423   1.025  0.00  0.00    -0.174 NA
BRANCH  14  21
ATOM     20  C   UNL     1       1.825   4.671  -0.791  0.00  0.00    +0.005 C 
ATOM     21  C   UNL     1       2.273   3.766   0.358  0.00  0.00    +0.017 C 
ENDBRANCH  14  21
ENDBRANCH  11  19
ENDBRANCH   5  11
ENDBRANCH   1   8
BRANCH   2  22
ATOM     22  C   UNL     1      10.461   3.607  -1.970  0.00  0.00    +0.019 C 
BRANCH  22  23
ATOM     23  N   UNL     1      10.392   4.589  -3.061  0.00  0.00    +0.387 N 
ATOM     24  C   UNL     1       9.638   4.054  -4.204  0.00  0.00    -0.059 C 
ATOM     25  C   UNL     1       9.521   5.132  -5.284  0.00  0.00    +0.086 C 
ATOM     26  N   UNL     1      10.866   5.557  -5.696  0.00  0.00    -0.333 N 
ATOM     27  C   UNL     1      11.620   6.091  -4.553  0.00  0.00    +0.086 C 
ATOM     28  C   UNL     1      11.737   5.013  -3.473  0.00  0.00    -0.059 C 
ATOM     29  H   UNL     1       9.857   5.473  -2.685  0.00  0.00    -0.081 HD
BRANCH  26  30
ATOM     30  C   UNL     1      10.801   6.490  -6.733  0.00  0.00    +0.030 A 
ATOM     31  C   UNL     1      11.402   7.734  -6.590  0.00  0.00    +0.025 A 
ATOM     32  C   UNL     1      11.340   8.652  -7.619  0.00  0.00    +0.034 A 
ATOM     33  C   UNL     1      10.671   8.338  -8.788  0.00  0.00    +0.126 A 
ATOM     34  C   UNL     1      10.066   7.103  -8.932  0.00  0.00    +0.034 A 
ATOM     35  C   UNL     1      10.129   6.178  -7.909  0.00  0.00    +0.025 A 
BRANCH  33  36
ATOM     36  N   UNL     1      10.601   9.327  -9.887  0.00  0.00    +0.056 N 
ATOM     37  O   UNL     1      10.013   9.052 -10.918  0.00  0.00    -0.126 OA
ATOM     38  O   UNL     1      11.133  10.416  -9.762  0.00  0.00    -0.126 OA
ENDBRANCH  33  36
ENDBRANCH  26  30
ENDBRANCH  22  23
ENDBRANCH   2  22
TORSDOF 8
