REMARK  Name = ZINC41803638
REMARK  5 active torsions:
REMARK  status: ('A' for Active; 'I' for Inactive)
REMARK    1  A    between atoms: C_1  and  C_2
REMARK    2  A    between atoms: C_2  and  C_4
REMARK    3  A    between atoms: C_2  and  N_10
REMARK    4  A    between atoms: N_10  and  C_11
REMARK    5  A    between atoms: C_11  and  C_21
REMARK                            x       y       z     vdW  Elec       q    Type
REMARK                         _______ _______ _______ _____ _____    ______ ____
ROOT
ATOM      1  C   UNL     1      -0.539  -0.519  -2.492  0.00  0.00    +0.068 C 
ATOM      2  C   UNL     1      -0.238   0.007  -3.897  0.00  0.00    +0.044 C 
ATOM      3  C   UNL     1       0.538   1.323  -3.763  0.00  0.00    +0.228 C 
ATOM      4  O   UNL     1      -0.314   2.287  -3.141  0.00  0.00    -0.492 OA
ATOM      5  C   UNL     1      -0.965   1.919  -2.007  0.00  0.00    +0.123 A 
ATOM      6  C   UNL     1      -1.107   0.591  -1.645  0.00  0.00    -0.006 A 
ATOM      7  C   UNL     1      -1.783   0.263  -0.482  0.00  0.00    +0.006 A 
ATOM      8  C   UNL     1      -2.313   1.255   0.320  0.00  0.00    +0.000 A 
ATOM      9  C   UNL     1      -2.170   2.583  -0.037  0.00  0.00    +0.004 A 
ATOM     10  C   UNL     1      -1.499   2.916  -1.196  0.00  0.00    +0.046 A 
ENDROOT
BRANCH   1  11
ATOM     11  N   UNL     1       0.701  -1.016  -1.880  0.00  0.00    +0.396 N 
ATOM     12  H   UNL     1       0.483  -1.487  -1.015  0.00  0.00    -0.083 HD
ATOM     13  H   UNL     1       1.318  -0.239  -1.694  0.00  0.00    -0.083 HD
BRANCH  11  15
ATOM     14  C   UNL     1       0.440  -3.154  -3.044  0.00  0.00    -0.011 C 
ATOM     15  C   UNL     1       1.358  -1.955  -2.798  0.00  0.00    -0.044 C 
BRANCH  15  16
ATOM     16  C   UNL     1       2.672  -2.438  -2.180  0.00  0.00    +0.104 C 
ATOM     17  C   UNL     1       3.682  -1.267  -2.082  0.00  0.00    +0.032 C 
ATOM     18  C   UNL     1       4.588  -1.756  -0.919  0.00  0.00    +0.030 C 
ATOM     19  C   UNL     1       3.586  -2.506  -0.016  0.00  0.00    +0.160 C 
ATOM     20  O   UNL     1       2.458  -2.865  -0.825  0.00  0.00    -0.378 OA
ENDBRANCH  15  16
ENDBRANCH  11  15
ENDBRANCH   1  11
BRANCH   1  21
ATOM     21  C   UNL     1      -1.539  -1.643  -2.582  0.00  0.00    +0.350 C 
ATOM     22  O   UNL     1      -1.638  -2.445  -1.669  0.00  0.00    -0.248 OA
ATOM     23  O   UNL     1      -2.249  -1.750  -3.567  0.00  0.00    -0.248 OA
ENDBRANCH   1  21
TORSDOF 4
