REMARK  Name = ZINC09332770
REMARK  10 active torsions:
REMARK  status: ('A' for Active; 'I' for Inactive)
REMARK    1  A    between atoms: C_1  and  C_2
REMARK    2  A    between atoms: C_5  and  C_8
REMARK    3  A    between atoms: C_13  and  C_28
REMARK    4  A    between atoms: C_25  and  C_27
REMARK    5  A    between atoms: C_30  and  O_38
REMARK    6  A    between atoms: C_31  and  O_36
REMARK    7  A    between atoms: C_32  and  O_34
REMARK    8  A    between atoms: O_34  and  C_35
REMARK    9  A    between atoms: O_36  and  C_37
REMARK   10  A    between atoms: O_38  and  C_39
REMARK                            x       y       z     vdW  Elec       q    Type
REMARK                         _______ _______ _______ _____ _____    ______ ____
ROOT
ATOM      1  C   UNL     1       0.249   3.859   1.529  0.00  0.00    +0.032 C 
ATOM      2  C   UNL     1       0.131   2.367   1.193  0.00  0.00    +0.088 C 
ATOM      3  C   UNL     1       1.486   1.847   0.817  0.00  0.00    +0.163 C 
ATOM      4  C   UNL     1       2.443   2.624   0.267  0.00  0.00    +0.037 C 
ATOM      5  C   UNL     1       3.745   1.968  -0.053  0.00  0.00    +0.147 C 
ATOM      6  N   UNL     1       4.889   2.836   0.071  0.00  0.00    -0.258 N 
ATOM      7  C   UNL     1       5.191   3.785  -0.891  0.00  0.00    +0.058 A 
ATOM      8  C   UNL     1       6.391   3.788  -1.571  0.00  0.00    +0.025 A 
ATOM      9  C   UNL     1       6.638   4.739  -2.544  0.00  0.00    +0.002 A 
ATOM     10  C   UNL     1       5.677   5.691  -2.838  0.00  0.00    +0.002 A 
ATOM     11  C   UNL     1       4.478   5.710  -2.162  0.00  0.00    +0.025 A 
ATOM     12  C   UNL     1       4.208   4.766  -1.162  0.00  0.00    +0.053 A 
ATOM     13  N   UNL     1       3.066   4.830  -0.468  0.00  0.00    -0.316 N 
ATOM     14  C   UNL     1       2.218   3.993   0.009  0.00  0.00    +0.017 C 
ATOM     15  C   UNL     1       0.841   4.571   0.313  0.00  0.00    +0.059 C 
ATOM     16  C   UNL     1       5.686   2.720   1.152  0.00  0.00    +0.218 C 
ATOM     17  O   UNL     1       5.436   1.893   2.004  0.00  0.00    -0.276 OA
ATOM     18  C   UNL     1       6.887   3.617   1.302  0.00  0.00    +0.110 C 
ATOM     19  O   UNL     1       1.760   0.542   1.034  0.00  0.00    -0.292 OA
ATOM     20  H   UNL     1       2.912   5.910  -0.326  0.00  0.00    +0.152 HD
ENDROOT
BRANCH   1  25
ATOM     21  C   UNL     1      -4.984   6.015   2.695  0.00  0.00    +0.044 C 
ATOM     22  C   UNL     1      -3.619   5.454   2.390  0.00  0.00    -0.050 A 
ATOM     23  C   UNL     1      -2.615   5.527   3.338  0.00  0.00    +0.003 A 
ATOM     24  C   UNL     1      -1.363   5.011   3.059  0.00  0.00    +0.004 A 
ATOM     25  C   UNL     1      -1.116   4.422   1.833  0.00  0.00    -0.043 A 
ATOM     26  C   UNL     1      -2.119   4.353   0.884  0.00  0.00    +0.004 A 
ATOM     27  C   UNL     1      -3.372   4.865   1.164  0.00  0.00    +0.003 A 
ENDBRANCH   1  25
BRANCH   5  28
ATOM     28  C   UNL     1       3.686   1.453  -1.468  0.00  0.00    -0.015 A 
ATOM     29  C   UNL     1       3.060   2.200  -2.449  0.00  0.00    +0.055 A 
ATOM     30  C   UNL     1       3.009   1.732  -3.753  0.00  0.00    +0.165 A 
ATOM     31  C   UNL     1       3.578   0.504  -4.072  0.00  0.00    +0.204 A 
ATOM     32  C   UNL     1       4.201  -0.246  -3.082  0.00  0.00    +0.165 A 
ATOM     33  C   UNL     1       4.253   0.232  -1.781  0.00  0.00    +0.055 A 
BRANCH  32  34
ATOM     34  O   UNL     1       4.758  -1.448  -3.389  0.00  0.00    -0.491 OA
ATOM     35  C   UNL     1       5.381  -2.166  -2.321  0.00  0.00    +0.277 C 
ENDBRANCH  32  34
BRANCH  31  36
ATOM     36  O   UNL     1       3.525   0.039  -5.349  0.00  0.00    -0.488 OA
ATOM     37  C   UNL     1       2.395  -0.762  -5.702  0.00  0.00    +0.277 C 
ENDBRANCH  31  36
BRANCH  30  38
ATOM     38  O   UNL     1       2.398   2.470  -4.718  0.00  0.00    -0.491 OA
ATOM     39  C   UNL     1       1.711   3.650  -4.295  0.00  0.00    +0.277 C 
ENDBRANCH  30  38
ENDBRANCH   5  28
TORSDOF 5
