REMARK  Name = ZINC29763410
REMARK  10 active torsions:
REMARK  status: ('A' for Active; 'I' for Inactive)
REMARK    1  A    between atoms: C_1  and  C_2
REMARK    2  A    between atoms: C_2  and  C_3
REMARK    3  A    between atoms: C_2  and  C_4
REMARK    4  A    between atoms: C_4  and  C_5
REMARK    5  A    between atoms: N_7  and  N_8
REMARK    6  A    between atoms: C_9  and  C_11
REMARK    7  A    between atoms: C_16  and  C_21
REMARK    8  A    between atoms: C_21  and  C_22
REMARK    9  A    between atoms: C_21  and  C_23
REMARK   10  A    between atoms: C_21  and  C_24
REMARK                            x       y       z     vdW  Elec       q    Type
REMARK                         _______ _______ _______ _____ _____    ______ ____
ROOT
ATOM      1  C   UNL     1      -5.584  -1.956   1.295  0.00  0.00    +0.104 A 
ATOM      2  C   UNL     1      -5.939  -0.645   1.306  0.00  0.00    +0.041 A 
ATOM      3  C   UNL     1      -4.749   0.123   1.298  0.00  0.00    +0.000 A 
ATOM      4  C   UNL     1      -4.493   1.501   1.303  0.00  0.00    +0.010 A 
ATOM      5  C   UNL     1      -3.206   1.952   1.298  0.00  0.00    +0.005 A 
ATOM      6  C   UNL     1      -2.143   1.058   1.278  0.00  0.00    -0.040 A 
ATOM      7  C   UNL     1      -2.368  -0.300   1.272  0.00  0.00    +0.030 A 
ATOM      8  C   UNL     1      -3.673  -0.785   1.283  0.00  0.00    +0.047 A 
ATOM      9  N   UNL     1      -4.206  -2.053   1.281  0.00  0.00    -0.351 N 
ATOM     10  H   UNL     1      -3.724  -3.042   1.271  0.00  0.00    +0.166 HD
ENDROOT
BRANCH   1  12
ATOM     11  N   UNL     1      -6.045  -4.354   1.286  0.00  0.00    -0.229 N 
ATOM     12  C   UNL     1      -6.518  -3.092   1.298  0.00  0.00    +0.276 C 
ATOM     13  O   UNL     1      -7.718  -2.893   1.311  0.00  0.00    -0.267 OA
ATOM     14  H   UNL     1      -4.960  -4.534   1.274  0.00  0.00    +0.173 HD
BRANCH  11  17
ATOM     15  C   UNL     1      -6.461  -6.698   1.276  0.00  0.00    +0.229 C 
ATOM     16  O   UNL     1      -5.265  -6.897   1.264  0.00  0.00    -0.274 OA
ATOM     17  N   UNL     1      -6.935  -5.436   1.288  0.00  0.00    -0.234 N 
ATOM     18  H   UNL     1      -8.020  -5.256   1.300  0.00  0.00    +0.173 HD
BRANCH  15  19
ATOM     19  C   UNL     1      -7.419  -7.862   1.279  0.00  0.00    +0.100 C 
BRANCH  19  21
ATOM     20  C   UNL     1      -7.595 -10.351   1.392  0.00  0.00    +0.008 C 
ATOM     21  C   UNL     1      -6.628  -9.172   1.264  0.00  0.00    -0.008 C 
ATOM     22  C   UNL     1      -5.856  -9.286  -0.052  0.00  0.00    +0.008 C 
ENDBRANCH  19  21
ENDBRANCH  15  19
ENDBRANCH  11  17
ENDBRANCH   1  12
BRANCH   6  23
ATOM     23  C   UNL     1      -0.729   1.579   1.267  0.00  0.00    -0.013 C 
ATOM     24  C   UNL     1      -0.013   1.086   0.008  0.00  0.00    +0.015 C 
ATOM     25  C   UNL     1       0.011   1.072   2.506  0.00  0.00    +0.015 C 
ATOM     26  C   UNL     1      -0.750   3.109   1.275  0.00  0.00    +0.015 C 
ENDBRANCH   6  23
TORSDOF 5
