REMARK  Name = ZINC49467713
REMARK  7 active torsions:
REMARK  status: ('A' for Active; 'I' for Inactive)
REMARK    1  A    between atoms: C_1  and  C_2
REMARK    2  A    between atoms: C_3  and  C_13
REMARK    3  A    between atoms: C_5  and  C_7
REMARK    4  A    between atoms: N_18  and  C_20
REMARK    5  A    between atoms: C_20  and  C_21
REMARK    6  A    between atoms: C_21  and  N_22
REMARK    7  A    between atoms: C_23  and  C_25
REMARK                            x       y       z     vdW  Elec       q    Type
REMARK                         _______ _______ _______ _____ _____    ______ ____
ROOT
ATOM      1  C   UNL     1      -0.009  -0.175  -2.574  0.00  0.00    +0.100 A 
ATOM      2  C   UNL     1      -0.008  -1.080  -3.663  0.00  0.00    +0.036 A 
ATOM      3  C   UNL     1      -0.023  -0.569  -4.926  0.00  0.00    +0.074 A 
ATOM      4  C   UNL     1      -0.038   0.836  -5.072  0.00  0.00    +0.267 A 
ATOM      5  O   UNL     1      -0.052   1.339  -6.184  0.00  0.00    -0.266 OA
ATOM      6  N   UNL     1      -0.038   1.617  -3.975  0.00  0.00    -0.227 N 
ATOM      7  N   UNL     1      -0.029   1.121  -2.791  0.00  0.00    -0.168 NA
ENDROOT
BRANCH   1  10
ATOM      8  C   UNL     1      -0.018   1.503   0.010  0.00  0.00    +0.067 C 
ATOM      9  C   UNL     1       0.002  -0.004   0.002  0.00  0.00    +0.055 A 
ATOM     10  C   UNL     1       0.005  -0.689  -1.189  0.00  0.00    +0.062 A 
ATOM     11  S   UNL     1       0.032  -2.377  -0.597  0.00  0.00    -0.065 S 
ATOM     12  C   UNL     1       0.036  -1.995   1.150  0.00  0.00    +0.109 A 
ATOM     13  N   UNL     1       0.022  -0.669   1.129  0.00  0.00    -0.244 NA
BRANCH  12  14
ATOM     14  C   UNL     1       0.055  -2.913   2.308  0.00  0.00    +0.007 A 
ATOM     15  C   UNL     1       0.079  -4.294   2.108  0.00  0.00    +0.010 A 
ATOM     16  C   UNL     1       0.096  -5.145   3.194  0.00  0.00    +0.001 A 
ATOM     17  C   UNL     1       0.090  -4.632   4.479  0.00  0.00    +0.000 A 
ATOM     18  C   UNL     1       0.066  -3.264   4.684  0.00  0.00    +0.001 A 
ATOM     19  C   UNL     1       0.054  -2.402   3.607  0.00  0.00    +0.010 A 
ENDBRANCH  12  14
ENDBRANCH   1  10
BRANCH   6  20
ATOM     20  C   UNL     1      -0.054   3.073  -4.137  0.00  0.00    +0.166 C 
BRANCH  20  21
ATOM     21  C   UNL     1      -1.502   3.566  -4.183  0.00  0.00    +0.127 C 
BRANCH  21  22
ATOM     22  N   UNL     1      -1.517   5.021  -4.346  0.00  0.00    -0.310 N 
ATOM     23  C   UNL     1      -2.692   5.679  -4.412  0.00  0.00    +0.257 C 
ATOM     24  O   UNL     1      -3.735   5.066  -4.337  0.00  0.00    -0.272 OA
ATOM     25  H   UNL     1      -0.682   5.512  -4.405  0.00  0.00    +0.149 HD
BRANCH  23  26
ATOM     26  C   UNL     1      -2.708   7.177  -4.579  0.00  0.00    +0.296 C 
ATOM     27  C   UNL     1      -2.124   7.551  -5.948  0.00  0.00    +0.283 C 
ATOM     28  O   UNL     1      -2.168   8.977  -6.079  0.00  0.00    -0.484 OA
ATOM     29  C   UNL     1      -3.332   9.588  -5.728  0.00  0.00    +0.162 A 
ATOM     30  C   UNL     1      -3.577  10.883  -6.158  0.00  0.00    +0.049 A 
ATOM     31  C   UNL     1      -4.753  11.518  -5.806  0.00  0.00    +0.004 A 
ATOM     32  C   UNL     1      -5.688  10.865  -5.026  0.00  0.00    +0.004 A 
ATOM     33  C   UNL     1      -5.450   9.573  -4.595  0.00  0.00    +0.049 A 
ATOM     34  C   UNL     1      -4.273   8.930  -4.945  0.00  0.00    +0.163 A 
ATOM     35  O   UNL     1      -4.056   7.655  -4.519  0.00  0.00    -0.473 OA
ENDBRANCH  23  26
ENDBRANCH  21  22
ENDBRANCH  20  21
ENDBRANCH   6  20
TORSDOF 6
