REMARK  Name = ZINC66119323
REMARK  8 active torsions:
REMARK  status: ('A' for Active; 'I' for Inactive)
REMARK    1  A    between atoms: C_1  and  C_2
REMARK    2  A    between atoms: C_5  and  S_8
REMARK    3  A    between atoms: S_8  and  C_9
REMARK    4  A    between atoms: C_9  and  C_10
REMARK    5  A    between atoms: C_10  and  N_11
REMARK    6  A    between atoms: C_18  and  C_21
REMARK    7  A    between atoms: C_21  and  C_22
REMARK    8  A    between atoms: C_22  and  C_23
REMARK                            x       y       z     vdW  Elec       q    Type
REMARK                         _______ _______ _______ _____ _____    ______ ____
ROOT
ATOM      1  N   UNL     1       0.114  -6.867   3.291  0.00  0.00    -0.298 N 
ATOM      2  C   UNL     1       0.128  -8.164   3.656  0.00  0.00    +0.302 C 
ATOM      3  O   UNL     1       0.038  -9.034   2.811  0.00  0.00    -0.253 OA
ATOM      4  N   UNL     1       0.240  -8.497   4.957  0.00  0.00    -0.285 N 
ATOM      5  C   UNL     1       0.228  -7.461   5.999  0.00  0.00    +0.109 C 
ATOM      6  C   UNL     1      -0.850  -7.812   7.030  0.00  0.00    +0.019 C 
ATOM      7  C   UNL     1      -0.606  -9.228   7.555  0.00  0.00    +0.006 C 
ATOM      8  C   UNL     1      -0.701 -10.226   6.399  0.00  0.00    +0.007 C 
ATOM      9  C   UNL     1       0.372  -9.904   5.361  0.00  0.00    +0.112 C 
ATOM     10  H   UNL     1       0.112  -6.173   3.969  0.00  0.00    +0.150 HD
ENDROOT
BRANCH   1  11
ATOM     11  C   UNL     1       0.101  -6.505   1.872  0.00  0.00    +0.116 C 
BRANCH  11  12
ATOM     12  C   UNL     1       0.087  -4.982   1.734  0.00  0.00    +0.093 C 
BRANCH  12  13
ATOM     13  S   UNL     1       0.072  -4.534  -0.024  0.00  0.00    -0.124 S 
BRANCH  13  18
ATOM     14  C   UNL     1       0.016   1.502   0.007  0.00  0.00    +0.044 C 
ATOM     15  C   UNL     1       0.030  -0.005  -0.001  0.00  0.00    -0.050 A 
ATOM     16  C   UNL     1       0.029  -0.689  -1.203  0.00  0.00    +0.004 A 
ATOM     17  C   UNL     1       0.042  -2.069  -1.214  0.00  0.00    +0.015 A 
ATOM     18  C   UNL     1       0.056  -2.772  -0.015  0.00  0.00    +0.008 A 
ATOM     19  C   UNL     1       0.057  -2.082   1.191  0.00  0.00    +0.015 A 
ATOM     20  C   UNL     1       0.050  -0.701   1.194  0.00  0.00    +0.004 A 
ENDBRANCH  13  18
ENDBRANCH  12  13
ENDBRANCH  11  12
ENDBRANCH   1  11
BRANCH   8  21
ATOM     21  C   UNL     1      -0.491 -11.646   6.931  0.00  0.00    +0.014 C 
BRANCH  21  22
ATOM     22  C   UNL     1      -0.709 -12.652   5.799  0.00  0.00    +0.096 C 
BRANCH  22  23
ATOM     23  C   UNL     1      -0.502 -14.050   6.323  0.00  0.00    +0.210 C 
ATOM     24  O   UNL     1      -0.208 -14.224   7.487  0.00  0.00    -0.276 OA
ATOM     25  N   UNL     1      -0.642 -15.106   5.498  0.00  0.00    -0.329 N 
ATOM     26  H   UNL     1      -0.877 -14.967   4.567  0.00  0.00    +0.145 HD
ATOM     27  H   UNL     1      -0.509 -16.006   5.835  0.00  0.00    +0.145 HD
ENDBRANCH  22  23
ENDBRANCH  21  22
ENDBRANCH   8  21
TORSDOF 7
