REMARK  Name = ZINC35317479
REMARK  13 active torsions:
REMARK  status: ('A' for Active; 'I' for Inactive)
REMARK    1  A    between atoms: C_1  and  C_2
REMARK    2  A    between atoms: C_2  and  C_3
REMARK    3  A    between atoms: C_3  and  C_5
REMARK    4  A    between atoms: C_3  and  N_6
REMARK    5  A    between atoms: N_6  and  C_7
REMARK    6  A    between atoms: C_7  and  C_8
REMARK    7  A    between atoms: N_12  and  C_13
REMARK    8  A    between atoms: C_13  and  C_14
REMARK    9  A    between atoms: C_20  and  C_22
REMARK   10  A    between atoms: C_22  and  C_23
REMARK   11  A    between atoms: C_23  and  C_24
REMARK   12  A    between atoms: C_23  and  C_25
REMARK   13  A    between atoms: C_23  and  C_26
REMARK                            x       y       z     vdW  Elec       q    Type
REMARK                         _______ _______ _______ _____ _____    ______ ____
ROOT
ATOM      1  C   UNL     1      -3.747   0.050   2.042  0.00  0.00    +0.161 C 
ENDROOT
BRANCH   1   2
ATOM      2  C   UNL     1      -5.049  -0.584   1.625  0.00  0.00    +0.036 A 
ATOM      3  C   UNL     1      -5.542  -1.753   2.083  0.00  0.00    +0.024 A 
ATOM      4  C   UNL     1      -6.774  -1.974   1.437  0.00  0.00    +0.019 A 
ATOM      5  C   UNL     1      -6.987  -0.932   0.607  0.00  0.00    +0.086 A 
ATOM      6  N   UNL     1      -5.934  -0.073   0.723  0.00  0.00    -0.345 N 
BRANCH   6   7
ATOM      7  C   UNL     1      -5.778   1.189  -0.005  0.00  0.00    +0.156 C 
BRANCH   7   8
ATOM      8  C   UNL     1      -4.987   0.948  -1.265  0.00  0.00    -0.028 A 
ATOM      9  C   UNL     1      -3.626   1.186  -1.283  0.00  0.00    +0.005 A 
ATOM     10  C   UNL     1      -2.901   0.965  -2.438  0.00  0.00    +0.000 A 
ATOM     11  C   UNL     1      -3.537   0.505  -3.576  0.00  0.00    +0.000 A 
ATOM     12  C   UNL     1      -4.898   0.266  -3.558  0.00  0.00    +0.000 A 
ATOM     13  C   UNL     1      -5.623   0.483  -2.401  0.00  0.00    +0.005 A 
ENDBRANCH   7   8
ENDBRANCH   6   7
ENDBRANCH   1   2
BRANCH   1  14
ATOM     14  N   UNL     1      -2.820  -0.990   2.496  0.00  0.00    -0.293 N 
ATOM     15  C   UNL     1      -2.885  -1.444   3.763  0.00  0.00    +0.217 C 
ATOM     16  O   UNL     1      -3.763  -1.054   4.503  0.00  0.00    -0.276 OA
BRANCH  14  17
ATOM     17  C   UNL     1      -1.823  -1.536   1.572  0.00  0.00    +0.073 C 
ATOM     18  C   UNL     1      -1.004  -0.392   0.971  0.00  0.00    +0.028 C 
BRANCH  17  20
ATOM     19  C   UNL     1      -3.202  -3.548   1.030  0.00  0.00    +0.005 C 
ATOM     20  C   UNL     1      -2.531  -2.301   0.451  0.00  0.00    +0.019 C 
ENDBRANCH  17  20
ENDBRANCH  14  17
BRANCH  15  21
ATOM     21  C   UNL     1      -1.867  -2.438   4.260  0.00  0.00    +0.102 C 
BRANCH  21  22
ATOM     22  C   UNL     1      -2.155  -2.773   5.725  0.00  0.00    -0.029 C 
ATOM     23  C   UNL     1      -3.556  -3.375   5.845  0.00  0.00    +0.011 C 
ATOM     24  C   UNL     1      -1.121  -3.782   6.230  0.00  0.00    +0.011 C 
ATOM     25  C   UNL     1      -2.075  -1.497   6.565  0.00  0.00    +0.011 C 
ENDBRANCH  21  22
ENDBRANCH  15  21
ENDBRANCH   1  14
TORSDOF 8
