REMARK  Name = ZINC10506174
REMARK  7 active torsions:
REMARK  status: ('A' for Active; 'I' for Inactive)
REMARK    1  A    between atoms: C_1  and  C_2
REMARK    2  A    between atoms: C_2  and  C_3
REMARK    3  A    between atoms: C_3  and  C_4
REMARK    4  A    between atoms: N_6  and  N_7
REMARK    5  A    between atoms: N_7  and  C_8
REMARK    6  A    between atoms: C_8  and  N_10
REMARK    7  A    between atoms: C_11  and  C_13
REMARK                            x       y       z     vdW  Elec       q    Type
REMARK                         _______ _______ _______ _____ _____    ______ ____
ROOT
ATOM      1  N   UNL     1      -1.246   5.982   0.044  0.00  0.00    -0.263 N 
ATOM      2  C   UNL     1      -0.070   5.324   0.029  0.00  0.00    +0.250 C 
ATOM      3  O   UNL     1       0.974   5.946   0.022  0.00  0.00    -0.270 OA
ATOM      4  H   UNL     1      -2.080   5.486   0.049  0.00  0.00    +0.157 HD
ENDROOT
BRANCH   2   5
ATOM      5  C   UNL     1      -0.050   3.846   0.022  0.00  0.00    +0.040 A 
ATOM      6  C   UNL     1       1.167   3.162   0.007  0.00  0.00    +0.033 A 
ATOM      7  C   UNL     1       1.179   1.782   0.000  0.00  0.00    +0.043 A 
ATOM      8  C   UNL     1      -0.013   1.076   0.008  0.00  0.00    +0.040 A 
ATOM      9  C   UNL     1      -1.222   1.749   0.017  0.00  0.00    +0.043 A 
ATOM     10  C   UNL     1      -1.248   3.129   0.030  0.00  0.00    +0.033 A 
ATOM     11 CL   UNL     1      -2.711   0.855   0.019  0.00  0.00    -0.083 Cl
ATOM     12 CL   UNL     1       2.691   0.929  -0.019  0.00  0.00    -0.083 Cl
ENDBRANCH   2   5
BRANCH   1  13
ATOM     13  C   UNL     1      -1.265   7.330   0.050  0.00  0.00    +0.153 C 
ATOM     14  S   UNL     1       0.206   8.206   0.040  0.00  0.00    -0.017 S 
BRANCH  13  15
ATOM     15  N   UNL     1      -2.441   7.988   0.065  0.00  0.00    -0.246 N 
ATOM     16  H   UNL     1      -2.454   8.957   0.069  0.00  0.00    +0.172 HD
BRANCH  15  19
ATOM     17  C   UNL     1      -4.821   7.929   0.087  0.00  0.00    +0.229 C 
ATOM     18  O   UNL     1      -4.837   9.141   0.093  0.00  0.00    -0.274 OA
ATOM     19  N   UNL     1      -3.644   7.271   0.073  0.00  0.00    -0.235 N 
ATOM     20  H   UNL     1      -3.631   6.301   0.068  0.00  0.00    +0.173 HD
BRANCH  17  21
ATOM     21  C   UNL     1      -6.115   7.157   0.096  0.00  0.00    +0.097 C 
BRANCH  21  23
ATOM     22  C   UNL     1      -8.606   7.353   0.120  0.00  0.00    +0.004 C 
ATOM     23  C   UNL     1      -7.292   8.136   0.112  0.00  0.00    +0.006 C 
ENDBRANCH  21  23
ENDBRANCH  17  21
ENDBRANCH  15  19
ENDBRANCH  13  15
ENDBRANCH   1  13
TORSDOF 6
