REMARK  Name = ZINC09961033
REMARK  7 active torsions:
REMARK  status: ('A' for Active; 'I' for Inactive)
REMARK    1  A    between atoms: C_3  and  C_6
REMARK    2  A    between atoms: C_6  and  C_8
REMARK    3  A    between atoms: C_6  and  N_65
REMARK    4  A    between atoms: C_8  and  N_9
REMARK    5  A    between atoms: C_10  and  C_12
REMARK    6  A    between atoms: C_15  and  S_18
REMARK    7  A    between atoms: S_18  and  N_21
REMARK                            x       y       z     vdW  Elec       q    Type
REMARK                         _______ _______ _______ _____ _____    ______ ____
ROOT
ATOM      1  N   UNL     1      -1.990   0.318   1.384  0.00  0.00    -0.312 N 
ATOM      2  C   UNL     1      -3.292   0.212   1.712  0.00  0.00    +0.244 C 
ATOM      3  O   UNL     1      -4.062  -0.365   0.969  0.00  0.00    -0.270 OA
ATOM      4  H   UNL     1      -1.376   0.779   1.978  0.00  0.00    +0.149 HD
ENDROOT
BRANCH   2   5
ATOM      5  C   UNL     1      -3.786   0.798   2.977  0.00  0.00    +0.037 A 
ATOM      6  C   UNL     1      -2.905   1.457   3.835  0.00  0.00    +0.015 A 
ATOM      7  C   UNL     1      -3.373   2.007   5.011  0.00  0.00    +0.029 A 
ATOM      8  C   UNL     1      -4.711   1.896   5.345  0.00  0.00    +0.106 A 
ATOM      9  C   UNL     1      -5.589   1.240   4.501  0.00  0.00    +0.029 A 
ATOM     10  C   UNL     1      -5.135   0.691   3.320  0.00  0.00    +0.015 A 
BRANCH   8  11
ATOM     11  S   UNL     1      -5.300   2.595   6.851  0.00  0.00    +0.061 S 
ATOM     12  O   UNL     1      -4.390   3.629   7.202  0.00  0.00    -0.153 OA
ATOM     13  O   UNL     1      -6.690   2.833   6.673  0.00  0.00    -0.153 OA
BRANCH  11  14
ATOM     14  N   UNL     1      -5.165   1.429   8.018  0.00  0.00    -0.177 NA
ATOM     15  C   UNL     1      -6.282   0.538   8.241  0.00  0.00    +0.109 C 
ATOM     16  C   UNL     1      -7.237   1.146   9.290  0.00  0.00    +0.017 C 
ATOM     17  C   UNL     1      -6.622   1.104  10.625  0.00  0.00    +0.001 C 
ATOM     18  C   UNL     1      -5.344   1.926  10.755  0.00  0.00    +0.001 C 
ATOM     19  C   UNL     1      -4.169   1.101  10.290  0.00  0.00    +0.017 C 
ATOM     20  C   UNL     1      -3.911   1.344   8.792  0.00  0.00    +0.109 C 
ENDBRANCH  11  14
ENDBRANCH   8  11
ENDBRANCH   2   5
BRANCH   1  21
ATOM     21  C   UNL     1      -1.500  -0.263   0.132  0.00  0.00    +0.097 C 
BRANCH  21  22
ATOM     22  C   UNL     1       0.002  -0.004   0.002  0.00  0.00    +0.016 C 
BRANCH  22  28
ATOM     23  C   UNL     1      -0.497   2.193  -0.883  0.00  0.00    -0.078 C 
ATOM     24  C   UNL     1      -0.316   3.693  -0.637  0.00  0.00    -0.019 C 
ATOM     25  C   UNL     1       1.172   4.044  -0.726  0.00  0.00    -0.004 C 
ATOM     26  C   UNL     1       1.947   3.207   0.296  0.00  0.00    -0.019 C 
ATOM     27  C   UNL     1       1.700   1.721   0.024  0.00  0.00    -0.078 C 
ATOM     28  N   UNL     1       0.253   1.445   0.148  0.00  0.00    +0.387 N 
ATOM     29  H   UNL     1      -0.065   1.746   1.076  0.00  0.00    -0.081 HD
ENDBRANCH  22  28
BRANCH  22  32
ATOM     30  C   UNL     1       1.450  -1.667  -2.951  0.00  0.00    +0.041 A 
ATOM     31  C   UNL     1       1.239  -1.583  -1.556  0.00  0.00    +0.043 A 
ATOM     32  C   UNL     1       0.482  -0.493  -1.340  0.00  0.00    +0.093 A 
ATOM     33  O   UNL     1       0.231   0.090  -2.524  0.00  0.00    -0.469 OA
ATOM     34  C   UNL     1       0.816  -0.617  -3.505  0.00  0.00    +0.195 A 
ENDBRANCH  22  32
ENDBRANCH  21  22
ENDBRANCH   1  21
TORSDOF 7
