REMARK  Name = ZINC09777265
REMARK  9 active torsions:
REMARK  status: ('A' for Active; 'I' for Inactive)
REMARK    1  A    between atoms: C_1  and  O_2
REMARK    2  A    between atoms: O_2  and  C_3
REMARK    3  A    between atoms: C_6  and  N_9
REMARK    4  A    between atoms: C_10  and  C_12
REMARK    5  A    between atoms: N_23  and  C_35
REMARK    6  A    between atoms: C_24  and  C_26
REMARK    7  A    between atoms: N_28  and  C_29
REMARK    8  A    between atoms: C_35  and  C_36
REMARK    9  A    between atoms: C_36  and  C_37
REMARK                            x       y       z     vdW  Elec       q    Type
REMARK                         _______ _______ _______ _____ _____    ______ ____
ROOT
ATOM      1  C   UNL     1      -7.368  -0.762   2.117  0.00  0.00    +0.123 C 
ATOM      2  C   UNL     1      -7.023  -1.912   3.119  0.00  0.00    +0.155 C 
ATOM      3  C   UNL     1      -7.104  -3.226   2.334  0.00  0.00    +0.004 C 
ATOM      4  C   UNL     1      -6.010  -3.261   1.533  0.00  0.00    +0.009 C 
ATOM      5  C   UNL     1      -5.325  -1.969   1.805  0.00  0.00    +0.127 C 
ATOM      6  C   UNL     1      -6.186  -0.835   1.135  0.00  0.00    +0.128 C 
ATOM      7  C   UNL     1      -5.233   0.325   1.209  0.00  0.00    +0.223 C 
ATOM      8  O   UNL     1      -5.551   1.495   1.233  0.00  0.00    -0.275 OA
ATOM      9  N   UNL     1      -3.959  -0.144   1.244  0.00  0.00    -0.286 N 
ATOM     10  C   UNL     1      -3.945  -1.623   1.343  0.00  0.00    +0.198 C 
ATOM     11  O   UNL     1      -5.564  -1.732   3.219  0.00  0.00    -0.358 OA
ENDROOT
BRANCH   1  13
ATOM     12  N   UNL     1      -8.160   1.572   2.323  0.00  0.00    -0.285 N 
ATOM     13  C   UNL     1      -7.405   0.571   2.818  0.00  0.00    +0.224 C 
ATOM     14  O   UNL     1      -6.756   0.744   3.828  0.00  0.00    -0.275 OA
ATOM     15  H   UNL     1      -8.732   1.414   1.555  0.00  0.00    +0.155 HD
BRANCH  12  19
ATOM     16  C   UNL     1      -8.041   5.346   4.091  0.00  0.00    +0.120 A 
ATOM     17  C   UNL     1      -8.191   5.229   2.717  0.00  0.00    +0.047 A 
ATOM     18  C   UNL     1      -8.230   3.979   2.131  0.00  0.00    +0.027 A 
ATOM     19  C   UNL     1      -8.120   2.840   2.917  0.00  0.00    +0.034 A 
ATOM     20  C   UNL     1      -7.976   2.958   4.293  0.00  0.00    +0.027 A 
ATOM     21  C   UNL     1      -7.931   4.208   4.877  0.00  0.00    +0.047 A 
BRANCH  16  23
ATOM     22  C   UNL     1      -7.846   6.623   6.088  0.00  0.00    +0.277 C 
ATOM     23  O   UNL     1      -8.002   6.577   4.668  0.00  0.00    -0.495 OA
ENDBRANCH  16  23
ENDBRANCH  12  19
ENDBRANCH   1  13
BRANCH  10  24
ATOM     24  C   UNL     1      -3.665  -2.240  -0.003  0.00  0.00    +0.237 C 
ATOM     25  O   UNL     1      -3.822  -1.587  -1.014  0.00  0.00    -0.274 OA
ATOM     26  N   UNL     1      -3.241  -3.516  -0.085  0.00  0.00    -0.311 N 
ATOM     27  H   UNL     1      -3.115  -4.038   0.723  0.00  0.00    +0.149 HD
BRANCH  26  28
ATOM     28  C   UNL     1      -2.969  -4.116  -1.394  0.00  0.00    +0.073 C 
ATOM     29  C   UNL     1      -4.270  -4.664  -1.984  0.00  0.00    +0.022 C 
ATOM     30  C   UNL     1      -3.986  -5.290  -3.350  0.00  0.00    +0.002 C 
ATOM     31  C   UNL     1      -2.978  -6.430  -3.190  0.00  0.00    +0.000 C 
ATOM     32  C   UNL     1      -1.677  -5.881  -2.600  0.00  0.00    +0.002 C 
ATOM     33  C   UNL     1      -1.961  -5.255  -1.233  0.00  0.00    +0.022 C 
ENDBRANCH  26  28
ENDBRANCH  10  24
BRANCH   9  34
ATOM     34  C   UNL     1      -2.762   0.699   1.197  0.00  0.00    +0.113 C 
BRANCH  34  35
ATOM     35  C   UNL     1      -2.334   0.896  -0.259  0.00  0.00    +0.049 C 
BRANCH  35  36
ATOM     36  C   UNL     1      -1.102   1.763  -0.307  0.00  0.00    -0.072 C 
ATOM     37  C   UNL     1       0.051   1.176  -0.359  0.00  0.00    -0.028 C 
ATOM     38  C   UNL     1       1.363   1.904  -0.408  0.00  0.00    +0.027 C 
ATOM     39  C   UNL     1       1.141   3.365  -0.804  0.00  0.00    +0.004 C 
ATOM     40  C   UNL     1       0.027   3.943   0.078  0.00  0.00    +0.005 C 
ATOM     41  C   UNL     1      -1.288   3.252  -0.287  0.00  0.00    +0.030 C 
ENDBRANCH  35  36
ENDBRANCH  34  35
ENDBRANCH   9  34
TORSDOF 8
