REMARK  Name = ZINC18935305
REMARK  7 active torsions:
REMARK  status: ('A' for Active; 'I' for Inactive)
REMARK    1  A    between atoms: C_1  and  N_61
REMARK    2  A    between atoms: C_2  and  C_3
REMARK    3  A    between atoms: C_2  and  N_61
REMARK    4  A    between atoms: N_5  and  C_6
REMARK    5  A    between atoms: C_11  and  C_12
REMARK    6  A    between atoms: N_14  and  C_15
REMARK    7  A    between atoms: C_24  and  N_61
REMARK                            x       y       z     vdW  Elec       q    Type
REMARK                         _______ _______ _______ _____ _____    ______ ____
ROOT
ATOM      1  C   UNL     1      -0.455   7.774   1.967  0.00  0.00    +0.046 A 
ATOM      2  C   UNL     1       0.789   8.118   2.478  0.00  0.00    +0.024 A 
ATOM      3  C   UNL     1       1.024   9.406   2.917  0.00  0.00    +0.002 A 
ATOM      4  C   UNL     1       0.025  10.363   2.851  0.00  0.00    +0.001 A 
ATOM      5  C   UNL     1      -1.216  10.040   2.346  0.00  0.00    +0.015 A 
ATOM      6  C   UNL     1      -1.468   8.742   1.894  0.00  0.00    +0.058 A 
ENDROOT
BRANCH   1   9
ATOM      7  C   UNL     1      -0.001   5.446   2.048  0.00  0.00    +0.201 C 
ATOM      8  O   UNL     1       0.763   5.636   2.971  0.00  0.00    -0.278 OA
ATOM      9  N   UNL     1      -0.695   6.475   1.525  0.00  0.00    -0.286 N 
ATOM     10  H   UNL     1      -1.362   6.312   0.839  0.00  0.00    +0.155 HD
BRANCH   7  11
ATOM     11  C   UNL     1      -0.173   4.058   1.487  0.00  0.00    +0.019 C 
BRANCH  11  13
ATOM     12  C   UNL     1       0.159   2.872   3.572  0.00  0.00    -0.095 C 
ATOM     13  N   UNL     1       0.713   3.134   2.227  0.00  0.00    +0.388 N 
ATOM     14  H   UNL     1       1.639   3.567   2.326  0.00  0.00    -0.081 HD
BRANCH  13  15
ATOM     15  C   UNL     1       0.853   1.864   1.483  0.00  0.00    -0.037 C 
ATOM     16  C   UNL     1      -0.523   1.286   1.158  0.00  0.00    -0.010 C 
ATOM     17  C   UNL     1      -0.336   0.100   0.204  0.00  0.00    +0.003 C 
ATOM     18  C   UNL     1       0.113   0.641  -1.153  0.00  0.00    +0.035 C 
ATOM     19  C   UNL     1       1.290   1.566  -0.990  0.00  0.00    -0.046 A 
ATOM     20  C   UNL     1       1.627   2.132   0.219  0.00  0.00    -0.058 A 
ATOM     21  C   UNL     1       2.724   2.981   0.299  0.00  0.00    +0.002 A 
ATOM     22  C   UNL     1       3.476   3.262  -0.822  0.00  0.00    +0.000 A 
ATOM     23  C   UNL     1       3.140   2.691  -2.035  0.00  0.00    +0.000 A 
ATOM     24  C   UNL     1       2.052   1.847  -2.117  0.00  0.00    +0.004 A 
ENDBRANCH  13  15
ENDBRANCH  11  13
ENDBRANCH   7  11
ENDBRANCH   1   9
BRANCH   6  25
ATOM     25  C   UNL     1      -2.792   8.391   1.347  0.00  0.00    +0.250 C 
ATOM     26  O   UNL     1      -3.042   7.237   1.054  0.00  0.00    -0.270 OA
ATOM     27  N   UNL     1      -3.724   9.348   1.172  0.00  0.00    -0.281 N 
ATOM     28  H   UNL     1      -3.504  10.277   1.342  0.00  0.00    +0.155 HD
BRANCH  27  29
ATOM     29  C   UNL     1      -5.012   9.001   0.745  0.00  0.00    +0.037 A 
ATOM     30  C   UNL     1      -6.114   9.695   1.228  0.00  0.00    +0.027 A 
ATOM     31  C   UNL     1      -7.385   9.354   0.808  0.00  0.00    +0.051 A 
ATOM     32  C   UNL     1      -7.565   8.319  -0.096  0.00  0.00    +0.166 A 
ATOM     33  C   UNL     1      -6.462   7.621  -0.581  0.00  0.00    +0.168 A 
ATOM     34  C   UNL     1      -5.187   7.967  -0.165  0.00  0.00    +0.072 A 
ATOM     35  O   UNL     1      -6.899   6.660  -1.447  0.00  0.00    -0.453 OA
ATOM     36  C   UNL     1      -8.242   7.043  -1.800  0.00  0.00    +0.466 C 
ATOM     37  O   UNL     1      -8.694   7.795  -0.658  0.00  0.00    -0.453 OA
ENDBRANCH  27  29
ENDBRANCH   6  25
TORSDOF 6
