REMARK  Name = ZINC07116430
REMARK  4 active torsions:
REMARK  status: ('A' for Active; 'I' for Inactive)
REMARK    1  A    between atoms: C_1  and  C_2
REMARK    2  A    between atoms: C_2  and  C_4
REMARK    3  A    between atoms: C_2  and  N_13
REMARK    4  A    between atoms: C_14  and  C_16
REMARK                            x       y       z     vdW  Elec       q    Type
REMARK                         _______ _______ _______ _____ _____    ______ ____
ROOT
ATOM      1  N   UNL     1       3.520   8.135   0.438  0.00  0.00    -0.305 N 
ATOM      2  C   UNL     1       3.491   6.820   0.145  0.00  0.00    +0.220 C 
ATOM      3  O   UNL     1       4.458   6.289  -0.358  0.00  0.00    -0.275 OA
ATOM      4  H   UNL     1       2.746   8.559   0.840  0.00  0.00    +0.149 HD
ENDROOT
BRANCH   2   5
ATOM      5  C   UNL     1       2.256   6.009   0.442  0.00  0.00    +0.117 C 
ATOM      6  C   UNL     1       2.469   4.561  -0.008  0.00  0.00    +0.055 C 
ATOM      7  C   UNL     1       1.154   3.824   0.011  0.00  0.00    -0.004 A 
ATOM      8  C   UNL     1       1.166   2.439   0.004  0.00  0.00    +0.027 A 
ATOM      9  C   UNL     1      -0.021   1.732   0.012  0.00  0.00    +0.041 A 
ATOM     10  C   UNL     1      -1.229   2.408   0.021  0.00  0.00    +0.023 A 
ATOM     11  C   UNL     1      -1.246   3.787   0.036  0.00  0.00    +0.047 A 
ATOM     12  C   UNL     1      -0.052   4.503   0.030  0.00  0.00    +0.124 A 
ATOM     13  O   UNL     1      -0.110   5.860   0.049  0.00  0.00    -0.491 OA
ATOM     14  C   UNL     1       1.062   6.583  -0.330  0.00  0.00    +0.242 C 
ATOM     15 CL   UNL     1       0.002  -0.004   0.002  0.00  0.00    -0.084 Cl
ENDBRANCH   2   5
BRANCH   1  17
ATOM     16  C   UNL     1       5.708   8.793   1.310  0.00  0.00    +0.036 C 
ATOM     17  C   UNL     1       4.720   8.924   0.149  0.00  0.00    +0.136 C 
BRANCH  17  18
ATOM     18  C   UNL     1       4.340  10.371  -0.026  0.00  0.00    +0.126 A 
ATOM     19  C   UNL     1       4.861  11.195  -0.945  0.00  0.00    +0.055 A 
ATOM     20  C   UNL     1       4.201  12.492  -0.753  0.00  0.00    +0.020 A 
ATOM     21  C   UNL     1       4.296  13.736  -1.376  0.00  0.00    +0.011 A 
ATOM     22  C   UNL     1       3.521  14.774  -0.939  0.00  0.00    +0.001 A 
ATOM     23  C   UNL     1       2.642  14.597   0.120  0.00  0.00    +0.004 A 
ATOM     24  C   UNL     1       2.535  13.374   0.749  0.00  0.00    +0.047 A 
ATOM     25  C   UNL     1       3.313  12.306   0.320  0.00  0.00    +0.135 A 
ATOM     26  O   UNL     1       3.432  11.024   0.720  0.00  0.00    -0.458 OA
ENDBRANCH  17  18
ENDBRANCH   1  17
TORSDOF 3
