REMARK  Name = ZINC02413801
REMARK  10 active torsions:
REMARK  status: ('A' for Active; 'I' for Inactive)
REMARK    1  A    between atoms: C_1  and  C_2
REMARK    2  A    between atoms: C_2  and  C_3
REMARK    3  A    between atoms: C_3  and  S_4
REMARK    4  A    between atoms: S_4  and  C_5
REMARK    5  A    between atoms: C_16  and  C_18
REMARK    6  A    between atoms: C_16  and  C_19
REMARK    7  A    between atoms: C_19  and  C_20
REMARK    8  A    between atoms: C_26  and  C_27
REMARK    9  A    between atoms: C_26  and  N_61
REMARK   10  A    between atoms: C_27  and  O_28
REMARK                            x       y       z     vdW  Elec       q    Type
REMARK                         _______ _______ _______ _____ _____    ______ ____
ROOT
ATOM      1  C   UNL     1       3.732   2.957  -0.518  0.00  0.00    +0.191 A 
ATOM      2  N   UNL     1       4.322   1.772  -0.457  0.00  0.00    -0.206 NA
ATOM      3  C   UNL     1       3.683   0.617  -0.619  0.00  0.00    +0.134 A 
ATOM      4  C   UNL     1       2.283   0.706  -0.873  0.00  0.00    +0.051 A 
ATOM      5  C   UNL     1       1.358  -0.392  -1.085  0.00  0.00    -0.020 A 
ATOM      6  C   UNL     1       0.063  -0.063  -1.309  0.00  0.00    +0.021 A 
ATOM      7  S   UNL     1       0.014   1.708  -1.249  0.00  0.00    -0.071 S 
ATOM      8  C   UNL     1       1.722   2.008  -0.924  0.00  0.00    +0.115 A 
ATOM      9  N   UNL     1       2.426   3.109  -0.752  0.00  0.00    -0.215 NA
ATOM     10  C   UNL     1      -1.063  -1.018  -1.554  0.00  0.00    +0.203 C 
ATOM     11  O   UNL     1      -0.498  -2.311  -1.824  0.00  0.00    -0.368 OA
ATOM     12  C   UNL     1       0.499  -2.705  -0.878  0.00  0.00    +0.071 C 
ATOM     13  C   UNL     1       1.764  -1.863  -1.065  0.00  0.00    +0.071 C 
ATOM     14  C   UNL     1      -0.041  -2.501   0.539  0.00  0.00    +0.042 C 
ATOM     15  N   UNL     1       4.339  -0.599  -0.546  0.00  0.00    -0.318 N 
ATOM     16  C   UNL     1       4.955  -0.786   0.774  0.00  0.00    +0.088 C 
ATOM     17  C   UNL     1       5.601  -2.173   0.841  0.00  0.00    -0.059 C 
ATOM     18  C   UNL     1       5.986  -2.108  -1.548  0.00  0.00    -0.059 C 
ATOM     19  C   UNL     1       5.340  -0.722  -1.615  0.00  0.00    +0.088 C 
ATOM     20  N   UNL     1       6.621  -2.275  -0.224  0.00  0.00    +0.383 N 
ATOM     21  H   UNL     1       7.317  -1.532  -0.092  0.00  0.00    -0.082 HD
ENDROOT
BRANCH  12  22
ATOM     22  C   UNL     1       0.838  -4.183  -1.083  0.00  0.00    +0.032 C 
ATOM     23  C   UNL     1      -0.425  -5.027  -0.897  0.00  0.00    +0.007 C 
ENDBRANCH  12  22
BRANCH   1  24
ATOM     24  S   UNL     1       4.716   4.399  -0.281  0.00  0.00    -0.086 S 
BRANCH  24  25
ATOM     25  C   UNL     1       3.449   5.679  -0.464  0.00  0.00    +0.077 C 
BRANCH  25  27
ATOM     26  C   UNL     1       3.016   8.139  -0.446  0.00  0.00    +0.004 C 
ATOM     27  C   UNL     1       4.088   7.058  -0.292  0.00  0.00    +0.008 C 
ENDBRANCH  25  27
ENDBRANCH  24  25
ENDBRANCH   1  24
BRANCH  20  28
ATOM     28  C   UNL     1       7.298  -3.587  -0.150  0.00  0.00    -0.051 C 
BRANCH  28  29
ATOM     29  C   UNL     1       6.272  -4.711   0.010  0.00  0.00    +0.137 C 
BRANCH  29  30
ATOM     30  O   UNL     1       5.482  -4.806  -1.177  0.00  0.00    -0.397 OA
ATOM     31  H   UNL     1       4.809  -5.500  -1.146  0.00  0.00    +0.209 HD
ENDBRANCH  29  30
ENDBRANCH  28  29
ENDBRANCH  20  28
TORSDOF 7
