REMARK  Name = ZINC63084010
REMARK  6 active torsions:
REMARK  status: ('A' for Active; 'I' for Inactive)
REMARK    1  A    between atoms: C_1  and  C_2
REMARK    2  A    between atoms: C_7  and  S_10
REMARK    3  A    between atoms: S_10  and  C_11
REMARK    4  A    between atoms: C_11  and  C_12
REMARK    5  A    between atoms: N_18  and  C_21
REMARK    6  A    between atoms: N_22  and  C_23
REMARK                            x       y       z     vdW  Elec       q    Type
REMARK                         _______ _______ _______ _____ _____    ______ ____
ROOT
ATOM      1  C   UNL     1       2.424  -5.071   3.635  0.00  0.00    +0.143 A 
ATOM      2  N   UNL     1       3.735  -5.220   3.571  0.00  0.00    -0.216 NA
ATOM      3  C   UNL     1       4.415  -5.770   4.571  0.00  0.00    +0.133 A 
ATOM      4  C   UNL     1       3.703  -6.195   5.710  0.00  0.00    +0.078 A 
ATOM      5  C   UNL     1       4.059  -6.804   6.933  0.00  0.00    +0.148 A 
ATOM      6  N   UNL     1       2.977  -6.979   7.636  0.00  0.00    -0.177 NA
ATOM      7  N   UNL     1       1.869  -6.503   6.925  0.00  0.00    -0.249 N 
ATOM      8  C   UNL     1       2.307  -6.015   5.729  0.00  0.00    +0.163 A 
ATOM      9  N   UNL     1       1.717  -5.447   4.678  0.00  0.00    -0.212 NA
ATOM     10  C   UNL     1       0.478  -6.525   7.385  0.00  0.00    +0.174 C 
ATOM     11  N   UNL     1       5.785  -5.923   4.495  0.00  0.00    -0.331 N 
ATOM     12  C   UNL     1       6.508  -5.475   3.302  0.00  0.00    +0.127 C 
ATOM     13  H   UNL     1       6.270  -6.326   5.232  0.00  0.00    +0.147 HD
ENDROOT
BRANCH   1  14
ATOM     14  C   UNL     1       1.710  -4.439   2.468  0.00  0.00    +0.145 C 
BRANCH  14  15
ATOM     15  S   UNL     1       1.640  -2.642   2.703  0.00  0.00    -0.150 S 
BRANCH  15  21
ATOM     16  C   UNL     1      -0.019   1.526   0.010  0.00  0.00    +0.007 C 
ATOM     17  C   UNL     1       0.002  -0.004   0.002  0.00  0.00    -0.013 C 
ATOM     18  C   UNL     1      -1.433  -0.534   0.013  0.00  0.00    +0.003 C 
ATOM     19  C   UNL     1      -1.413  -2.063   0.004  0.00  0.00    +0.001 C 
ATOM     20  C   UNL     1      -0.673  -2.570   1.244  0.00  0.00    +0.014 C 
ATOM     21  C   UNL     1       0.763  -2.041   1.233  0.00  0.00    +0.047 C 
ATOM     22  C   UNL     1       0.742  -0.511   1.242  0.00  0.00    +0.017 C 
ENDBRANCH  15  21
ENDBRANCH  14  15
ENDBRANCH   1  14
TORSDOF 3
