REMARK  Name = ZINC21236717
REMARK  9 active torsions:
REMARK  status: ('A' for Active; 'I' for Inactive)
REMARK    1  A    between atoms: C_1  and  C_2
REMARK    2  A    between atoms: C_2  and  C_4
REMARK    3  A    between atoms: C_2  and  N_12
REMARK    4  A    between atoms: C_13  and  C_15
REMARK    5  A    between atoms: C_15  and  S_16
REMARK    6  A    between atoms: S_16  and  C_17
REMARK    7  A    between atoms: C_20  and  C_29
REMARK    8  A    between atoms: N_21  and  C_22
REMARK    9  A    between atoms: C_22  and  C_23
REMARK                            x       y       z     vdW  Elec       q    Type
REMARK                         _______ _______ _______ _____ _____    ______ ____
ROOT
ATOM      1  S   UNL     1      -1.213   7.418   2.480  0.00  0.00    -0.077 S 
ENDROOT
BRANCH   1   2
ATOM      2  C   UNL     1      -2.827   7.723   3.116  0.00  0.00    +0.192 A 
ATOM      3  N   UNL     1      -3.854   6.906   3.059  0.00  0.00    -0.122 NA
ATOM      4  N   UNL     1      -4.879   7.443   3.619  0.00  0.00    -0.128 NA
ATOM      5  C   UNL     1      -4.569   8.639   4.069  0.00  0.00    +0.172 A 
ATOM      6  N   UNL     1      -3.243   8.853   3.765  0.00  0.00    -0.299 N 
BRANCH   5   7
ATOM      7  C   UNL     1      -5.468   9.570   4.769  0.00  0.00    +0.056 A 
ATOM      8  C   UNL     1      -6.691   9.326   5.342  0.00  0.00    +0.019 A 
ATOM      9  C   UNL     1      -7.354  10.366   5.954  0.00  0.00    +0.008 A 
ATOM     10  C   UNL     1      -6.786  11.600   5.961  0.00  0.00    +0.046 A 
ATOM     11  S   UNL     1      -5.255  11.314   5.089  0.00  0.00    -0.094 S 
ENDBRANCH   5   7
BRANCH   6  12
ATOM     12  C   UNL     1      -2.445  10.043   4.070  0.00  0.00    +0.157 C 
BRANCH  12  13
ATOM     13  C   UNL     1      -2.554  11.040   2.915  0.00  0.00    +0.138 C 
ATOM     14  C   UNL     1      -1.761  12.331   3.242  0.00  0.00    +0.035 C 
ATOM     15  C   UNL     1      -1.459  12.860   1.814  0.00  0.00    +0.031 C 
ATOM     16  C   UNL     1      -1.277  11.554   1.011  0.00  0.00    +0.160 C 
ATOM     17  O   UNL     1      -1.933  10.507   1.735  0.00  0.00    -0.375 OA
ENDBRANCH  12  13
ENDBRANCH   6  12
ENDBRANCH   1   2
BRANCH   1  18
ATOM     18  C   UNL     1      -1.452   5.759   1.798  0.00  0.00    +0.173 C 
BRANCH  18  20
ATOM     19  N   UNL     1      -0.104   4.060   0.609  0.00  0.00    -0.308 N 
ATOM     20  C   UNL     1      -0.163   5.278   1.182  0.00  0.00    +0.224 C 
ATOM     21  O   UNL     1       0.820   5.987   1.203  0.00  0.00    -0.275 OA
ATOM     22  H   UNL     1      -0.996   3.417   0.590  0.00  0.00    +0.149 HD
BRANCH  19  24
ATOM     23  C   UNL     1       1.254   4.112  -1.425  0.00  0.00    +0.033 C 
ATOM     24  C   UNL     1       1.149   3.593   0.010  0.00  0.00    +0.102 C 
BRANCH  24  25
ATOM     25  C   UNL     1       1.171   2.086   0.002  0.00  0.00    -0.009 A 
ATOM     26  C   UNL     1      -0.017   1.378   0.010  0.00  0.00    +0.008 A 
ATOM     27  C   UNL     1       0.002  -0.004   0.002  0.00  0.00    +0.020 A 
ATOM     28  C   UNL     1       1.210  -0.680  -0.013  0.00  0.00    +0.042 A 
ATOM     29  C   UNL     1       2.398   0.028  -0.021  0.00  0.00    +0.040 A 
ATOM     30  C   UNL     1       2.378   1.411  -0.013  0.00  0.00    +0.047 A 
ATOM     31 CL   UNL     1       3.869   2.300  -0.022  0.00  0.00    -0.083 Cl
ATOM     32 CL   UNL     1       1.233  -2.416  -0.023  0.00  0.00    -0.083 Cl
ENDBRANCH  24  25
ENDBRANCH  19  24
ENDBRANCH  18  20
ENDBRANCH   1  18
TORSDOF 8
