REMARK  Name = ZINC08734752
REMARK  7 active torsions:
REMARK  status: ('A' for Active; 'I' for Inactive)
REMARK    1  A    between atoms: C_1  and  C_2
REMARK    2  A    between atoms: C_15  and  C_17
REMARK    3  A    between atoms: C_17  and  N_57
REMARK    4  A    between atoms: C_18  and  C_20
REMARK    5  A    between atoms: C_18  and  C_21
REMARK    6  A    between atoms: C_18  and  N_57
REMARK    7  A    between atoms: C_24  and  C_27
REMARK                            x       y       z     vdW  Elec       q    Type
REMARK                         _______ _______ _______ _____ _____    ______ ____
ROOT
ATOM      1  C   UNL     1       3.664   5.507   1.385  0.00  0.00    +0.016 C 
ENDROOT
BRANCH   1  15
ATOM      2  C   UNL     1       4.862   9.676   3.010  0.00  0.00    +0.029 C 
ATOM      3  C   UNL     1       4.468   8.403   3.762  0.00  0.00    +0.087 C 
ATOM      4  C   UNL     1       5.383   8.228   4.976  0.00  0.00    +0.118 C 
ATOM      5  C   UNL     1       5.289   6.818   5.496  0.00  0.00    +0.219 C 
ATOM      6  O   UNL     1       4.665   6.591   6.511  0.00  0.00    -0.275 OA
ATOM      7  N   UNL     1       5.895   5.803   4.841  0.00  0.00    -0.284 N 
ATOM      8  C   UNL     1       6.546   6.030   3.622  0.00  0.00    +0.055 A 
ATOM      9  C   UNL     1       7.829   5.560   3.401  0.00  0.00    +0.025 A 
ATOM     10  C   UNL     1       8.437   5.771   2.177  0.00  0.00    +0.002 A 
ATOM     11  C   UNL     1       7.767   6.448   1.174  0.00  0.00    +0.002 A 
ATOM     12  C   UNL     1       6.490   6.932   1.392  0.00  0.00    +0.025 A 
ATOM     13  C   UNL     1       5.878   6.734   2.625  0.00  0.00    +0.058 A 
ATOM     14  N   UNL     1       4.599   7.251   2.870  0.00  0.00    -0.268 N 
ATOM     15  C   UNL     1       3.511   6.694   2.301  0.00  0.00    +0.203 C 
ATOM     16  O   UNL     1       2.409   7.148   2.527  0.00  0.00    -0.277 OA
ATOM     17  H   UNL     1       5.880   4.909   5.218  0.00  0.00    +0.155 HD
ENDBRANCH   1  15
BRANCH   1  18
ATOM     18  N   UNL     1       2.333   5.096   0.901  0.00  0.00    +0.389 N 
ATOM     19  H   UNL     1       1.902   5.876   0.392  0.00  0.00    -0.084 HD
ATOM     20  H   UNL     1       1.744   4.843   1.704  0.00  0.00    -0.084 HD
BRANCH  18  21
ATOM     21  C   UNL     1       2.452   3.933   0.001  0.00  0.00    -0.043 C 
ATOM     22  C   UNL     1       2.750   4.417  -1.420  0.00  0.00    -0.009 C 
BRANCH  21  23
ATOM     23  C   UNL     1       1.155   3.167   0.009  0.00  0.00    -0.062 A 
ATOM     24  C   UNL     1       1.172   1.783   0.000  0.00  0.00    +0.002 A 
ATOM     25  C   UNL     1      -0.013   1.076   0.008  0.00  0.00    +0.009 A 
ATOM     26  C   UNL     1      -1.228   1.757   0.017  0.00  0.00    -0.018 A 
ATOM     27  C   UNL     1      -1.239   3.151   0.032  0.00  0.00    +0.009 A 
ATOM     28  C   UNL     1      -0.048   3.848   0.024  0.00  0.00    +0.002 A 
BRANCH  26  29
ATOM     29  C   UNL     1      -2.505   1.002   0.019  0.00  0.00    -0.018 A 
ATOM     30  C   UNL     1      -2.494  -0.391   0.005  0.00  0.00    +0.008 A 
ATOM     31  C   UNL     1      -3.685  -1.089   0.011  0.00  0.00    +0.001 A 
ATOM     32  C   UNL     1      -4.888  -0.407   0.021  0.00  0.00    +0.000 A 
ATOM     33  C   UNL     1      -4.905   0.976   0.029  0.00  0.00    +0.001 A 
ATOM     34  C   UNL     1      -3.720   1.683   0.028  0.00  0.00    +0.008 A 
ENDBRANCH  26  29
ENDBRANCH  21  23
ENDBRANCH  18  21
ENDBRANCH   1  18
TORSDOF 5
