REMARK  Name = ZINC13960873
REMARK  11 active torsions:
REMARK  status: ('A' for Active; 'I' for Inactive)
REMARK    1  A    between atoms: C_1  and  C_2
REMARK    2  A    between atoms: C_2  and  N_3
REMARK    3  A    between atoms: C_5  and  C_8
REMARK    4  A    between atoms: C_10  and  C_30
REMARK    5  A    between atoms: C_15  and  C_28
REMARK    6  A    between atoms: C_15  and  O_29
REMARK    7  A    between atoms: C_16  and  C_18
REMARK    8  A    between atoms: N_20  and  C_21
REMARK    9  A    between atoms: C_26  and  C_27
REMARK   10  A    between atoms: N_32  and  C_33
REMARK   11  A    between atoms: C_38  and  C_39
REMARK                            x       y       z     vdW  Elec       q    Type
REMARK                         _______ _______ _______ _____ _____    ______ ____
ROOT
ATOM      1  C   UNL     1       0.433  -0.632  -1.301  0.00  0.00    +0.056 C 
ATOM      2  C   UNL     1       1.875  -0.118  -1.241  0.00  0.00    +0.149 C 
ATOM      3  C   UNL     1       1.845   1.392  -1.158  0.00  0.00    +0.148 C 
ATOM      4  O   UNL     1       2.497   2.067  -1.918  0.00  0.00    -0.296 OA
ATOM      5  C   UNL     1       0.976   2.035  -0.100  0.00  0.00    +0.110 C 
ATOM      6  C   UNL     1      -0.434   1.442  -0.201  0.00  0.00    +0.082 C 
ATOM      7  C   UNL     1      -0.352  -0.082  -0.109  0.00  0.00    +0.116 C 
ATOM      8  C   UNL     1      -1.296   1.977   0.945  0.00  0.00    +0.042 C 
ENDROOT
BRANCH   1  11
ATOM      9  N   UNL     1       0.176  -4.235  -1.798  0.00  0.00    -0.271 N 
ATOM     10  C   UNL     1       0.011  -2.968  -2.232  0.00  0.00    +0.112 A 
ATOM     11  C   UNL     1       0.434  -2.138  -1.250  0.00  0.00    -0.005 A 
ATOM     12  C   UNL     1       0.878  -2.925  -0.182  0.00  0.00    +0.138 A 
ATOM     13  N   UNL     1       0.718  -4.183  -0.508  0.00  0.00    -0.179 NA
BRANCH   9  15
ATOM     14  C   UNL     1       1.081  -6.351  -2.627  0.00  0.00    +0.029 C 
ATOM     15  C   UNL     1      -0.154  -5.452  -2.546  0.00  0.00    +0.140 C 
ENDBRANCH   9  15
ENDBRANCH   1  11
BRANCH   7  16
ATOM     16  C   UNL     1       0.342  -0.470   1.171  0.00  0.00    +0.224 C 
ATOM     17  O   UNL     1       1.448  -0.037   1.416  0.00  0.00    -0.275 OA
ATOM     18  N   UNL     1      -0.265  -1.299   2.043  0.00  0.00    -0.285 N 
ATOM     19  H   UNL     1      -1.123  -1.694   1.819  0.00  0.00    +0.155 HD
BRANCH  18  20
ATOM     20  C   UNL     1       0.341  -1.591   3.270  0.00  0.00    +0.036 A 
ATOM     21  C   UNL     1       1.720  -1.498   3.404  0.00  0.00    +0.023 A 
ATOM     22  C   UNL     1       2.315  -1.786   4.617  0.00  0.00    +0.002 A 
ATOM     23  C   UNL     1       1.539  -2.166   5.696  0.00  0.00    +0.000 A 
ATOM     24  C   UNL     1       0.166  -2.260   5.566  0.00  0.00    +0.005 A 
ATOM     25  C   UNL     1      -0.436  -1.968   4.357  0.00  0.00    -0.029 A 
ATOM     26  C   UNL     1      -1.933  -2.064   4.218  0.00  0.00    +0.045 C 
ENDBRANCH  18  20
ENDBRANCH   7  16
BRANCH   2  27
ATOM     27  C   UNL     1       2.616  -0.542  -2.483  0.00  0.00    +0.228 C 
ATOM     28  O   UNL     1       2.048  -1.192  -3.335  0.00  0.00    -0.275 OA
ATOM     29  N   UNL     1       3.909  -0.198  -2.647  0.00  0.00    -0.285 N 
ATOM     30  H   UNL     1       4.339   0.392  -2.009  0.00  0.00    +0.155 HD
BRANCH  29  31
ATOM     31  C   UNL     1       4.631  -0.693  -3.739  0.00  0.00    +0.036 A 
ATOM     32  C   UNL     1       4.247  -1.882  -4.346  0.00  0.00    +0.023 A 
ATOM     33  C   UNL     1       4.958  -2.365  -5.427  0.00  0.00    +0.002 A 
ATOM     34  C   UNL     1       6.059  -1.672  -5.897  0.00  0.00    +0.000 A 
ATOM     35  C   UNL     1       6.448  -0.492  -5.290  0.00  0.00    +0.005 A 
ATOM     36  C   UNL     1       5.737  -0.001  -4.213  0.00  0.00    -0.029 A 
ATOM     37  C   UNL     1       6.162   1.286  -3.552  0.00  0.00    +0.045 C 
ENDBRANCH  29  31
ENDBRANCH   2  27
BRANCH   6  38
ATOM     38  O   UNL     1      -1.018   1.814  -1.451  0.00  0.00    -0.388 OA
ATOM     39  H   UNL     1      -1.101   2.769  -1.578  0.00  0.00    +0.210 HD
ENDBRANCH   6  38
TORSDOF 7
