REMARK  Name = ZINC64165584
REMARK  11 active torsions:
REMARK  status: ('A' for Active; 'I' for Inactive)
REMARK    1  A    between atoms: C_1  and  C_2
REMARK    2  A    between atoms: C_13  and  C_23
REMARK    3  A    between atoms: C_16  and  C_19
REMARK    4  A    between atoms: C_19  and  C_20
REMARK    5  A    between atoms: C_20  and  C_21
REMARK    6  A    between atoms: C_20  and  C_22
REMARK    7  A    between atoms: N_25  and  C_26
REMARK    8  A    between atoms: C_28  and  O_34
REMARK    9  A    between atoms: C_31  and  O_32
REMARK   10  A    between atoms: O_32  and  C_33
REMARK   11  A    between atoms: O_34  and  C_35
REMARK                            x       y       z     vdW  Elec       q    Type
REMARK                         _______ _______ _______ _____ _____    ______ ____
ROOT
ATOM      1  C   UNL     1      -0.113   1.569  -0.051  0.00  0.00    +0.044 C 
ATOM      2  C   UNL     1      -0.073   0.063  -0.037  0.00  0.00    -0.049 A 
ATOM      3  C   UNL     1      -0.050  -0.641  -1.228  0.00  0.00    +0.011 A 
ATOM      4  C   UNL     1      -0.014  -2.017  -1.214  0.00  0.00    +0.005 A 
ATOM      5  C   UNL     1      -0.001  -2.715  -0.011  0.00  0.00    +0.057 A 
ATOM      6  C   UNL     1      -0.024  -1.999   1.184  0.00  0.00    +0.063 A 
ATOM      7  C   UNL     1      -0.054  -0.619   1.166  0.00  0.00    +0.025 A 
ATOM      8 CL   UNL     1      -0.008  -2.844   2.700  0.00  0.00    -0.082 Cl
ATOM      9  N   UNL     1       0.034  -4.091  -0.251  0.00  0.00    -0.282 N 
ATOM     10  C   UNL     1       0.047  -4.377  -1.566  0.00  0.00    +0.243 C 
ATOM     11  O   UNL     1       0.075  -5.482  -2.066  0.00  0.00    -0.273 OA
ATOM     12  C   UNL     1       0.018  -3.060  -2.299  0.00  0.00    +0.135 C 
ATOM     13  C   UNL     1      -1.221  -2.960  -3.197  0.00  0.00    +0.110 C 
ATOM     14  C   UNL     1      -0.661  -2.711  -4.618  0.00  0.00    +0.034 C 
ATOM     15  C   UNL     1       0.750  -2.134  -4.340  0.00  0.00    +0.056 C 
ATOM     16  N   UNL     1       1.207  -2.904  -3.152  0.00  0.00    -0.296 NA
ATOM     17  H   UNL     1       0.048  -4.762   0.449  0.00  0.00    +0.155 HD
ATOM     18  H   UNL     1       1.940  -2.413  -2.663  0.00  0.00    +0.123 HD
ENDROOT
BRANCH  13  19
ATOM     19  C   UNL     1      -2.004  -4.247  -3.157  0.00  0.00    +0.223 C 
ATOM     20  O   UNL     1      -1.823  -5.093  -4.007  0.00  0.00    -0.275 OA
ATOM     21  N   UNL     1      -2.905  -4.458  -2.177  0.00  0.00    -0.282 N 
ATOM     22  H   UNL     1      -3.092  -3.758  -1.532  0.00  0.00    +0.155 HD
BRANCH  21  23
ATOM     23  C   UNL     1      -3.571  -5.687  -2.090  0.00  0.00    +0.079 A 
ATOM     24  C   UNL     1      -3.736  -6.470  -3.224  0.00  0.00    +0.072 A 
ATOM     25  C   UNL     1      -4.395  -7.686  -3.135  0.00  0.00    +0.122 A 
ATOM     26  C   UNL     1      -4.889  -8.120  -1.914  0.00  0.00    +0.049 A 
ATOM     27  C   UNL     1      -4.726  -7.343  -0.783  0.00  0.00    +0.051 A 
ATOM     28  C   UNL     1      -4.063  -6.129  -0.865  0.00  0.00    +0.141 A 
BRANCH  28  29
ATOM     29  O   UNL     1      -3.897  -5.367   0.250  0.00  0.00    -0.493 OA
ATOM     30  C   UNL     1      -4.428  -5.883   1.473  0.00  0.00    +0.277 C 
ENDBRANCH  28  29
BRANCH  25  31
ATOM     31  O   UNL     1      -4.558  -8.453  -4.246  0.00  0.00    -0.495 OA
ATOM     32  C   UNL     1      -5.247  -9.694  -4.082  0.00  0.00    +0.277 C 
ENDBRANCH  25  31
ENDBRANCH  21  23
ENDBRANCH  13  19
BRANCH  15  33
ATOM     33  C   UNL     1       1.677  -2.376  -5.532  0.00  0.00    +0.021 C 
BRANCH  33  34
ATOM     34  C   UNL     1       3.021  -1.689  -5.281  0.00  0.00    -0.016 C 
ATOM     35  C   UNL     1       3.989  -2.034  -6.415  0.00  0.00    +0.007 C 
ATOM     36  C   UNL     1       2.817  -0.174  -5.227  0.00  0.00    +0.007 C 
ENDBRANCH  33  34
ENDBRANCH  15  33
TORSDOF 6
