REMARK  Name = ZINC05365783
REMARK  5 active torsions:
REMARK  status: ('A' for Active; 'I' for Inactive)
REMARK    1  A    between atoms: C_1  and  C_2
REMARK    2  A    between atoms: C_7  and  N_8
REMARK    3  A    between atoms: C_11  and  C_16
REMARK    4  A    between atoms: C_16  and  S_17
REMARK    5  A    between atoms: S_17  and  C_18
REMARK                            x       y       z     vdW  Elec       q    Type
REMARK                         _______ _______ _______ _____ _____    ______ ____
ROOT
ATOM      1  N   UNL     1       6.730   6.529  -2.374  0.00  0.00    -0.283 N 
ATOM      2  C   UNL     1       6.185   6.119  -1.173  0.00  0.00    +0.224 A 
ATOM      3  N   UNL     1       5.100   5.346  -1.163  0.00  0.00    -0.198 NA
ATOM      4  C   UNL     1       4.578   4.953  -0.015  0.00  0.00    +0.146 A 
ATOM      5  N   UNL     1       5.125   5.329   1.127  0.00  0.00    -0.199 NA
ATOM      6  C   UNL     1       6.213   6.097   1.125  0.00  0.00    +0.217 A 
ATOM      7  N   UNL     1       6.741   6.494  -0.027  0.00  0.00    -0.181 NA
ATOM      8  N   UNL     1       6.787   6.484   2.319  0.00  0.00    -0.327 N 
ATOM      9  H   UNL     1       6.377   6.186  -3.210  0.00  0.00    +0.155 HD
ATOM     10  H   UNL     1       7.577   7.047   2.317  0.00  0.00    +0.145 HD
ATOM     11  H   UNL     1       6.401   6.194   3.160  0.00  0.00    +0.145 HD
ENDROOT
BRANCH   1  18
ATOM     12  C   UNL     1       8.469   6.536  -4.627  0.00  0.00    +0.045 C 
ATOM     13  C   UNL     1       8.666   7.475  -3.465  0.00  0.00    -0.029 A 
ATOM     14  C   UNL     1       9.714   8.374  -3.472  0.00  0.00    +0.005 A 
ATOM     15  C   UNL     1       9.895   9.237  -2.407  0.00  0.00    +0.000 A 
ATOM     16  C   UNL     1       9.027   9.202  -1.330  0.00  0.00    +0.002 A 
ATOM     17  C   UNL     1       7.974   8.309  -1.319  0.00  0.00    +0.023 A 
ATOM     18  C   UNL     1       7.793   7.438  -2.385  0.00  0.00    +0.036 A 
ENDBRANCH   1  18
BRANCH   4  19
ATOM     19  C   UNL     1       3.350   4.078  -0.008  0.00  0.00    +0.150 C 
BRANCH  19  20
ATOM     20  S   UNL     1       3.850   2.335  -0.031  0.00  0.00    -0.117 S 
BRANCH  20  21
ATOM     21  C   UNL     1       2.324   1.454  -0.021  0.00  0.00    +0.012 A 
ATOM     22  C   UNL     1       1.122   2.149   0.000  0.00  0.00    +0.018 A 
ATOM     23  C   UNL     1      -0.078   1.461   0.008  0.00  0.00    +0.050 A 
ATOM     24  C   UNL     1      -0.077   0.076  -0.005  0.00  0.00    +0.162 A 
ATOM     25  C   UNL     1       1.122  -0.621  -0.026  0.00  0.00    +0.163 A 
ATOM     26  C   UNL     1       2.325   0.064  -0.034  0.00  0.00    +0.064 A 
ATOM     27  O   UNL     1       1.108  -1.986  -0.038  0.00  0.00    -0.488 OA
ATOM     28  C   UNL     1       0.641  -2.617   1.155  0.00  0.00    +0.232 C 
ATOM     29  C   UNL     1      -0.877  -2.714   1.155  0.00  0.00    +0.082 C 
ATOM     30  C   UNL     1      -1.544  -1.349   1.192  0.00  0.00    +0.232 C 
ATOM     31  O   UNL     1      -1.257  -0.612   0.002  0.00  0.00    -0.488 OA
ENDBRANCH  20  21
ENDBRANCH  19  20
ENDBRANCH   4  19
TORSDOF 4
