REMARK  Name = ZINC43347794
REMARK  8 active torsions:
REMARK  status: ('A' for Active; 'I' for Inactive)
REMARK    1  A    between atoms: C_1  and  C_2
REMARK    2  A    between atoms: C_3  and  N_11
REMARK    3  A    between atoms: C_7  and  N_8
REMARK    4  A    between atoms: N_14  and  C_15
REMARK    5  A    between atoms: C_15  and  C_16
REMARK    6  A    between atoms: C_16  and  C_17
REMARK    7  A    between atoms: C_20  and  O_23
REMARK    8  A    between atoms: O_23  and  C_24
REMARK                            x       y       z     vdW  Elec       q    Type
REMARK                         _______ _______ _______ _____ _____    ______ ____
ROOT
ATOM      1  N   UNL     1      -0.409   0.193  -2.478  0.00  0.00    -0.269 N 
ATOM      2  C   UNL     1      -0.692  -0.489  -3.606  0.00  0.00    +0.304 C 
ATOM      3  O   UNL     1      -0.661  -1.704  -3.606  0.00  0.00    -0.253 OA
ATOM      4  N   UNL     1      -1.010   0.177  -4.734  0.00  0.00    -0.299 N 
ATOM      5  H   UNL     1      -0.382   1.162  -2.491  0.00  0.00    +0.156 HD
ATOM      6  H   UNL     1      -1.035   1.147  -4.734  0.00  0.00    +0.150 HD
ENDROOT
BRANCH   1   9
ATOM      7  C   UNL     1      -1.254   1.373  -0.030  0.00  0.00    +0.048 C 
ATOM      8  C   UNL     1      -0.549   0.041  -0.072  0.00  0.00    +0.001 A 
ATOM      9  C   UNL     1      -0.154  -0.499  -1.289  0.00  0.00    +0.040 A 
ATOM     10  C   UNL     1       0.495  -1.726  -1.322  0.00  0.00    +0.024 A 
ATOM     11  C   UNL     1       0.745  -2.406  -0.146  0.00  0.00    +0.004 A 
ATOM     12  C   UNL     1       0.350  -1.866   1.063  0.00  0.00    +0.033 A 
ATOM     13  C   UNL     1      -0.292  -0.641   1.101  0.00  0.00    +0.131 A 
BRANCH  13  14
ATOM     14  N   UNL     1      -0.708  -0.064   2.399  0.00  0.00    +0.057 N 
ATOM     15  O   UNL     1      -0.804   1.134   2.525  0.00  0.00    -0.126 OA
ATOM     16  O   UNL     1      -0.952  -0.791   3.333  0.00  0.00    -0.126 OA
ENDBRANCH  13  14
ENDBRANCH   1   9
BRANCH   4  17
ATOM     17  C   UNL     1      -1.318  -0.563  -5.960  0.00  0.00    +0.110 C 
BRANCH  17  18
ATOM     18  C   UNL     1      -1.644   0.423  -7.083  0.00  0.00    +0.054 C 
BRANCH  18  19
ATOM     19  C   UNL     1      -1.960  -0.339  -8.344  0.00  0.00    -0.046 A 
ATOM     20  C   UNL     1      -0.948  -0.663  -9.228  0.00  0.00    +0.007 A 
ATOM     21  C   UNL     1      -1.235  -1.361 -10.385  0.00  0.00    +0.046 A 
ATOM     22  C   UNL     1      -2.542  -1.737 -10.660  0.00  0.00    +0.127 A 
ATOM     23  C   UNL     1      -3.557  -1.411  -9.771  0.00  0.00    +0.046 A 
ATOM     24  C   UNL     1      -3.263  -0.718  -8.613  0.00  0.00    +0.007 A 
BRANCH  22  25
ATOM     25  O   UNL     1      -2.828  -2.423 -11.797  0.00  0.00    -0.434 OA
BRANCH  25  26
ATOM     26  C   UNL     1      -4.195  -2.778 -12.015  0.00  0.00    +0.541 C 
ATOM     27  F   UNL     1      -4.639  -3.589 -10.965  0.00  0.00    -0.166 F 
ATOM     28  F   UNL     1      -4.975  -1.617 -12.070  0.00  0.00    -0.166 F 
ENDBRANCH  25  26
ENDBRANCH  22  25
ENDBRANCH  18  19
ENDBRANCH  17  18
ENDBRANCH   4  17
TORSDOF 7
