REMARK  Name = ZINC36521264
REMARK  19 active torsions:
REMARK  status: ('A' for Active; 'I' for Inactive)
REMARK    1  A    between atoms: C_1  and  C_2
REMARK    2  A    between atoms: C_2  and  C_3
REMARK    3  A    between atoms: C_3  and  C_4
REMARK    4  A    between atoms: C_4  and  C_5
REMARK    5  A    between atoms: C_5  and  C_6
REMARK    6  A    between atoms: C_6  and  N_7
REMARK    7  A    between atoms: N_7  and  C_8
REMARK    8  A    between atoms: C_8  and  C_10
REMARK    9  A    between atoms: C_8  and  C_17
REMARK   10  A    between atoms: C_15  and  O_16
REMARK   11  A    between atoms: N_19  and  C_20
REMARK   12  A    between atoms: C_20  and  C_21
REMARK   13  A    between atoms: C_20  and  C_22
REMARK   14  A    between atoms: C_20  and  C_23
REMARK   15  A    between atoms: C_23  and  C_24
REMARK   16  A    between atoms: C_24  and  C_25
REMARK   17  A    between atoms: C_24  and  C_26
REMARK   18  A    between atoms: C_24  and  C_27
REMARK   19  A    between atoms: C_28  and  C_30
REMARK                            x       y       z     vdW  Elec       q    Type
REMARK                         _______ _______ _______ _____ _____    ______ ____
ROOT
ATOM      1  C   UNL     1      -3.325  -6.410  -2.779  0.00  0.00    +0.196 C 
ENDROOT
BRANCH   1   2
ATOM      2  C   UNL     1      -3.662  -5.502  -3.933  0.00  0.00    +0.023 A 
ATOM      3  C   UNL     1      -3.401  -4.148  -3.846  0.00  0.00    +0.009 A 
ATOM      4  C   UNL     1      -3.710  -3.314  -4.905  0.00  0.00    +0.001 A 
ATOM      5  C   UNL     1      -4.280  -3.833  -6.054  0.00  0.00    +0.004 A 
ATOM      6  C   UNL     1      -4.542  -5.186  -6.145  0.00  0.00    +0.046 A 
ATOM      7  C   UNL     1      -4.228  -6.026  -5.086  0.00  0.00    +0.122 A 
BRANCH   7   8
ATOM      8  O   UNL     1      -4.479  -7.358  -5.176  0.00  0.00    -0.506 OA
ATOM      9  H   UNL     1      -5.391  -7.601  -4.966  0.00  0.00    +0.292 HD
ENDBRANCH   7   8
ENDBRANCH   1   2
BRANCH   1  10
ATOM     10  C   UNL     1      -4.578  -6.713  -1.997  0.00  0.00    +0.239 C 
ATOM     11  O   UNL     1      -4.620  -6.483  -0.807  0.00  0.00    -0.273 OA
ATOM     12  N   UNL     1      -5.650  -7.240  -2.620  0.00  0.00    -0.308 N 
ATOM     13  H   UNL     1      -5.675  -7.286  -3.588  0.00  0.00    +0.149 HD
BRANCH  12  14
ATOM     14  C   UNL     1      -6.779  -7.745  -1.834  0.00  0.00    +0.030 C 
ATOM     15  C   UNL     1      -6.309  -8.899  -0.948  0.00  0.00    +0.031 C 
ATOM     16  C   UNL     1      -7.332  -6.620  -0.956  0.00  0.00    +0.031 C 
BRANCH  14  17
ATOM     17  C   UNL     1      -7.876  -8.241  -2.778  0.00  0.00    +0.031 C 
BRANCH  17  18
ATOM     18  C   UNL     1      -8.480  -7.052  -3.529  0.00  0.00    -0.036 C 
ATOM     19  C   UNL     1      -7.381  -6.032  -3.836  0.00  0.00    +0.010 C 
ATOM     20  C   UNL     1      -9.104  -7.539  -4.838  0.00  0.00    +0.010 C 
ATOM     21  C   UNL     1      -9.557  -6.396  -2.663  0.00  0.00    +0.010 C 
ENDBRANCH  17  18
ENDBRANCH  14  17
ENDBRANCH  12  14
ENDBRANCH   1  10
BRANCH   1  22
ATOM     22  N   UNL     1      -2.352  -5.750  -1.905  0.00  0.00    -0.282 N 
ATOM     23  C   UNL     1      -2.709  -4.654  -1.206  0.00  0.00    +0.249 C 
ATOM     24  O   UNL     1      -1.857  -3.887  -0.803  0.00  0.00    -0.270 OA
BRANCH  23  25
ATOM     25  C   UNL     1      -4.136  -4.384  -0.931  0.00  0.00    +0.055 A 
ATOM     26  C   UNL     1      -4.529  -3.785   0.272  0.00  0.00    +0.016 A 
ATOM     27  C   UNL     1      -5.877  -3.554   0.480  0.00  0.00    +0.020 A 
ATOM     28  C   UNL     1      -6.785  -3.919  -0.497  0.00  0.00    +0.111 A 
ATOM     29  N   UNL     1      -6.386  -4.482  -1.622  0.00  0.00    -0.263 NA
ATOM     30  C   UNL     1      -5.114  -4.718  -1.869  0.00  0.00    +0.123 A 
ENDBRANCH  23  25
BRANCH  22  31
ATOM     31  C   UNL     1      -0.992  -6.280  -1.791  0.00  0.00    +0.109 C 
BRANCH  31  32
ATOM     32  C   UNL     1      -0.130  -5.723  -2.926  0.00  0.00    +0.019 C 
BRANCH  32  33
ATOM     33  C   UNL     1       1.291  -6.277  -2.807  0.00  0.00    +0.002 C 
BRANCH  33  34
ATOM     34  C   UNL     1       2.153  -5.720  -3.941  0.00  0.00    -0.000 C 
BRANCH  34  36
ATOM     35  C   UNL     1       4.436  -5.716  -4.957  0.00  0.00    +0.004 C 
ATOM     36  C   UNL     1       3.574  -6.274  -3.822  0.00  0.00    -0.003 C 
ENDBRANCH  34  36
ENDBRANCH  33  34
ENDBRANCH  32  33
ENDBRANCH  31  32
ENDBRANCH  22  31
ENDBRANCH   1  22
TORSDOF 13
