REMARK  Name = ZINC42812786
REMARK  6 active torsions:
REMARK  status: ('A' for Active; 'I' for Inactive)
REMARK    1  A    between atoms: C_1  and  C_2
REMARK    2  A    between atoms: C_6  and  N_20
REMARK    3  A    between atoms: C_7  and  S_8
REMARK    4  A    between atoms: S_8  and  N_11
REMARK    5  A    between atoms: N_11  and  C_12
REMARK    6  A    between atoms: C_12  and  C_13
REMARK                            x       y       z     vdW  Elec       q    Type
REMARK                         _______ _______ _______ _____ _____    ______ ____
ROOT
ATOM      1  S   UNL     1       1.473  -0.201   2.519  0.00  0.00    +0.060 S 
ATOM      2  O   UNL     1       1.921  -1.310   3.287  0.00  0.00    -0.153 OA
ATOM      3  O   UNL     1       2.358   0.805   2.045  0.00  0.00    -0.153 OA
ENDROOT
BRANCH   1  10
ATOM      4  C   UNL     1       0.939   1.353  -0.018  0.00  0.00    +0.046 C 
ATOM      5  C   UNL     1       0.461  -0.076  -0.012  0.00  0.00    -0.022 A 
ATOM      6  C   UNL     1      -0.172  -0.598  -1.125  0.00  0.00    +0.005 A 
ATOM      7  C   UNL     1      -0.612  -1.908  -1.124  0.00  0.00    +0.002 A 
ATOM      8  C   UNL     1      -0.421  -2.701  -0.009  0.00  0.00    +0.025 A 
ATOM      9  C   UNL     1       0.215  -2.180   1.111  0.00  0.00    +0.051 A 
ATOM     10  C   UNL     1       0.660  -0.865   1.104  0.00  0.00    +0.129 A 
BRANCH   9  11
ATOM     11  N   UNL     1       0.410  -2.979   2.240  0.00  0.00    -0.356 N 
ATOM     12  H   UNL     1       0.471  -3.943   2.147  0.00  0.00    +0.142 HD
ATOM     13  H   UNL     1       0.483  -2.571   3.116  0.00  0.00    +0.142 HD
ENDBRANCH   9  11
ENDBRANCH   1  10
BRANCH   1  14
ATOM     14  N   UNL     1       0.323   0.570   3.428  0.00  0.00    -0.187 NA
ATOM     15  H   UNL     1       0.368   1.531   3.552  0.00  0.00    +0.148 HD
BRANCH  14  16
ATOM     16  C   UNL     1      -0.761  -0.199   4.043  0.00  0.00    +0.137 C 
BRANCH  16  17
ATOM     17  C   UNL     1      -1.452   0.655   5.108  0.00  0.00    +0.134 C 
ATOM     18  C   UNL     1      -2.502  -0.187   5.836  0.00  0.00    +0.033 C 
ATOM     19  C   UNL     1      -3.231   0.691   6.858  0.00  0.00    +0.005 C 
ATOM     20  C   UNL     1      -3.849   1.892   6.135  0.00  0.00    +0.028 C 
ATOM     21  C   UNL     1      -2.746   2.654   5.395  0.00  0.00    +0.160 C 
ATOM     22  O   UNL     1      -2.089   1.772   4.483  0.00  0.00    -0.375 OA
ENDBRANCH  16  17
ENDBRANCH  14  16
ENDBRANCH   1  14
TORSDOF 5
