REMARK  Name = ZINC14919591
REMARK  7 active torsions:
REMARK  status: ('A' for Active; 'I' for Inactive)
REMARK    1  A    between atoms: C_1  and  N_2
REMARK    2  A    between atoms: N_2  and  C_3
REMARK    3  A    between atoms: N_2  and  C_13
REMARK    4  A    between atoms: C_3  and  C_4
REMARK    5  A    between atoms: C_7  and  N_10
REMARK    6  A    between atoms: C_13  and  C_14
REMARK    7  A    between atoms: C_13  and  C_20
REMARK                            x       y       z     vdW  Elec       q    Type
REMARK                         _______ _______ _______ _____ _____    ______ ____
ROOT
ATOM      1  C   UNL     1      -1.312  -0.647  -0.131  0.00  0.00    +0.117 C 
ENDROOT
BRANCH   1   2
ATOM      2  C   UNL     1      -2.249  -0.085   0.907  0.00  0.00    -0.026 A 
ATOM      3  C   UNL     1      -2.307   1.280   1.119  0.00  0.00    +0.005 A 
ATOM      4  C   UNL     1      -3.167   1.796   2.070  0.00  0.00    +0.000 A 
ATOM      5  C   UNL     1      -3.969   0.947   2.810  0.00  0.00    +0.000 A 
ATOM      6  C   UNL     1      -3.912  -0.417   2.597  0.00  0.00    +0.000 A 
ATOM      7  C   UNL     1      -3.055  -0.933   1.643  0.00  0.00    +0.005 A 
ENDBRANCH   1   2
BRANCH   1   8
ATOM      8  C   UNL     1      -1.875  -0.395  -1.506  0.00  0.00    -0.026 A 
ATOM      9  C   UNL     1      -1.814   0.871  -2.056  0.00  0.00    +0.005 A 
ATOM     10  C   UNL     1      -2.331   1.102  -3.317  0.00  0.00    +0.000 A 
ATOM     11  C   UNL     1      -2.908   0.067  -4.028  0.00  0.00    +0.000 A 
ATOM     12  C   UNL     1      -2.967  -1.200  -3.478  0.00  0.00    +0.000 A 
ATOM     13  C   UNL     1      -2.447  -1.432  -2.219  0.00  0.00    +0.005 A 
ENDBRANCH   1   8
BRANCH   1  15
ATOM     14  C   UNL     1       0.546  -0.156   1.343  0.00  0.00    +0.106 C 
ATOM     15  N   UNL     1      -0.001   0.005  -0.011  0.00  0.00    -0.290 NA
BRANCH  15  16
ATOM     16  C   UNL     1       0.935  -0.506  -1.022  0.00  0.00    +0.120 C 
BRANCH  16  17
ATOM     17  C   UNL     1       2.177   0.348  -1.032  0.00  0.00    -0.033 A 
ATOM     18  C   UNL     1       2.247   1.456  -1.856  0.00  0.00    +0.007 A 
ATOM     19  C   UNL     1       3.386   2.239  -1.866  0.00  0.00    +0.033 A 
ATOM     20  C   UNL     1       4.455   1.914  -1.052  0.00  0.00    +0.126 A 
ATOM     21  C   UNL     1       4.385   0.806  -0.229  0.00  0.00    +0.033 A 
ATOM     22  C   UNL     1       3.244   0.025  -0.215  0.00  0.00    +0.007 A 
BRANCH  20  23
ATOM     23  N   UNL     1       5.676   2.751  -1.064  0.00  0.00    +0.056 N 
ATOM     24  O   UNL     1       5.737   3.720  -1.785  0.00  0.00    -0.126 OA
ATOM     25  O   UNL     1       6.611   2.467  -0.353  0.00  0.00    -0.126 OA
ENDBRANCH  20  23
ENDBRANCH  16  17
ENDBRANCH  15  16
ENDBRANCH   1  15
TORSDOF 6
