REMARK  Name = ZINC23384927
REMARK  9 active torsions:
REMARK  status: ('A' for Active; 'I' for Inactive)
REMARK    1  A    between atoms: C_1  and  C_2
REMARK    2  A    between atoms: C_2  and  C_25
REMARK    3  A    between atoms: N_5  and  C_9
REMARK    4  A    between atoms: C_9  and  N_10
REMARK    5  A    between atoms: C_13  and  C_16
REMARK    6  A    between atoms: C_25  and  C_26
REMARK    7  A    between atoms: C_26  and  C_27
REMARK    8  A    between atoms: C_30  and  O_33
REMARK    9  A    between atoms: O_33  and  C_34
REMARK                            x       y       z     vdW  Elec       q    Type
REMARK                         _______ _______ _______ _____ _____    ______ ____
ROOT
ATOM      1  C   UNL     1      -4.411   7.167  -2.646  0.00  0.00    +0.041 C 
ATOM      2  C   UNL     1      -3.354   6.635  -1.677  0.00  0.00    +0.110 C 
ATOM      3  C   UNL     1      -3.218   5.131  -1.817  0.00  0.00    +0.245 C 
ATOM      4  O   UNL     1      -4.076   4.297  -1.621  0.00  0.00    -0.273 OA
ATOM      5  N   UNL     1      -1.944   4.915  -2.201  0.00  0.00    -0.241 N 
ATOM      6  C   UNL     1      -1.266   6.061  -2.330  0.00  0.00    +0.308 C 
ATOM      7  O   UNL     1      -0.101   6.121  -2.671  0.00  0.00    -0.252 OA
ATOM      8  N   UNL     1      -2.018   7.138  -2.041  0.00  0.00    -0.285 N 
ATOM      9  H   UNL     1      -1.817   8.219  -2.033  0.00  0.00    +0.151 HD
ENDROOT
BRANCH   5  10
ATOM     10  C   UNL     1      -1.375   3.588  -2.454  0.00  0.00    +0.043 C 
BRANCH  10  11
ATOM     11  N   UNL     1      -0.793   3.061  -1.212  0.00  0.00    +0.391 N 
ATOM     12  C   UNL     1      -0.754   1.594  -1.231  0.00  0.00    -0.076 C 
ATOM     13  C   UNL     1      -0.013   1.086   0.008  0.00  0.00    -0.006 C 
ATOM     14  C   UNL     1      -0.731   1.580   1.267  0.00  0.00    +0.072 C 
ATOM     15  C   UNL     1      -0.801   3.110   1.237  0.00  0.00    -0.006 C 
ATOM     16  C   UNL     1      -1.520   3.559  -0.037  0.00  0.00    -0.076 C 
ATOM     17  H   UNL     1       0.244   3.423  -1.143  0.00  0.00    -0.079 HD
BRANCH  14  18
ATOM     18  C   UNL     1       0.029   1.134   2.489  0.00  0.00    +0.200 A 
ATOM     19  N   UNL     1      -0.452   0.374   3.426  0.00  0.00    -0.213 NA
ATOM     20  C   UNL     1       0.510   0.176   4.367  0.00  0.00    +0.110 A 
ATOM     21  C   UNL     1       0.557  -0.537   5.567  0.00  0.00    +0.031 A 
ATOM     22  C   UNL     1       1.713  -0.540   6.314  0.00  0.00    +0.002 A 
ATOM     23  C   UNL     1       2.830   0.160   5.884  0.00  0.00    +0.004 A 
ATOM     24  C   UNL     1       2.798   0.869   4.701  0.00  0.00    +0.048 A 
ATOM     25  C   UNL     1       1.642   0.883   3.936  0.00  0.00    +0.155 A 
ATOM     26  O   UNL     1       1.302   1.460   2.762  0.00  0.00    -0.439 OA
ENDBRANCH  14  18
ENDBRANCH  10  11
ENDBRANCH   5  10
BRANCH   2  27
ATOM     27  C   UNL     1      -3.701   7.020  -0.238  0.00  0.00    +0.039 C 
BRANCH  27  28
ATOM     28  C   UNL     1      -3.727   8.544  -0.110  0.00  0.00    +0.038 C 
BRANCH  28  29
ATOM     29  C   UNL     1      -4.069   8.924   1.307  0.00  0.00    -0.047 A 
ATOM     30  C   UNL     1      -5.390   9.107   1.673  0.00  0.00    +0.007 A 
ATOM     31  C   UNL     1      -5.707   9.449   2.974  0.00  0.00    +0.046 A 
ATOM     32  C   UNL     1      -4.697   9.621   3.910  0.00  0.00    +0.127 A 
ATOM     33  C   UNL     1      -3.373   9.442   3.539  0.00  0.00    +0.046 A 
ATOM     34  C   UNL     1      -3.062   9.094   2.239  0.00  0.00    +0.007 A 
BRANCH  32  35
ATOM     35  O   UNL     1      -5.006   9.964   5.188  0.00  0.00    -0.434 OA
BRANCH  35  36
ATOM     36  C   UNL     1      -6.391  10.131   5.499  0.00  0.00    +0.541 C 
ATOM     37  F   UNL     1      -6.929  11.144   4.697  0.00  0.00    -0.166 F 
ATOM     38  F   UNL     1      -7.071   8.933   5.257  0.00  0.00    -0.166 F 
ENDBRANCH  35  36
ENDBRANCH  32  35
ENDBRANCH  28  29
ENDBRANCH  27  28
ENDBRANCH   2  27
TORSDOF 8
