REMARK  Name = ZINC60359824
REMARK  5 active torsions:
REMARK  status: ('A' for Active; 'I' for Inactive)
REMARK    1  A    between atoms: C_8  and  O_27
REMARK    2  A    between atoms: C_10  and  N_12
REMARK    3  A    between atoms: N_15  and  C_16
REMARK    4  A    between atoms: C_21  and  O_22
REMARK    5  A    between atoms: O_22  and  C_23
REMARK                            x       y       z     vdW  Elec       q    Type
REMARK                         _______ _______ _______ _____ _____    ______ ____
ROOT
ATOM      1  N   UNL     1       4.134  -1.046   1.308  0.00  0.00    -0.290 N 
ATOM      2  C   UNL     1       5.085  -0.178   1.707  0.00  0.00    +0.304 C 
ATOM      3  O   UNL     1       5.455   0.705   0.958  0.00  0.00    -0.252 OA
ATOM      4  N   UNL     1       5.626  -0.289   2.936  0.00  0.00    -0.266 N 
ATOM      5  H   UNL     1       3.839  -1.751   1.905  0.00  0.00    +0.151 HD
ATOM      6  H   UNL     1       5.286  -0.952   3.557  0.00  0.00    +0.156 HD
ENDROOT
BRANCH   1  15
ATOM      7  C   UNL     1      -0.018   1.419   0.037  0.00  0.00    +0.000 A 
ATOM      8  C   UNL     1       1.175   2.117   0.024  0.00  0.00    +0.000 A 
ATOM      9  C   UNL     1       2.374   1.431   0.003  0.00  0.00    +0.006 A 
ATOM     10  C   UNL     1       2.385   0.046  -0.006  0.00  0.00    -0.021 A 
ATOM     11  C   UNL     1       1.192  -0.651   0.006  0.00  0.00    -0.040 A 
ATOM     12  C   UNL     1      -0.009   0.038   0.028  0.00  0.00    +0.004 A 
ATOM     13  C   UNL     1       1.470  -2.139  -0.007  0.00  0.00    +0.069 C 
ATOM     14  C   UNL     1       2.936  -2.273  -0.469  0.00  0.00    +0.143 C 
ATOM     15  C   UNL     1       3.546  -0.925  -0.029  0.00  0.00    +0.134 C 
BRANCH  14  16
ATOM     16  O   UNL     1       3.579  -3.365   0.190  0.00  0.00    -0.389 OA
ATOM     17  H   UNL     1       3.176  -4.226   0.010  0.00  0.00    +0.210 HD
ENDBRANCH  14  16
ENDBRANCH   1  15
BRANCH   4  18
ATOM     18  C   UNL     1       6.679   0.553   3.317  0.00  0.00    +0.077 A 
ATOM     19  C   UNL     1       6.723   1.862   2.860  0.00  0.00    +0.027 A 
ATOM     20  C   UNL     1       7.763   2.691   3.237  0.00  0.00    +0.002 A 
ATOM     21  C   UNL     1       8.761   2.219   4.070  0.00  0.00    +0.004 A 
ATOM     22  C   UNL     1       8.724   0.916   4.529  0.00  0.00    +0.048 A 
ATOM     23  C   UNL     1       7.682   0.080   4.160  0.00  0.00    +0.151 A 
BRANCH  23  24
ATOM     24  O   UNL     1       7.641  -1.200   4.616  0.00  0.00    -0.404 OA
BRANCH  24  25
ATOM     25  C   UNL     1       8.703  -1.617   5.477  0.00  0.00    +0.575 C 
ATOM     26  F   UNL     1       8.719  -0.811   6.621  0.00  0.00    -0.133 F 
ATOM     27  F   UNL     1       8.506  -2.951   5.849  0.00  0.00    -0.133 F 
ATOM     28  F   UNL     1       9.924  -1.496   4.804  0.00  0.00    -0.133 F 
ENDBRANCH  24  25
ENDBRANCH  23  24
ENDBRANCH   4  18
TORSDOF 5
