REMARK  Name = ZINC39657472
REMARK  6 active torsions:
REMARK  status: ('A' for Active; 'I' for Inactive)
REMARK    1  A    between atoms: C_1  and  C_2
REMARK    2  A    between atoms: C_7  and  C_10
REMARK    3  A    between atoms: C_14  and  C_23
REMARK    4  A    between atoms: N_25  and  C_26
REMARK    5  A    between atoms: C_26  and  C_27
REMARK    6  A    between atoms: C_27  and  C_28
REMARK                            x       y       z     vdW  Elec       q    Type
REMARK                         _______ _______ _______ _____ _____    ______ ____
ROOT
ATOM      1  C   UNL     1      -1.814  -2.637  -4.384  0.00  0.00    +0.219 C 
ATOM      2  O   UNL     1      -2.551  -1.887  -4.989  0.00  0.00    -0.275 OA
ATOM      3  N   UNL     1      -1.925  -3.970  -4.548  0.00  0.00    -0.300 N 
ATOM      4  C   UNL     1      -1.063  -5.030  -3.977  0.00  0.00    +0.121 C 
ATOM      5  C   UNL     1      -2.041  -6.162  -3.589  0.00  0.00    +0.100 C 
ATOM      6  C   UNL     1      -3.269  -5.945  -4.489  0.00  0.00    -0.004 C 
ATOM      7  C   UNL     1      -2.943  -4.706  -5.336  0.00  0.00    +0.115 C 
ATOM      8  C   UNL     1      -4.508  -5.684  -3.638  0.00  0.00    -0.010 C 
ATOM      9  C   UNL     1      -5.726  -5.527  -4.553  0.00  0.00    -0.082 C 
ATOM     10  N   UNL     1      -5.902  -6.749  -5.349  0.00  0.00    +0.379 N 
ATOM     11  C   UNL     1      -4.746  -6.942  -6.232  0.00  0.00    -0.082 C 
ATOM     12  C   UNL     1      -3.487  -7.158  -5.388  0.00  0.00    -0.010 C 
ATOM     13  H   UNL     1      -5.988  -7.542  -4.731  0.00  0.00    -0.086 HD
ATOM     14  H   UNL     1      -6.740  -6.668  -5.906  0.00  0.00    -0.086 HD
ENDROOT
BRANCH   1  21
ATOM     15  C   UNL     1      -0.172   0.710   0.707  0.00  0.00    +0.109 C 
ATOM     16  C   UNL     1       0.187   0.865  -0.748  0.00  0.00    +0.212 C 
ATOM     17  O   UNL     1       0.465   1.960  -1.190  0.00  0.00    -0.276 OA
ATOM     18  N   UNL     1       0.199  -0.212  -1.558  0.00  0.00    -0.302 N 
ATOM     19  C   UNL     1       0.667  -0.099  -2.946  0.00  0.00    +0.108 C 
ATOM     20  C   UNL     1      -0.415  -0.652  -3.878  0.00  0.00    +0.032 C 
ATOM     21  C   UNL     1      -0.773  -2.077  -3.449  0.00  0.00    +0.078 C 
ATOM     22  C   UNL     1      -1.327  -2.058  -2.022  0.00  0.00    +0.032 C 
ATOM     23  C   UNL     1      -0.250  -1.522  -1.068  0.00  0.00    +0.108 C 
ENDBRANCH   1  21
BRANCH   5  24
ATOM     24  C   UNL     1      -1.420  -7.508  -3.861  0.00  0.00    +0.218 C 
ATOM     25  O   UNL     1      -0.551  -7.617  -4.701  0.00  0.00    -0.275 OA
ATOM     26  N   UNL     1      -1.829  -8.591  -3.171  0.00  0.00    -0.315 N 
ATOM     27  H   UNL     1      -2.524  -8.504  -2.499  0.00  0.00    +0.149 HD
BRANCH  26  28
ATOM     28  C   UNL     1      -1.225  -9.899  -3.435  0.00  0.00    +0.109 C 
BRANCH  28  29
ATOM     29  C   UNL     1      -1.865 -10.950  -2.524  0.00  0.00    +0.061 C 
BRANCH  29  30
ATOM     30  C   UNL     1      -1.243 -12.295  -2.796  0.00  0.00    -0.009 A 
ATOM     31  C   UNL     1      -0.163 -12.870  -2.213  0.00  0.00    +0.011 A 
ATOM     32  C   UNL     1       0.231 -14.129  -2.627  0.00  0.00    +0.008 A 
ATOM     33  C   UNL     1      -0.475 -14.752  -3.602  0.00  0.00    +0.045 A 
ATOM     34  S   UNL     1      -1.745 -13.550  -3.963  0.00  0.00    -0.102 S 
ENDBRANCH  29  30
ENDBRANCH  28  29
ENDBRANCH  26  28
ENDBRANCH   5  24
TORSDOF 5
