REMARK  Name = ZINC39666664
REMARK  9 active torsions:
REMARK  status: ('A' for Active; 'I' for Inactive)
REMARK    1  A    between atoms: C_1  and  C_2
REMARK    2  A    between atoms: C_4  and  C_8
REMARK    3  A    between atoms: N_6  and  C_7
REMARK    4  A    between atoms: C_12  and  C_21
REMARK    5  A    between atoms: N_23  and  C_24
REMARK    6  A    between atoms: C_24  and  C_25
REMARK    7  A    between atoms: C_25  and  C_27
REMARK    8  A    between atoms: C_25  and  O_28
REMARK    9  A    between atoms: O_28  and  C_29
REMARK                            x       y       z     vdW  Elec       q    Type
REMARK                         _______ _______ _______ _____ _____    ______ ____
ROOT
ATOM      1  C   UNL     1      -0.590  -1.564  -0.048  0.00  0.00    +0.267 C 
ATOM      2  O   UNL     1      -0.419  -1.383  -1.238  0.00  0.00    -0.268 OA
ATOM      3  N   UNL     1      -0.197  -2.720   0.521  0.00  0.00    -0.295 N 
ATOM      4  C   UNL     1      -0.414  -3.165   1.918  0.00  0.00    +0.121 C 
ATOM      5  C   UNL     1      -0.731  -4.673   1.803  0.00  0.00    +0.100 C 
ATOM      6  C   UNL     1      -0.094  -5.107   0.473  0.00  0.00    -0.004 C 
ATOM      7  C   UNL     1       0.544  -3.838  -0.110  0.00  0.00    +0.115 C 
ATOM      8  C   UNL     1      -1.164  -5.636  -0.477  0.00  0.00    -0.010 C 
ATOM      9  C   UNL     1      -0.499  -6.115  -1.771  0.00  0.00    -0.082 C 
ATOM     10  N   UNL     1       0.474  -7.169  -1.463  0.00  0.00    +0.379 N 
ATOM     11  C   UNL     1       1.550  -6.628  -0.624  0.00  0.00    -0.082 C 
ATOM     12  C   UNL     1       0.972  -6.171   0.719  0.00  0.00    -0.010 C 
ATOM     13  H   UNL     1       0.011  -7.919  -0.971  0.00  0.00    -0.086 HD
ATOM     14  H   UNL     1       0.866  -7.525  -2.321  0.00  0.00    -0.086 HD
ENDROOT
BRANCH   1  18
ATOM     15  C   UNL     1      -2.736   2.764   1.485  0.00  0.00    +0.065 C 
ATOM     16  C   UNL     1      -2.161   1.372   1.426  0.00  0.00    +0.037 A 
ATOM     17  C   UNL     1      -1.630   0.769   0.336  0.00  0.00    +0.057 A 
ATOM     18  C   UNL     1      -1.228  -0.515   0.773  0.00  0.00    +0.147 A 
ATOM     19  N   UNL     1      -1.533  -0.599   2.053  0.00  0.00    -0.167 NA
ATOM     20  N   UNL     1      -2.074   0.497   2.450  0.00  0.00    -0.271 N 
ATOM     21  C   UNL     1      -2.532   0.758   3.817  0.00  0.00    +0.172 C 
ENDBRANCH   1  18
BRANCH   5  22
ATOM     22  C   UNL     1      -2.221  -4.895   1.772  0.00  0.00    +0.218 C 
ATOM     23  O   UNL     1      -2.955  -4.028   1.347  0.00  0.00    -0.275 OA
ATOM     24  N   UNL     1      -2.738  -6.058   2.215  0.00  0.00    -0.312 N 
ATOM     25  H   UNL     1      -2.161  -6.719   2.629  0.00  0.00    +0.149 HD
BRANCH  24  26
ATOM     26  C   UNL     1      -4.172  -6.323   2.074  0.00  0.00    +0.148 C 
BRANCH  26  27
ATOM     27  C   UNL     1      -4.517  -7.645   2.762  0.00  0.00    +0.187 C 
ATOM     28  C   UNL     1      -6.018  -7.912   2.632  0.00  0.00    +0.053 C 
BRANCH  27  29
ATOM     29  O   UNL     1      -4.165  -7.568   4.145  0.00  0.00    -0.486 OA
BRANCH  29  30
ATOM     30  C   UNL     1      -3.917  -8.741   4.785  0.00  0.00    +0.139 A 
ATOM     31  C   UNL     1      -4.092  -9.946   4.121  0.00  0.00    +0.047 A 
ATOM     32  C   UNL     1      -3.839 -11.137   4.773  0.00  0.00    +0.004 A 
ATOM     33  C   UNL     1      -3.412 -11.129   6.088  0.00  0.00    +0.002 A 
ATOM     34  C   UNL     1      -3.237  -9.930   6.754  0.00  0.00    +0.023 A 
ATOM     35  C   UNL     1      -3.483  -8.735   6.104  0.00  0.00    +0.083 A 
ATOM     36 CL   UNL     1      -3.257  -7.229   6.938  0.00  0.00    -0.080 Cl
ENDBRANCH  29  30
ENDBRANCH  27  29
ENDBRANCH  26  27
ENDBRANCH  24  26
ENDBRANCH   5  22
TORSDOF 6
