REMARK  Name = ZINC14222007
REMARK  5 active torsions:
REMARK  status: ('A' for Active; 'I' for Inactive)
REMARK    1  A    between atoms: C_1  and  C_2
REMARK    2  A    between atoms: C_2  and  N_3
REMARK    3  A    between atoms: C_5  and  S_8
REMARK    4  A    between atoms: S_8  and  N_11
REMARK    5  A    between atoms: C_18  and  C_22
REMARK                            x       y       z     vdW  Elec       q    Type
REMARK                         _______ _______ _______ _____ _____    ______ ____
ROOT
ATOM      1  N   UNL     1      -4.203  -4.144  -0.684  0.00  0.00    -0.103 NA
ATOM      2  C   UNL     1      -4.950  -5.127  -1.123  0.00  0.00    +0.192 A 
ATOM      3  N   UNL     1      -5.895  -5.125  -2.121  0.00  0.00    -0.336 N 
ATOM      4  C   UNL     1      -6.573  -6.287  -2.423  0.00  0.00    +0.028 A 
ATOM      5  C   UNL     1      -6.269  -7.381  -1.713  0.00  0.00    +0.013 A 
ATOM      6  S   UNL     1      -5.010  -6.831  -0.590  0.00  0.00    -0.053 S 
ATOM      7  C   UNL     1      -6.853  -8.751  -1.842  0.00  0.00    +0.047 C 
ATOM      8  C   UNL     1      -8.137  -8.656  -2.680  0.00  0.00    -0.009 C 
ATOM      9  C   UNL     1      -7.845  -7.810  -3.923  0.00  0.00    +0.010 C 
ATOM     10  C   UNL     1      -7.633  -6.351  -3.520  0.00  0.00    +0.054 C 
ATOM     11  C   UNL     1      -8.581 -10.058  -3.100  0.00  0.00    +0.008 C 
ATOM     12  H   UNL     1      -6.084  -4.309  -2.611  0.00  0.00    +0.168 HD
ENDROOT
BRANCH   1  13
ATOM     13  S   UNL     1      -4.340  -2.636  -1.354  0.00  0.00    +0.104 S 
ATOM     14  O   UNL     1      -5.638  -2.161  -1.024  0.00  0.00    -0.146 OA
ATOM     15  O   UNL     1      -3.887  -2.746  -2.696  0.00  0.00    -0.146 OA
BRANCH  13  18
ATOM     16  N   UNL     1      -1.372  -0.511   0.012  0.00  0.00    -0.270 N 
ATOM     17  C   UNL     1      -1.907  -1.373  -0.878  0.00  0.00    +0.137 A 
ATOM     18  C   UNL     1      -3.194  -1.589  -0.520  0.00  0.00    +0.150 A 
ATOM     19  C   UNL     1      -3.455  -0.834   0.628  0.00  0.00    +0.163 A 
ATOM     20  N   UNL     1      -2.361  -0.192   0.952  0.00  0.00    -0.178 NA
BRANCH  16  22
ATOM     21  C   UNL     1      -0.019   1.526   0.010  0.00  0.00    +0.029 C 
ATOM     22  C   UNL     1       0.002  -0.004   0.002  0.00  0.00    +0.140 C 
ENDBRANCH  16  22
ENDBRANCH  13  18
ENDBRANCH   1  13
TORSDOF 3
