REMARK  Name = ZINC39361680
REMARK  7 active torsions:
REMARK  status: ('A' for Active; 'I' for Inactive)
REMARK    1  A    between atoms: C_1  and  C_2
REMARK    2  A    between atoms: C_6  and  N_8
REMARK    3  A    between atoms: C_9  and  C_25
REMARK    4  A    between atoms: C_13  and  S_14
REMARK    5  A    between atoms: S_14  and  C_15
REMARK    6  A    between atoms: C_15  and  C_16
REMARK    7  A    between atoms: C_25  and  C_26
REMARK                            x       y       z     vdW  Elec       q    Type
REMARK                         _______ _______ _______ _____ _____    ______ ____
ROOT
ATOM      1  N   UNL     1       0.051  -2.797   2.391  0.00  0.00    -0.258 N 
ATOM      2  C   UNL     1      -0.026  -4.258   2.554  0.00  0.00    +0.187 C 
ATOM      3  N   UNL     1       0.030  -4.455   4.013  0.00  0.00    -0.246 N 
ATOM      4  N   UNL     1       0.130  -3.176   4.575  0.00  0.00    -0.162 NA
ATOM      5  C   UNL     1       0.148  -2.260   3.667  0.00  0.00    +0.180 C 
ATOM      6  H   UNL     1       0.003  -5.300   4.489  0.00  0.00    +0.170 HD
ENDROOT
BRANCH   1  12
ATOM      7  C   UNL     1       2.374   0.057  -0.868  0.00  0.00    +0.044 C 
ATOM      8  C   UNL     1       1.148  -0.696  -0.419  0.00  0.00    -0.049 A 
ATOM      9  C   UNL     1       0.007  -0.687  -1.199  0.00  0.00    +0.003 A 
ATOM     10  C   UNL     1      -1.120  -1.377  -0.791  0.00  0.00    +0.002 A 
ATOM     11  C   UNL     1      -1.109  -2.078   0.400  0.00  0.00    +0.023 A 
ATOM     12  C   UNL     1       0.036  -2.089   1.186  0.00  0.00    +0.038 A 
ATOM     13  C   UNL     1       1.168  -1.400   0.769  0.00  0.00    +0.027 A 
ENDBRANCH   1  12
BRANCH   5  14
ATOM     14  S   UNL     1       0.273  -0.536   4.006  0.00  0.00    -0.079 S 
BRANCH  14  15
ATOM     15  C   UNL     1       0.367  -0.450   5.815  0.00  0.00    +0.173 C 
BRANCH  15  16
ATOM     16  C   UNL     1       0.479   0.990   6.244  0.00  0.00    +0.226 C 
ATOM     17  O   UNL     1       0.494   1.872   5.412  0.00  0.00    -0.275 OA
ATOM     18  N   UNL     1       0.563   1.299   7.554  0.00  0.00    -0.301 N 
ATOM     19  C   UNL     1       0.548   0.224   8.521  0.00  0.00    +0.108 C 
ATOM     20  C   UNL     1      -0.913  -0.089   8.928  0.00  0.00    +0.019 C 
ATOM     21  C   UNL     1      -1.456   0.997   9.758  0.00  0.00    +0.002 C 
ATOM     22  C   UNL     1      -1.541   2.346   9.051  0.00  0.00    +0.002 C 
ATOM     23  C   UNL     1      -0.213   3.053   9.160  0.00  0.00    +0.019 C 
ATOM     24  C   UNL     1       0.672   2.719   7.941  0.00  0.00    +0.108 C 
ENDBRANCH  15  16
ENDBRANCH  14  15
ENDBRANCH   5  14
BRANCH   2  25
ATOM     25  C   UNL     1       1.162  -4.939   1.872  0.00  0.00    +0.097 C 
BRANCH  25  26
ATOM     26  C   UNL     1       0.996  -6.435   1.948  0.00  0.00    +0.029 A 
ATOM     27  N   UNL     1       1.407  -7.117   3.060  0.00  0.00    -0.311 N 
ATOM     28  C   UNL     1       1.263  -8.452   3.138  0.00  0.00    +0.327 A 
ATOM     29  O   UNL     1       1.636  -9.038   4.136  0.00  0.00    -0.247 OA
ATOM     30  N   UNL     1       0.712  -9.148   2.126  0.00  0.00    -0.275 N 
ATOM     31  C   UNL     1       0.294  -8.513   1.013  0.00  0.00    +0.254 A 
ATOM     32  O   UNL     1      -0.205  -9.142   0.097  0.00  0.00    -0.268 OA
ATOM     33  C   UNL     1       0.435  -7.108   0.920  0.00  0.00    +0.091 A 
ATOM     34  H   UNL     1       0.615 -10.111   2.198  0.00  0.00    +0.173 HD
ATOM     35  H   UNL     1       1.807  -6.633   3.800  0.00  0.00    +0.170 HD
ENDBRANCH  25  26
ENDBRANCH   2  25
TORSDOF 6
