REMARK  Name = ZINC38609925
REMARK  11 active torsions:
REMARK  status: ('A' for Active; 'I' for Inactive)
REMARK    1  A    between atoms: C_1  and  C_2
REMARK    2  A    between atoms: C_2  and  C_3
REMARK    3  A    between atoms: C_2  and  C_4
REMARK    4  A    between atoms: C_4  and  C_5
REMARK    5  A    between atoms: C_5  and  O_6
REMARK    6  A    between atoms: O_6  and  C_7
REMARK    7  A    between atoms: C_11  and  C_13
REMARK    8  A    between atoms: C_16  and  C_31
REMARK    9  A    between atoms: N_23  and  C_24
REMARK   10  A    between atoms: C_24  and  C_25
REMARK   11  A    between atoms: C_36  and  O_37
REMARK                            x       y       z     vdW  Elec       q    Type
REMARK                         _______ _______ _______ _____ _____    ______ ____
ROOT
ATOM      1  C   UNL     1      -5.279  -6.481  -0.533  0.00  0.00    +0.142 C 
ATOM      2  C   UNL     1      -6.009  -6.657  -1.837  0.00  0.00    +0.035 A 
ATOM      3  C   UNL     1      -6.515  -6.058  -2.995  0.00  0.00    +0.102 A 
ATOM      4  N   UNL     1      -7.078  -7.007  -3.716  0.00  0.00    -0.173 NA
ATOM      5  N   UNL     1      -6.978  -8.146  -3.129  0.00  0.00    -0.272 N 
ATOM      6  H   UNL     1      -7.320  -8.984  -3.476  0.00  0.00    +0.189 HD
ATOM      7  C   UNL     1      -6.317  -8.000  -1.942  0.00  0.00    +0.126 A 
ATOM      8  C   UNL     1      -5.810  -8.690  -0.751  0.00  0.00    +0.266 C 
ATOM      9  O   UNL     1      -5.921  -9.882  -0.539  0.00  0.00    -0.268 OA
ATOM     10  N   UNL     1      -5.205  -7.816   0.076  0.00  0.00    -0.281 N 
ENDROOT
BRANCH   1  15
ATOM     11  C   UNL     1      -2.293  -4.169  -0.629  0.00  0.00    +0.121 A 
ATOM     12  C   UNL     1      -1.343  -4.972  -1.244  0.00  0.00    +0.045 A 
ATOM     13  C   UNL     1      -1.671  -6.259  -1.625  0.00  0.00    +0.004 A 
ATOM     14  C   UNL     1      -2.945  -6.746  -1.395  0.00  0.00    +0.006 A 
ATOM     15  C   UNL     1      -3.893  -5.947  -0.783  0.00  0.00    -0.019 A 
ATOM     16  C   UNL     1      -3.568  -4.662  -0.394  0.00  0.00    +0.051 A 
BRANCH  11  17
ATOM     17  O   UNL     1      -1.972  -2.903  -0.253  0.00  0.00    -0.492 OA
BRANCH  17  18
ATOM     18  C   UNL     1      -0.641  -2.462  -0.526  0.00  0.00    +0.229 C 
BRANCH  18  19
ATOM     19  C   UNL     1      -0.469  -1.023  -0.035  0.00  0.00    +0.044 C 
BRANCH  19  21
ATOM     20  C   UNL     1       1.093   0.925   0.049  0.00  0.00    +0.007 C 
ATOM     21  C   UNL     1       0.957  -0.551  -0.328  0.00  0.00    -0.014 C 
ATOM     22  C   UNL     1       1.947  -1.380   0.492  0.00  0.00    +0.007 C 
ENDBRANCH  19  21
ENDBRANCH  18  19
ENDBRANCH  17  18
ENDBRANCH  11  17
ENDBRANCH   1  15
BRANCH   3  23
ATOM     23  C   UNL     1      -6.434  -4.618  -3.347  0.00  0.00    +0.044 A 
ATOM     24  C   UNL     1      -5.913  -3.704  -2.435  0.00  0.00    +0.014 A 
ATOM     25  C   UNL     1      -5.839  -2.366  -2.766  0.00  0.00    +0.001 A 
ATOM     26  C   UNL     1      -6.281  -1.929  -4.003  0.00  0.00    +0.004 A 
ATOM     27  C   UNL     1      -6.799  -2.829  -4.915  0.00  0.00    +0.046 A 
ATOM     28  C   UNL     1      -6.873  -4.175  -4.598  0.00  0.00    +0.126 A 
BRANCH  28  29
ATOM     29  O   UNL     1      -7.377  -5.061  -5.496  0.00  0.00    -0.506 OA
ATOM     30  H   UNL     1      -8.332  -5.192  -5.427  0.00  0.00    +0.292 HD
ENDBRANCH  28  29
ENDBRANCH   3  23
BRANCH  10  31
ATOM     31  C   UNL     1      -4.580  -8.139   1.361  0.00  0.00    +0.145 C 
BRANCH  31  32
ATOM     32  C   UNL     1      -5.602  -8.017   2.462  0.00  0.00    -0.012 A 
ATOM     33  C   UNL     1      -5.788  -6.809   3.117  0.00  0.00    +0.008 A 
ATOM     34  C   UNL     1      -6.739  -6.744   4.123  0.00  0.00    +0.020 A 
ATOM     35  C   UNL     1      -7.466  -7.877   4.437  0.00  0.00    +0.111 A 
ATOM     36  N   UNL     1      -7.262  -9.009   3.793  0.00  0.00    -0.263 NA
ATOM     37  C   UNL     1      -6.370  -9.107   2.827  0.00  0.00    +0.115 A 
ENDBRANCH  31  32
ENDBRANCH  10  31
TORSDOF 9
