REMARK  Name = ZINC10160270
REMARK  9 active torsions:
REMARK  status: ('A' for Active; 'I' for Inactive)
REMARK    1  A    between atoms: C_1  and  C_2
REMARK    2  A    between atoms: N_5  and  C_8
REMARK    3  A    between atoms: C_11  and  N_24
REMARK    4  A    between atoms: C_13  and  C_14
REMARK    5  A    between atoms: N_16  and  N_17
REMARK    6  A    between atoms: C_18  and  C_20
REMARK    7  A    between atoms: C_20  and  C_21
REMARK    8  A    between atoms: C_21  and  C_22
REMARK    9  A    between atoms: C_21  and  C_23
REMARK                            x       y       z     vdW  Elec       q    Type
REMARK                         _______ _______ _______ _____ _____    ______ ____
ROOT
ATOM      1  C   UNL     1       1.189   1.800   0.011  0.00  0.00    +0.042 A 
ATOM      2  C   UNL     1       0.006   1.079   0.110  0.00  0.00    +0.026 A 
ATOM      3  C   UNL     1      -1.207   1.738   0.109  0.00  0.00    +0.034 A 
ATOM      4  C   UNL     1      -1.254   3.120   0.021  0.00  0.00    +0.127 A 
ATOM      5  C   UNL     1      -0.091   3.852  -0.078  0.00  0.00    +0.047 A 
ATOM      6  C   UNL     1       1.144   3.200  -0.085  0.00  0.00    +0.061 A 
ENDROOT
BRANCH   1  11
ATOM      7  C   UNL     1       5.624  -1.679   0.030  0.00  0.00    +0.007 C 
ATOM      8  C   UNL     1       4.196  -1.130   0.043  0.00  0.00    -0.011 C 
ATOM      9  C   UNL     1       3.950  -0.313  -1.228  0.00  0.00    +0.022 C 
ATOM     10  C   UNL     1       2.542   0.284  -1.181  0.00  0.00    +0.105 C 
ATOM     11  N   UNL     1       2.411   1.139   0.006  0.00  0.00    -0.329 N 
ATOM     12  C   UNL     1       2.595   0.366   1.241  0.00  0.00    +0.105 C 
ATOM     13  C   UNL     1       4.005  -0.228   1.266  0.00  0.00    +0.022 C 
ENDBRANCH   1  11
BRANCH   6  14
ATOM     14  C   UNL     1       2.393   3.977  -0.190  0.00  0.00    +0.262 C 
ATOM     15  O   UNL     1       3.459   3.402  -0.294  0.00  0.00    -0.269 OA
ATOM     16  N   UNL     1       2.352   5.324  -0.171  0.00  0.00    -0.230 N 
ATOM     17  H   UNL     1       1.501   5.782  -0.088  0.00  0.00    +0.173 HD
BRANCH  16  18
ATOM     18  N   UNL     1       3.538   6.062  -0.271  0.00  0.00    -0.234 N 
ATOM     19  C   UNL     1       3.497   7.409  -0.252  0.00  0.00    +0.229 C 
ATOM     20  O   UNL     1       2.433   7.982  -0.149  0.00  0.00    -0.274 OA
ATOM     21  H   UNL     1       4.389   5.604  -0.354  0.00  0.00    +0.173 HD
BRANCH  19  22
ATOM     22  C   UNL     1       4.773   8.204  -0.360  0.00  0.00    +0.100 C 
BRANCH  22  23
ATOM     23  C   UNL     1       4.449   9.698  -0.314  0.00  0.00    -0.008 C 
ATOM     24  C   UNL     1       5.751  10.502  -0.297  0.00  0.00    +0.008 C 
ATOM     25  C   UNL     1       3.629  10.081  -1.547  0.00  0.00    +0.008 C 
ENDBRANCH  22  23
ENDBRANCH  19  22
ENDBRANCH  16  18
ENDBRANCH   6  14
BRANCH   4  26
ATOM     26  N   UNL     1      -2.562   3.814   0.027  0.00  0.00    +0.056 N 
ATOM     27  O   UNL     1      -2.608   5.028  -0.056  0.00  0.00    -0.126 OA
ATOM     28  O   UNL     1      -3.592   3.170   0.114  0.00  0.00    -0.126 OA
ENDBRANCH   4  26
TORSDOF 6
