REMARK  Name = ZINC39760523
REMARK  6 active torsions:
REMARK  status: ('A' for Active; 'I' for Inactive)
REMARK    1  A    between atoms: C_1  and  C_2
REMARK    2  A    between atoms: C_2  and  N_3
REMARK    3  A    between atoms: C_7  and  C_12
REMARK    4  A    between atoms: N_14  and  C_15
REMARK    5  A    between atoms: C_15  and  C_16
REMARK    6  A    between atoms: C_16  and  C_17
REMARK                            x       y       z     vdW  Elec       q    Type
REMARK                         _______ _______ _______ _____ _____    ______ ____
ROOT
ATOM      1  C   UNL     1      -5.154  -1.889  -3.906  0.00  0.00    +0.244 C 
ATOM      2  O   UNL     1      -6.234  -2.288  -3.515  0.00  0.00    -0.270 OA
ATOM      3  N   UNL     1      -4.909  -1.793  -5.228  0.00  0.00    -0.311 N 
ATOM      4  H   UNL     1      -4.047  -1.474  -5.540  0.00  0.00    +0.149 HD
ENDROOT
BRANCH   1   9
ATOM      5  N   UNL     1      -1.372  -0.511   0.012  0.00  0.00    -0.250 N 
ATOM      6  C   UNL     1      -2.146  -0.792  -1.111  0.00  0.00    +0.068 A 
ATOM      7  C   UNL     1      -1.896  -0.695  -2.474  0.00  0.00    +0.027 A 
ATOM      8  C   UNL     1      -2.870  -1.050  -3.382  0.00  0.00    +0.015 A 
ATOM      9  C   UNL     1      -4.112  -1.510  -2.934  0.00  0.00    +0.039 A 
ATOM     10  C   UNL     1      -4.365  -1.609  -1.562  0.00  0.00    +0.039 A 
ATOM     11  C   UNL     1      -3.386  -1.252  -0.657  0.00  0.00    +0.066 A 
ATOM     12  N   UNL     1      -3.342  -1.241   0.742  0.00  0.00    -0.263 N 
ATOM     13  N   UNL     1      -2.110  -0.794   1.125  0.00  0.00    -0.160 NA
ATOM     14  H   UNL     1      -4.061  -1.508   1.337  0.00  0.00    +0.168 HD
ATOM     15  H   UNL     1      -1.642  -1.472   1.707  0.00  0.00    +0.168 HD
BRANCH   5  17
ATOM     16  C   UNL     1      -0.019   1.526   0.010  0.00  0.00    +0.026 C 
ATOM     17  C   UNL     1       0.002  -0.004   0.002  0.00  0.00    +0.122 C 
ENDBRANCH   5  17
ENDBRANCH   1   9
BRANCH   3  18
ATOM     18  C   UNL     1      -5.944  -2.170  -6.194  0.00  0.00    +0.109 C 
BRANCH  18  19
ATOM     19  C   UNL     1      -5.413  -1.968  -7.615  0.00  0.00    +0.056 C 
BRANCH  19  20
ATOM     20  C   UNL     1      -6.478  -2.356  -8.609  0.00  0.00    -0.021 A 
ATOM     21  C   UNL     1      -7.562  -1.503  -9.101  0.00  0.00    +0.003 A 
ATOM     22  C   UNL     1      -7.948  -0.184  -8.854  0.00  0.00    +0.010 A 
ATOM     23  C   UNL     1      -9.039   0.334  -9.492  0.00  0.00    +0.001 A 
ATOM     24  C   UNL     1      -9.768  -0.440 -10.384  0.00  0.00    +0.002 A 
ATOM     25  C   UNL     1      -9.405  -1.744 -10.643  0.00  0.00    +0.026 A 
ATOM     26  C   UNL     1      -8.297  -2.292 -10.005  0.00  0.00    +0.047 A 
ATOM     27  N   UNL     1      -7.694  -3.529 -10.048  0.00  0.00    -0.360 N 
ATOM     28  C   UNL     1      -6.609  -3.546  -9.215  0.00  0.00    +0.087 A 
ATOM     29  H   UNL     1      -7.992  -4.275 -10.591  0.00  0.00    +0.165 HD
ENDBRANCH  19  20
ENDBRANCH  18  19
ENDBRANCH   3  18
TORSDOF 5
