REMARK  Name = ZINC39652722
REMARK  11 active torsions:
REMARK  status: ('A' for Active; 'I' for Inactive)
REMARK    1  A    between atoms: C_1  and  C_2
REMARK    2  A    between atoms: C_2  and  C_3
REMARK    3  A    between atoms: C_3  and  C_5
REMARK    4  A    between atoms: C_3  and  C_11
REMARK    5  A    between atoms: C_15  and  C_24
REMARK    6  A    between atoms: N_26  and  C_27
REMARK    7  A    between atoms: C_27  and  C_28
REMARK    8  A    between atoms: C_28  and  C_29
REMARK    9  A    between atoms: C_34  and  O_35
REMARK   10  A    between atoms: O_35  and  C_36
REMARK   11  A    between atoms: C_36  and  C_37
REMARK                            x       y       z     vdW  Elec       q    Type
REMARK                         _______ _______ _______ _____ _____    ______ ____
ROOT
ATOM      1  C   UNL     1       0.836  -2.172   1.177  0.00  0.00    +0.223 C 
ATOM      2  O   UNL     1       0.405  -2.885   2.059  0.00  0.00    -0.275 OA
ATOM      3  N   UNL     1       1.528  -2.710   0.153  0.00  0.00    -0.300 N 
ATOM      4  C   UNL     1       2.132  -2.008  -1.003  0.00  0.00    +0.121 C 
ATOM      5  C   UNL     1       3.483  -2.723  -1.232  0.00  0.00    +0.100 C 
ATOM      6  C   UNL     1       3.295  -4.121  -0.619  0.00  0.00    -0.004 C 
ATOM      7  C   UNL     1       1.863  -4.138  -0.067  0.00  0.00    +0.115 C 
ATOM      8  C   UNL     1       4.293  -4.340   0.513  0.00  0.00    -0.010 C 
ATOM      9  C   UNL     1       4.125  -5.757   1.069  0.00  0.00    -0.082 C 
ATOM     10  N   UNL     1       4.349  -6.735  -0.004  0.00  0.00    +0.379 N 
ATOM     11  C   UNL     1       3.327  -6.577  -1.046  0.00  0.00    -0.082 C 
ATOM     12  C   UNL     1       3.461  -5.195  -1.690  0.00  0.00    -0.010 C 
ATOM     13  H   UNL     1       5.263  -6.588  -0.405  0.00  0.00    -0.086 HD
ATOM     14  H   UNL     1       4.298  -7.668   0.378  0.00  0.00    -0.086 HD
ENDROOT
BRANCH   5  15
ATOM     15  C   UNL     1       3.777  -2.829  -2.706  0.00  0.00    +0.218 C 
ATOM     16  O   UNL     1       2.866  -2.920  -3.502  0.00  0.00    -0.275 OA
ATOM     17  N   UNL     1       5.053  -2.823  -3.141  0.00  0.00    -0.315 N 
ATOM     18  H   UNL     1       5.781  -2.751  -2.505  0.00  0.00    +0.149 HD
BRANCH  17  19
ATOM     19  C   UNL     1       5.339  -2.926  -4.574  0.00  0.00    +0.109 C 
BRANCH  19  20
ATOM     20  C   UNL     1       6.852  -2.896  -4.796  0.00  0.00    +0.057 C 
BRANCH  20  21
ATOM     21  C   UNL     1       7.146  -3.002  -6.270  0.00  0.00    -0.004 A 
ATOM     22  C   UNL     1       7.415  -4.234  -6.834  0.00  0.00    +0.007 A 
ATOM     23  C   UNL     1       7.686  -4.332  -8.187  0.00  0.00    +0.000 A 
ATOM     24  C   UNL     1       7.688  -3.198  -8.978  0.00  0.00    +0.004 A 
ATOM     25  C   UNL     1       7.419  -1.964  -8.418  0.00  0.00    +0.046 A 
ATOM     26  C   UNL     1       7.142  -1.864  -7.062  0.00  0.00    +0.124 A 
BRANCH  26  27
ATOM     27  O   UNL     1       6.872  -0.651  -6.511  0.00  0.00    -0.492 OA
BRANCH  27  28
ATOM     28  C   UNL     1       6.884   0.477  -7.387  0.00  0.00    +0.225 C 
ATOM     29  C   UNL     1       6.560   1.744  -6.591  0.00  0.00    +0.048 C 
ENDBRANCH  27  28
ENDBRANCH  26  27
ENDBRANCH  20  21
ENDBRANCH  19  20
ENDBRANCH  17  19
ENDBRANCH   5  15
BRANCH   1  30
ATOM     30  C   UNL     1       0.596  -0.685   1.225  0.00  0.00    +0.105 C 
BRANCH  30  31
ATOM     31  C   UNL     1      -0.197  -0.344   2.461  0.00  0.00    -0.036 A 
ATOM     32  C   UNL     1      -1.450  -0.895   2.652  0.00  0.00    +0.004 A 
ATOM     33  C   UNL     1      -2.176  -0.582   3.786  0.00  0.00    +0.000 A 
ATOM     34  C   UNL     1      -1.650   0.282   4.728  0.00  0.00    +0.000 A 
ATOM     35  C   UNL     1      -0.396   0.833   4.536  0.00  0.00    +0.000 A 
ATOM     36  C   UNL     1       0.332   0.516   3.405  0.00  0.00    +0.004 A 
ENDBRANCH  30  31
BRANCH  30  38
ATOM     37  C   UNL     1      -0.321   1.270  -0.032  0.00  0.00    +0.005 C 
ATOM     38  C   UNL     1      -0.186  -0.254  -0.018  0.00  0.00    +0.014 C 
ENDBRANCH  30  38
ENDBRANCH   1  30
TORSDOF 9
