REMARK  Name = ZINC16977034
REMARK  7 active torsions:
REMARK  status: ('A' for Active; 'I' for Inactive)
REMARK    1  A    between atoms: C_4  and  N_7
REMARK    2  A    between atoms: C_13  and  C_16
REMARK    3  A    between atoms: C_16  and  C_17
REMARK    4  A    between atoms: C_17  and  C_18
REMARK    5  A    between atoms: N_20  and  C_21
REMARK    6  A    between atoms: C_21  and  C_22
REMARK    7  A    between atoms: C_22  and  C_23
REMARK                            x       y       z     vdW  Elec       q    Type
REMARK                         _______ _______ _______ _____ _____    ______ ____
ROOT
ATOM      1  N   UNL     1      -1.897   7.598 -13.423  0.00  0.00    -0.269 N 
ATOM      2  C   UNL     1      -1.096   7.980 -12.408  0.00  0.00    +0.310 C 
ATOM      3  O   UNL     1      -0.565   9.073 -12.431  0.00  0.00    -0.252 OA
ATOM      4  N   UNL     1      -0.884   7.149 -11.368  0.00  0.00    -0.248 N 
ATOM      5  C   UNL     1      -0.058   7.543 -10.322  0.00  0.00    +0.166 A 
ATOM      6  N   UNL     1       0.274   6.878  -9.233  0.00  0.00    -0.230 NA
ATOM      7  C   UNL     1       1.075   7.405  -8.328  0.00  0.00    +0.051 A 
ATOM      8  C   UNL     1       1.565   8.650  -8.545  0.00  0.00    +0.071 A 
ATOM      9  S   UNL     1       0.809   9.034 -10.118  0.00  0.00    -0.060 S 
ATOM     10  H   UNL     1      -2.267   6.702 -13.438  0.00  0.00    +0.156 HD
ATOM     11  H   UNL     1      -1.308   6.277 -11.350  0.00  0.00    +0.158 HD
ENDROOT
BRANCH   1  15
ATOM     12  C   UNL     1      -2.784  10.269 -16.494  0.00  0.00    +0.000 A 
ATOM     13  C   UNL     1      -1.535  10.289 -15.902  0.00  0.00    +0.002 A 
ATOM     14  C   UNL     1      -1.238   9.405 -14.884  0.00  0.00    +0.023 A 
ATOM     15  C   UNL     1      -2.195   8.495 -14.455  0.00  0.00    +0.035 A 
ATOM     16  C   UNL     1      -3.447   8.474 -15.056  0.00  0.00    +0.023 A 
ATOM     17  C   UNL     1      -3.740   9.364 -16.070  0.00  0.00    +0.002 A 
ENDBRANCH   1  15
BRANCH   7  18
ATOM     18  C   UNL     1       1.443   6.638  -7.083  0.00  0.00    +0.065 C 
BRANCH  18  19
ATOM     19  C   UNL     1       0.168   6.210  -6.353  0.00  0.00    +0.102 C 
BRANCH  19  20
ATOM     20  C   UNL     1       0.536   5.443  -5.109  0.00  0.00    +0.213 C 
ATOM     21  O   UNL     1       1.702   5.258  -4.833  0.00  0.00    -0.276 OA
ATOM     22  N   UNL     1      -0.432   4.963  -4.303  0.00  0.00    -0.315 N 
ATOM     23  H   UNL     1      -1.365   5.111  -4.524  0.00  0.00    +0.149 HD
BRANCH  22  24
ATOM     24  C   UNL     1      -0.075   4.218  -3.093  0.00  0.00    +0.108 C 
BRANCH  24  25
ATOM     25  C   UNL     1      -1.349   3.789  -2.363  0.00  0.00    +0.049 C 
BRANCH  25  26
ATOM     26  C   UNL     1      -0.982   3.023  -1.119  0.00  0.00    -0.072 C 
ATOM     27  C   UNL     1      -0.917   3.674  -0.002  0.00  0.00    -0.028 C 
ATOM     28  C   UNL     1      -0.554   3.051   1.315  0.00  0.00    +0.027 C 
ATOM     29  C   UNL     1      -0.689   1.530   1.237  0.00  0.00    +0.004 C 
ATOM     30  C   UNL     1       0.039   1.040  -0.021  0.00  0.00    +0.005 C 
ATOM     31  C   UNL     1      -0.714   1.552  -1.252  0.00  0.00    +0.030 C 
ENDBRANCH  25  26
ENDBRANCH  24  25
ENDBRANCH  22  24
ENDBRANCH  19  20
ENDBRANCH  18  19
ENDBRANCH   7  18
TORSDOF 7
