REMARK  Name = ZINC01341891
REMARK  10 active torsions:
REMARK  status: ('A' for Active; 'I' for Inactive)
REMARK    1  A    between atoms: C_1  and  C_2
REMARK    2  A    between atoms: C_7  and  C_8
REMARK    3  A    between atoms: C_8  and  C_10
REMARK    4  A    between atoms: C_8  and  N_20
REMARK    5  A    between atoms: N_12  and  C_13
REMARK    6  A    between atoms: C_13  and  C_14
REMARK    7  A    between atoms: N_20  and  C_21
REMARK    8  A    between atoms: C_21  and  C_22
REMARK    9  A    between atoms: C_31  and  C_33
REMARK   10  A    between atoms: C_33  and  N_34
REMARK                            x       y       z     vdW  Elec       q    Type
REMARK                         _______ _______ _______ _____ _____    ______ ____
ROOT
ATOM      1  N   UNL     1      -0.291  -0.596   3.655  0.00  0.00    -0.280 N 
ATOM      2  C   UNL     1      -1.390  -0.335   4.390  0.00  0.00    +0.238 C 
ATOM      3  O   UNL     1      -2.181   0.507   4.019  0.00  0.00    -0.274 OA
ENDROOT
BRANCH   1   4
ATOM      4  C   UNL     1       0.014   0.220   2.477  0.00  0.00    +0.193 C 
BRANCH   4  11
ATOM      5  C   UNL     1      -2.316  -1.007   1.288  0.00  0.00    +0.044 C 
ATOM      6  C   UNL     1      -0.950  -1.259   0.703  0.00  0.00    -0.045 A 
ATOM      7  C   UNL     1      -0.812  -2.074  -0.406  0.00  0.00    +0.004 A 
ATOM      8  C   UNL     1       0.440  -2.305  -0.942  0.00  0.00    +0.000 A 
ATOM      9  C   UNL     1       1.556  -1.722  -0.370  0.00  0.00    +0.000 A 
ATOM     10  C   UNL     1       1.418  -0.907   0.738  0.00  0.00    +0.006 A 
ATOM     11  C   UNL     1       0.165  -0.672   1.272  0.00  0.00    -0.015 A 
ENDBRANCH   4  11
BRANCH   4  12
ATOM     12  C   UNL     1       1.299   0.974   2.707  0.00  0.00    +0.238 C 
ATOM     13  O   UNL     1       1.989   0.715   3.670  0.00  0.00    -0.273 OA
ATOM     14  N   UNL     1       1.680   1.935   1.843  0.00  0.00    -0.311 N 
ATOM     15  H   UNL     1       1.094   2.192   1.114  0.00  0.00    +0.149 HD
BRANCH  14  16
ATOM     16  C   UNL     1       2.979   2.593   2.006  0.00  0.00    +0.135 C 
BRANCH  16  17
ATOM     17  C   UNL     1       3.164   3.636   0.902  0.00  0.00    +0.135 C 
ATOM     18  C   UNL     1       4.579   4.249   0.992  0.00  0.00    +0.035 C 
ATOM     19  C   UNL     1       4.311   5.744   0.672  0.00  0.00    +0.031 C 
ATOM     20  C   UNL     1       2.912   5.936   1.310  0.00  0.00    +0.160 C 
ATOM     21  O   UNL     1       2.219   4.699   1.075  0.00  0.00    -0.375 OA
ENDBRANCH  16  17
ENDBRANCH  14  16
ENDBRANCH   4  12
ENDBRANCH   1   4
BRANCH   1  22
ATOM     22  C   UNL     1       0.599  -1.697   4.033  0.00  0.00    +0.144 C 
BRANCH  22  23
ATOM     23  C   UNL     1       0.205  -2.942   3.282  0.00  0.00    -0.026 A 
ATOM     24  C   UNL     1      -0.838  -3.725   3.742  0.00  0.00    +0.009 A 
ATOM     25  C   UNL     1      -1.204  -4.868   3.056  0.00  0.00    +0.050 A 
ATOM     26  C   UNL     1      -0.525  -5.232   1.905  0.00  0.00    +0.166 A 
ATOM     27  C   UNL     1       0.526  -4.444   1.441  0.00  0.00    +0.167 A 
ATOM     28  C   UNL     1       0.883  -3.297   2.130  0.00  0.00    +0.054 A 
ATOM     29  O   UNL     1       1.026  -5.010   0.303  0.00  0.00    -0.453 OA
ATOM     30  C   UNL     1       0.541  -6.365   0.302  0.00  0.00    +0.466 C 
ATOM     31  O   UNL     1      -0.683  -6.291   1.058  0.00  0.00    -0.453 OA
ENDBRANCH  22  23
ENDBRANCH   1  22
BRANCH   2  32
ATOM     32  C   UNL     1      -1.636  -1.088   5.672  0.00  0.00    +0.241 C 
BRANCH  32  33
ATOM     33  N   UNL     1      -2.929  -0.688   6.232  0.00  0.00    -0.235 N 
ATOM     34  C   UNL     1      -3.162   0.344   7.110  0.00  0.00    +0.090 A 
ATOM     35  C   UNL     1      -2.350   1.290   7.726  0.00  0.00    +0.029 A 
ATOM     36  C   UNL     1      -2.901   2.210   8.573  0.00  0.00    +0.002 A 
ATOM     37  C   UNL     1      -4.268   2.209   8.824  0.00  0.00    +0.002 A 
ATOM     38  C   UNL     1      -5.085   1.292   8.232  0.00  0.00    +0.032 A 
ATOM     39  C   UNL     1      -4.545   0.338   7.359  0.00  0.00    +0.113 A 
ATOM     40  N   UNL     1      -5.086  -0.668   6.644  0.00  0.00    -0.129 NA
ATOM     41  N   UNL     1      -4.174  -1.280   5.974  0.00  0.00    -0.064 NA
ENDBRANCH  32  33
ENDBRANCH   2  32
TORSDOF 9
