REMARK  Name = ZINC66926734
REMARK  7 active torsions:
REMARK  status: ('A' for Active; 'I' for Inactive)
REMARK    1  A    between atoms: C_1  and  C_2
REMARK    2  A    between atoms: C_4  and  C_7
REMARK    3  A    between atoms: C_7  and  C_9
REMARK    4  A    between atoms: C_7  and  N_10
REMARK    5  A    between atoms: N_13  and  N_14
REMARK    6  A    between atoms: C_15  and  C_17
REMARK    7  A    between atoms: C_17  and  C_18
REMARK                            x       y       z     vdW  Elec       q    Type
REMARK                         _______ _______ _______ _____ _____    ______ ____
ROOT
ATOM      1  N   UNL     1      -3.173  -2.432  -0.581  0.00  0.00    -0.290 N 
ATOM      2  C   UNL     1      -4.151  -3.167  -1.147  0.00  0.00    +0.316 C 
ATOM      3  O   UNL     1      -4.058  -4.379  -1.180  0.00  0.00    -0.251 OA
ATOM      4  N   UNL     1      -5.231  -2.558  -1.676  0.00  0.00    -0.218 N 
ATOM      5  H   UNL     1      -3.246  -1.465  -0.554  0.00  0.00    +0.151 HD
ATOM      6  H   UNL     1      -5.934  -3.087  -2.083  0.00  0.00    +0.174 HD
ENDROOT
BRANCH   4   7
ATOM      7  N   UNL     1      -5.337  -1.162  -1.638  0.00  0.00    -0.233 N 
ATOM      8  C   UNL     1      -6.417  -0.554  -2.167  0.00  0.00    +0.234 C 
ATOM      9  O   UNL     1      -7.297  -1.215  -2.676  0.00  0.00    -0.274 OA
ATOM     10  H   UNL     1      -4.633  -0.633  -1.230  0.00  0.00    +0.173 HD
BRANCH   8  11
ATOM     11  C   UNL     1      -6.531   0.948  -2.126  0.00  0.00    +0.135 C 
BRANCH  11  12
ATOM     12  C   UNL     1      -7.822   1.372  -2.778  0.00  0.00    -0.003 A 
ATOM     13  C   UNL     1      -7.836   1.732  -4.113  0.00  0.00    +0.007 A 
ATOM     14  C   UNL     1      -9.020   2.120  -4.712  0.00  0.00    +0.000 A 
ATOM     15  C   UNL     1     -10.191   2.150  -3.977  0.00  0.00    +0.003 A 
ATOM     16  C   UNL     1     -10.179   1.790  -2.643  0.00  0.00    +0.038 A 
ATOM     17  C   UNL     1      -8.995   1.395  -2.043  0.00  0.00    +0.127 A 
ATOM     18  F   UNL     1      -8.983   1.039  -0.740  0.00  0.00    -0.205 F 
ENDBRANCH  11  12
ENDBRANCH   8  11
ENDBRANCH   4   7
BRANCH   1  19
ATOM     19  C   UNL     1      -1.999  -3.093  -0.006  0.00  0.00    +0.121 C 
ATOM     20  C   UNL     1      -2.307  -3.521   1.431  0.00  0.00    +0.034 C 
BRANCH  19  24
ATOM     21  C   UNL     1      -0.018   1.503   0.010  0.00  0.00    +0.073 C 
ATOM     22  C   UNL     1       0.002  -0.004   0.002  0.00  0.00    +0.076 A 
ATOM     23  N   UNL     1      -1.013  -0.832   0.002  0.00  0.00    -0.247 NA
ATOM     24  C   UNL     1      -0.834  -2.137  -0.006  0.00  0.00    +0.069 A 
ATOM     25  C   UNL     1       0.449  -2.582  -0.014  0.00  0.00    +0.072 A 
ATOM     26  S   UNL     1       1.335  -1.032  -0.017  0.00  0.00    -0.080 S 
ENDBRANCH  19  24
ENDBRANCH   1  19
TORSDOF 5
