REMARK  Name = ZINC01724345
REMARK  2 active torsions:
REMARK  status: ('A' for Active; 'I' for Inactive)
REMARK    1  A    between atoms: C_6  and  N_7
REMARK    2  A    between atoms: C_16  and  N_18
REMARK                            x       y       z     vdW  Elec       q    Type
REMARK                         _______ _______ _______ _____ _____    ______ ____
ROOT
ATOM      1  C   UNL     1       1.132   5.945   0.024  0.00  0.00    +0.033 A 
ATOM      2  C   UNL     1       1.694   4.679   0.011  0.00  0.00    +0.011 A 
ATOM      3  C   UNL     1       0.878   3.556   0.013  0.00  0.00    -0.006 A 
ATOM      4  C   UNL     1      -0.518   3.715   0.027  0.00  0.00    +0.032 A 
ATOM      5  C   UNL     1      -1.069   4.991   0.039  0.00  0.00    +0.045 A 
ATOM      6  C   UNL     1      -0.241   6.101   0.038  0.00  0.00    +0.127 A 
ATOM      7  C   UNL     1      -1.128   2.366   0.020  0.00  0.00    +0.194 C 
ATOM      8  O   UNL     1      -2.316   2.110   0.023  0.00  0.00    -0.287 OA
ATOM      9  C   UNL     1      -0.017   1.385   0.010  0.00  0.00    +0.032 A 
ATOM     10  C   UNL     1       1.190   2.104   0.002  0.00  0.00    -0.005 A 
ATOM     11  C   UNL     1       2.398   1.418  -0.014  0.00  0.00    +0.026 A 
ATOM     12  C   UNL     1       2.411   0.033  -0.021  0.00  0.00    +0.039 A 
ATOM     13  C   UNL     1       1.219  -0.680  -0.013  0.00  0.00    +0.039 A 
ATOM     14  C   UNL     1       0.002  -0.004   0.002  0.00  0.00    +0.036 A 
ATOM     15 BR   UNL     1       4.060  -0.892  -0.043  0.00  0.00    -0.048 Br
ENDROOT
BRANCH   6  16
ATOM     16  N   UNL     1      -0.828   7.460   0.051  0.00  0.00    +0.056 N 
ATOM     17  O   UNL     1      -0.102   8.437   0.050  0.00  0.00    -0.126 OA
ATOM     18  O   UNL     1      -2.038   7.600   0.064  0.00  0.00    -0.126 OA
ENDBRANCH   6  16
BRANCH  13  19
ATOM     19  N   UNL     1       1.241  -2.076  -0.021  0.00  0.00    -0.357 N 
ATOM     20  H   UNL     1       0.409  -2.574  -0.016  0.00  0.00    +0.142 HD
ATOM     21  H   UNL     1       2.089  -2.547  -0.032  0.00  0.00    +0.142 HD
ENDBRANCH  13  19
TORSDOF 2
