REMARK  Name = ZINC09430304
REMARK  7 active torsions:
REMARK  status: ('A' for Active; 'I' for Inactive)
REMARK    1  A    between atoms: C_1  and  C_2
REMARK    2  A    between atoms: C_2  and  C_3
REMARK    3  A    between atoms: C_6  and  N_9
REMARK    4  A    between atoms: C_10  and  C_12
REMARK    5  A    between atoms: C_12  and  N_13
REMARK    6  A    between atoms: C_16  and  S_24
REMARK    7  A    between atoms: S_24  and  N_27
REMARK                            x       y       z     vdW  Elec       q    Type
REMARK                         _______ _______ _______ _____ _____    ______ ____
ROOT
ATOM      1  N   UNL     1       3.668   6.178   0.312  0.00  0.00    -0.256 N 
ATOM      2  C   UNL     1       4.292   6.330   1.558  0.00  0.00    +0.081 A 
ATOM      3  C   UNL     1       3.775   5.715   2.688  0.00  0.00    +0.055 A 
ATOM      4  C   UNL     1       4.409   5.873   3.906  0.00  0.00    +0.107 A 
ATOM      5  C   UNL     1       5.558   6.637   3.999  0.00  0.00    +0.032 A 
ATOM      6  C   UNL     1       6.082   7.247   2.874  0.00  0.00    +0.049 A 
ATOM      7  C   UNL     1       5.453   7.094   1.651  0.00  0.00    +0.143 A 
ATOM      8  O   UNL     1       5.955   7.686   0.534  0.00  0.00    -0.481 OA
ATOM      9  C   UNL     1       5.774   6.988  -0.700  0.00  0.00    +0.325 C 
ATOM     10  C   UNL     1       4.349   6.508  -0.807  0.00  0.00    +0.258 C 
ATOM     11  O   UNL     1       3.817   6.418  -1.893  0.00  0.00    -0.271 OA
ENDROOT
BRANCH   4  12
ATOM     12  S   UNL     1       3.749   5.100   5.346  0.00  0.00    +0.061 S 
ATOM     13  O   UNL     1       2.977   3.995   4.896  0.00  0.00    -0.153 OA
ATOM     14  O   UNL     1       4.829   4.953   6.259  0.00  0.00    -0.153 OA
BRANCH  12  15
ATOM     15  N   UNL     1       2.689   6.170   6.035  0.00  0.00    -0.177 NA
ATOM     16  C   UNL     1       3.149   7.135   7.042  0.00  0.00    +0.109 C 
ATOM     17  C   UNL     1       2.730   8.544   6.595  0.00  0.00    +0.017 C 
ATOM     18  C   UNL     1       1.220   8.567   6.346  0.00  0.00    +0.003 C 
ATOM     19  C   UNL     1       0.872   7.583   5.226  0.00  0.00    +0.017 C 
ATOM     20  C   UNL     1       1.270   6.167   5.654  0.00  0.00    +0.109 C 
ENDBRANCH  12  15
ENDBRANCH   4  12
BRANCH   1  21
ATOM     21  C   UNL     1       2.295   5.673   0.225  0.00  0.00    +0.209 C 
BRANCH  21  23
ATOM     22  N   UNL     1       1.162   3.485   0.009  0.00  0.00    -0.284 N 
ATOM     23  C   UNL     1       2.318   4.171   0.104  0.00  0.00    +0.235 C 
ATOM     24  O   UNL     1       3.377   3.580   0.091  0.00  0.00    -0.274 OA
ATOM     25  H   UNL     1       0.319   3.961  -0.048  0.00  0.00    +0.155 HD
BRANCH  22  29
ATOM     26  C   UNL     1       1.210  -0.680  -0.036  0.00  0.00    -0.048 A 
ATOM     27  C   UNL     1       0.172  -0.009   0.585  0.00  0.00    +0.005 A 
ATOM     28  C   UNL     1       0.154   1.372   0.602  0.00  0.00    +0.023 A 
ATOM     29  C   UNL     1       1.178   2.086  -0.006  0.00  0.00    +0.033 A 
ATOM     30  C   UNL     1       2.218   1.409  -0.629  0.00  0.00    +0.023 A 
ATOM     31  C   UNL     1       2.231   0.028  -0.642  0.00  0.00    +0.005 A 
BRANCH  26  33
ATOM     32  C   UNL     1       0.494  -2.692  -1.297  0.00  0.00    +0.009 C 
ATOM     33  C   UNL     1       1.227  -2.187  -0.053  0.00  0.00    +0.032 C 
ENDBRANCH  26  33
ENDBRANCH  22  29
ENDBRANCH  21  23
ENDBRANCH   1  21
TORSDOF 6
