REMARK  Name = ZINC63192707
REMARK  4 active torsions:
REMARK  status: ('A' for Active; 'I' for Inactive)
REMARK    1  A    between atoms: C_1  and  C_2
REMARK    2  A    between atoms: C_2  and  C_4
REMARK    3  A    between atoms: C_2  and  N_23
REMARK    4  A    between atoms: C_11  and  C_13
REMARK                            x       y       z     vdW  Elec       q    Type
REMARK                         _______ _______ _______ _____ _____    ______ ____
ROOT
ATOM      1  C   UNL     1      -1.425  -0.645  -0.039  0.00  0.00    +0.062 C 
ATOM      2  C   UNL     1      -1.062  -2.131   0.038  0.00  0.00    +0.021 C 
ATOM      3  C   UNL     1      -2.326  -2.946   0.323  0.00  0.00    +0.003 C 
ATOM      4  C   UNL     1      -2.915  -2.522   1.671  0.00  0.00    +0.019 C 
ATOM      5  C   UNL     1      -3.299  -1.040   1.612  0.00  0.00    +0.108 C 
ATOM      6  N   UNL     1      -2.124  -0.261   1.195  0.00  0.00    -0.296 N 
ATOM      7  C   UNL     1      -1.695   0.783   1.931  0.00  0.00    +0.253 C 
ATOM      8  O   UNL     1      -0.612   1.287   1.700  0.00  0.00    -0.269 OA
ENDROOT
BRANCH   7   9
ATOM      9  C   UNL     1      -2.534   1.312   3.011  0.00  0.00    +0.075 A 
ATOM     10  C   UNL     1      -2.268   2.335   3.900  0.00  0.00    +0.024 A 
ATOM     11  C   UNL     1      -3.254   2.631   4.836  0.00  0.00    -0.036 A 
ATOM     12  C   UNL     1      -4.385   1.880   4.783  0.00  0.00    -0.006 A 
ATOM     13  S   UNL     1      -4.167   0.808   3.517  0.00  0.00    -0.088 S 
ATOM     14  C   UNL     1      -5.594   1.976   5.666  0.00  0.00    +0.043 C 
ATOM     15  C   UNL     1      -5.745   3.415   6.171  0.00  0.00    +0.005 C 
ATOM     16  C   UNL     1      -4.962   3.558   7.473  0.00  0.00    +0.001 C 
ATOM     17  C   UNL     1      -3.481   3.273   7.243  0.00  0.00    +0.005 C 
ATOM     18  C   UNL     1      -3.056   3.747   5.857  0.00  0.00    +0.036 C 
ENDBRANCH   7   9
BRANCH   1  20
ATOM     19  C   UNL     1       0.853  -0.221   0.897  0.00  0.00    -0.012 C 
ATOM     20  C   UNL     1      -0.149   0.188  -0.185  0.00  0.00    -0.057 C 
BRANCH  20  21
ATOM     21  N   UNL     1       0.440  -0.047  -1.510  0.00  0.00    +0.381 N 
ATOM     22  H   UNL     1       0.599  -1.035  -1.638  0.00  0.00    -0.090 HD
ATOM     23  H   UNL     1      -0.193   0.286  -2.223  0.00  0.00    -0.090 HD
ATOM     24  H   UNL     1       1.316   0.448  -1.581  0.00  0.00    -0.090 HD
ENDBRANCH  20  21
ENDBRANCH   1  20
TORSDOF 3
