REMARK  Name = ZINC66793818
REMARK  8 active torsions:
REMARK  status: ('A' for Active; 'I' for Inactive)
REMARK    1  A    between atoms: C_1  and  N_2
REMARK    2  A    between atoms: N_2  and  C_3
REMARK    3  A    between atoms: N_2  and  C_10
REMARK    4  A    between atoms: C_3  and  C_4
REMARK    5  A    between atoms: C_10  and  C_11
REMARK    6  A    between atoms: N_14  and  C_17
REMARK    7  A    between atoms: C_17  and  N_18
REMARK    8  A    between atoms: C_25  and  N_29
REMARK                            x       y       z     vdW  Elec       q    Type
REMARK                         _______ _______ _______ _____ _____    ______ ____
ROOT
ATOM      1  C   UNL     1      -2.080  -0.242   1.460  0.00  0.00    -0.025 C 
ATOM      2  C   UNL     1      -2.426   1.246   1.560  0.00  0.00    +0.017 C 
ATOM      3  C   UNL     1      -3.094   1.520   2.910  0.00  0.00    +0.086 C 
ATOM      4  N   UNL     1      -4.311   0.707   3.029  0.00  0.00    -0.286 NA
ATOM      5  C   UNL     1      -3.999  -0.727   2.983  0.00  0.00    +0.086 C 
ATOM      6  C   UNL     1      -3.358  -1.068   1.635  0.00  0.00    +0.017 C 
ENDROOT
BRANCH   1   7
ATOM      7  C   UNL     1      -1.467  -0.533   0.089  0.00  0.00    -0.075 C 
BRANCH   7   9
ATOM      8  C   UNL     1       0.074  -2.137   0.988  0.00  0.00    -0.096 C 
ATOM      9  N   UNL     1      -1.027  -1.934   0.037  0.00  0.00    +0.381 N 
ATOM     10  H   UNL     1      -1.798  -2.538   0.280  0.00  0.00    -0.082 HD
BRANCH   9  11
ATOM     11  C   UNL     1      -0.565  -2.252  -1.321  0.00  0.00    -0.043 C 
BRANCH  11  12
ATOM     12  C   UNL     1      -0.229  -3.718  -1.407  0.00  0.00    -0.064 A 
ATOM     13  C   UNL     1       1.050  -4.153  -1.114  0.00  0.00    +0.002 A 
ATOM     14  C   UNL     1       1.358  -5.498  -1.192  0.00  0.00    +0.000 A 
ATOM     15  C   UNL     1       0.387  -6.409  -1.564  0.00  0.00    +0.000 A 
ATOM     16  C   UNL     1      -0.892  -5.975  -1.856  0.00  0.00    +0.000 A 
ATOM     17  C   UNL     1      -1.202  -4.630  -1.773  0.00  0.00    +0.002 A 
ENDBRANCH  11  12
ENDBRANCH   9  11
ENDBRANCH   7   9
ENDBRANCH   1   7
BRANCH   4  18
ATOM     18  C   UNL     1      -5.053   1.046   4.251  0.00  0.00    +0.204 C 
BRANCH  18  19
ATOM     19  N   UNL     1      -6.468   0.711   4.072  0.00  0.00    -0.220 N 
ATOM     20  C   UNL     1      -7.392   1.553   3.576  0.00  0.00    +0.255 C 
ATOM     21  O   UNL     1      -7.190   2.694   3.211  0.00  0.00    -0.269 OA
ATOM     22  C   UNL     1      -8.695   0.856   3.550  0.00  0.00    +0.051 A 
ATOM     23  C   UNL     1      -9.973   1.210   3.154  0.00  0.00    +0.014 A 
ATOM     24  C   UNL     1     -11.011   0.294   3.262  0.00  0.00    +0.003 A 
ATOM     25  C   UNL     1     -10.782  -0.970   3.762  0.00  0.00    +0.023 A 
ATOM     26  C   UNL     1      -9.499  -1.347   4.168  0.00  0.00    +0.038 A 
ATOM     27  C   UNL     1      -8.450  -0.435   4.063  0.00  0.00    +0.070 A 
ATOM     28  C   UNL     1      -7.012  -0.481   4.376  0.00  0.00    +0.257 C 
ATOM     29  O   UNL     1      -6.417  -1.435   4.836  0.00  0.00    -0.269 OA
BRANCH  26  30
ATOM     30  N   UNL     1      -9.272  -2.620   4.670  0.00  0.00    -0.357 N 
ATOM     31  H   UNL     1     -10.005  -3.252   4.741  0.00  0.00    +0.142 HD
ATOM     32  H   UNL     1      -8.380  -2.878   4.951  0.00  0.00    +0.142 HD
ENDBRANCH  26  30
ENDBRANCH  18  19
ENDBRANCH   4  18
TORSDOF 7
