REMARK  Name = ZINC25336437
REMARK  4 active torsions:
REMARK  status: ('A' for Active; 'I' for Inactive)
REMARK    1  A    between atoms: C_1  and  C_2
REMARK    2  A    between atoms: C_4  and  C_15
REMARK    3  A    between atoms: C_5  and  C_14
REMARK    4  A    between atoms: N_6  and  C_7
REMARK                            x       y       z     vdW  Elec       q    Type
REMARK                         _______ _______ _______ _____ _____    ______ ____
ROOT
ATOM      1  C   UNL     1       0.336  -3.324  -1.542  0.00  0.00    +0.211 C 
ATOM      2  N   UNL     1       1.755  -3.720  -1.571  0.00  0.00    -0.293 N 
ATOM      3  C   UNL     1       2.627  -3.075  -2.408  0.00  0.00    +0.183 C 
ATOM      4  N   UNL     1       2.222  -2.558  -3.555  0.00  0.00    -0.183 NA
ATOM      5  C   UNL     1       0.907  -2.624  -3.864  0.00  0.00    +0.236 A 
ATOM      6  N   UNL     1      -0.041  -2.998  -2.923  0.00  0.00    -0.285 N 
ATOM      7  C   UNL     1      -1.258  -2.983  -3.535  0.00  0.00    +0.072 A 
ATOM      8  C   UNL     1      -2.543  -3.281  -3.096  0.00  0.00    +0.028 A 
ATOM      9  C   UNL     1      -3.572  -3.151  -4.016  0.00  0.00    +0.002 A 
ATOM     10  C   UNL     1      -3.345  -2.743  -5.318  0.00  0.00    +0.002 A 
ATOM     11  C   UNL     1      -2.077  -2.441  -5.781  0.00  0.00    +0.030 A 
ATOM     12  C   UNL     1      -1.021  -2.565  -4.870  0.00  0.00    +0.091 A 
ATOM     13  N   UNL     1       0.309  -2.354  -5.000  0.00  0.00    -0.210 NA
ATOM     14  N   UNL     1       3.943  -2.964  -2.049  0.00  0.00    -0.331 N 
ATOM     15  H   UNL     1       4.250  -3.340  -1.209  0.00  0.00    +0.145 HD
ATOM     16  H   UNL     1       4.568  -2.509  -2.635  0.00  0.00    +0.145 HD
ATOM     17  H   UNL     1       2.072  -4.436  -0.998  0.00  0.00    +0.151 HD
ENDROOT
BRANCH   1  21
ATOM     18  C   UNL     1      -0.330   1.480   0.021  0.00  0.00    +0.064 C 
ATOM     19  C   UNL     1      -0.135  -0.014   0.007  0.00  0.00    +0.021 A 
ATOM     20  C   UNL     1      -0.006  -0.784  -1.093  0.00  0.00    +0.030 A 
ATOM     21  C   UNL     1       0.156  -2.115  -0.660  0.00  0.00    +0.014 A 
ATOM     22  C   UNL     1       0.119  -2.110   0.688  0.00  0.00    +0.028 A 
ATOM     23  N   UNL     1      -0.053  -0.821   1.105  0.00  0.00    -0.317 N 
ATOM     24  C   UNL     1       0.252  -3.317   1.580  0.00  0.00    +0.064 C 
BRANCH  23  25
ATOM     25  C   UNL     1      -0.136  -0.398   2.439  0.00  0.00    +0.047 A 
ATOM     26  C   UNL     1       0.963  -0.521   3.278  0.00  0.00    +0.027 A 
ATOM     27  C   UNL     1       0.879  -0.103   4.591  0.00  0.00    +0.016 A 
ATOM     28  C   UNL     1      -0.299   0.439   5.072  0.00  0.00    +0.014 A 
ATOM     29  C   UNL     1      -1.397   0.563   4.239  0.00  0.00    +0.016 A 
ATOM     30  C   UNL     1      -1.316   0.151   2.922  0.00  0.00    +0.027 A 
ATOM     31  I   UNL     1      -0.423   1.071   7.065  0.00  0.00    -0.044 I 
ENDBRANCH  23  25
ENDBRANCH   1  21
TORSDOF 2
