REMARK  Name = ZINC08791569
REMARK  7 active torsions:
REMARK  status: ('A' for Active; 'I' for Inactive)
REMARK    1  A    between atoms: C_1  and  C_2
REMARK    2  A    between atoms: C_16  and  C_18
REMARK    3  A    between atoms: C_18  and  C_19
REMARK    4  A    between atoms: N_31  and  C_34
REMARK    5  A    between atoms: C_34  and  C_35
REMARK    6  A    between atoms: C_35  and  O_36
REMARK    7  A    between atoms: O_36  and  C_37
REMARK                            x       y       z     vdW  Elec       q    Type
REMARK                         _______ _______ _______ _____ _____    ______ ____
ROOT
ATOM      1  C   UNL     1      -2.978   4.660   7.659  0.00  0.00    +0.045 C 
ATOM      2  C   UNL     1      -2.196   5.428   6.624  0.00  0.00    -0.029 A 
ATOM      3  C   UNL     1      -0.990   6.005   6.962  0.00  0.00    +0.005 A 
ATOM      4  C   UNL     1      -0.266   6.712   6.019  0.00  0.00    +0.001 A 
ATOM      5  C   UNL     1      -0.755   6.842   4.731  0.00  0.00    +0.004 A 
ATOM      6  C   UNL     1      -1.958   6.268   4.389  0.00  0.00    -0.027 A 
ATOM      7  C   UNL     1      -2.695   5.553   5.330  0.00  0.00    +0.039 A 
ATOM      8  N   UNL     1      -3.871   5.067   4.754  0.00  0.00    -0.286 N 
ATOM      9  C   UNL     1      -3.982   5.413   3.457  0.00  0.00    +0.211 C 
ATOM     10  O   UNL     1      -4.893   5.130   2.708  0.00  0.00    -0.277 OA
ATOM     11  C   UNL     1      -2.757   6.217   3.118  0.00  0.00    +0.050 C 
ATOM     12  C   UNL     1      -3.127   7.622   2.628  0.00  0.00    +0.088 C 
ATOM     13  C   UNL     1      -2.069   7.948   1.537  0.00  0.00    +0.073 C 
ATOM     14  C   UNL     1      -1.157   6.704   1.486  0.00  0.00    -0.053 C 
ATOM     15  C   UNL     1      -2.888   8.021   0.268  0.00  0.00    +0.224 C 
ATOM     16  O   UNL     1      -2.446   8.249  -0.837  0.00  0.00    -0.275 OA
ATOM     17  N   UNL     1      -4.175   7.795   0.556  0.00  0.00    -0.240 N 
ATOM     18  C   UNL     1      -4.422   7.563   1.850  0.00  0.00    +0.225 C 
ATOM     19  O   UNL     1      -5.515   7.340   2.325  0.00  0.00    -0.275 OA
ATOM     20  H   UNL     1      -4.532   4.543   5.233  0.00  0.00    +0.155 HD
ATOM     21  N   UNL     1      -1.989   5.630   2.033  0.00  0.00    +0.394 N 
ATOM     22  H   UNL     1      -2.619   5.266   1.309  0.00  0.00    -0.083 HD
ATOM     23  H   UNL     1      -1.398   4.869   2.387  0.00  0.00    -0.083 HD
ENDROOT
BRANCH  14  24
ATOM     24  C   UNL     1      -0.741   6.409   0.043  0.00  0.00    +0.022 C 
BRANCH  24  25
ATOM     25  C   UNL     1       0.245   5.269   0.029  0.00  0.00    -0.024 A 
ATOM     26  C   UNL     1       1.583   5.371   0.017  0.00  0.00    +0.087 A 
ATOM     27  N   UNL     1       2.147   4.124   0.004  0.00  0.00    -0.360 N 
ATOM     28  H   UNL     1       3.099   3.943  -0.006  0.00  0.00    +0.165 HD
ATOM     29  C   UNL     1       1.159   3.165   0.008  0.00  0.00    +0.047 A 
ATOM     30  C   UNL     1      -0.075   3.840   0.023  0.00  0.00    +0.003 A 
ATOM     31  C   UNL     1      -1.267   3.112   0.031  0.00  0.00    +0.010 A 
ATOM     32  C   UNL     1      -1.228   1.746   0.017  0.00  0.00    +0.001 A 
ATOM     33  C   UNL     1      -0.013   1.076   0.008  0.00  0.00    +0.002 A 
ATOM     34  C   UNL     1       1.175   1.774   0.000  0.00  0.00    +0.026 A 
ENDBRANCH  24  25
ENDBRANCH  14  24
BRANCH  17  35
ATOM     35  C   UNL     1      -5.227   7.803  -0.463  0.00  0.00    +0.144 C 
BRANCH  35  36
ATOM     36  C   UNL     1      -5.395   6.394  -1.034  0.00  0.00    +0.179 C 
BRANCH  36  37
ATOM     37  O   UNL     1      -5.868   5.518  -0.009  0.00  0.00    -0.381 OA
ATOM     38  C   UNL     1      -6.059   4.169  -0.440  0.00  0.00    +0.194 C 
ENDBRANCH  36  37
ENDBRANCH  35  36
ENDBRANCH  17  35
TORSDOF 5
