REMARK  Name = ZINC36580272
REMARK  15 active torsions:
REMARK  status: ('A' for Active; 'I' for Inactive)
REMARK    1  A    between atoms: C_1  and  C_2
REMARK    2  A    between atoms: C_5  and  S_8
REMARK    3  A    between atoms: S_8  and  C_11
REMARK    4  A    between atoms: C_11  and  N_12
REMARK    5  A    between atoms: C_13  and  C_15
REMARK    6  A    between atoms: C_15  and  C_17
REMARK    7  A    between atoms: C_15  and  N_26
REMARK    8  A    between atoms: C_18  and  O_25
REMARK    9  A    between atoms: C_20  and  O_24
REMARK   10  A    between atoms: C_22  and  O_23
REMARK   11  A    between atoms: N_26  and  C_35
REMARK   12  A    between atoms: C_27  and  C_29
REMARK   13  A    between atoms: C_35  and  C_36
REMARK   14  A    between atoms: C_35  and  C_37
REMARK   15  A    between atoms: C_35  and  C_38
REMARK                            x       y       z     vdW  Elec       q    Type
REMARK                         _______ _______ _______ _____ _____    ______ ____
ROOT
ATOM      1  C   UNL     1       3.564  -5.902   3.655  0.00  0.00    +0.200 C 
ENDROOT
BRANCH   1   2
ATOM      2  C   UNL     1       5.037  -5.599   3.549  0.00  0.00    +0.065 A 
ATOM      3  C   UNL     1       5.966  -6.621   3.678  0.00  0.00    +0.129 A 
ATOM      4  C   UNL     1       7.321  -6.342   3.581  0.00  0.00    +0.091 A 
ATOM      5  C   UNL     1       7.747  -5.042   3.355  0.00  0.00    +0.124 A 
ATOM      6  C   UNL     1       6.818  -4.021   3.225  0.00  0.00    +0.091 A 
ATOM      7  C   UNL     1       5.463  -4.300   3.318  0.00  0.00    +0.129 A 
BRANCH   7   8
ATOM      8  O   UNL     1       4.552  -3.300   3.186  0.00  0.00    -0.506 OA
ATOM      9  H   UNL     1       4.321  -2.866   4.019  0.00  0.00    +0.292 HD
ENDBRANCH   7   8
BRANCH   5  10
ATOM     10  O   UNL     1       9.075  -4.768   3.261  0.00  0.00    -0.507 OA
ATOM     11  H   UNL     1       9.426  -4.830   2.362  0.00  0.00    +0.292 HD
ENDBRANCH   5  10
BRANCH   3  12
ATOM     12  O   UNL     1       5.549  -7.895   3.900  0.00  0.00    -0.506 OA
ATOM     13  H   UNL     1       5.338  -8.386   3.093  0.00  0.00    +0.292 HD
ENDBRANCH   3  12
ENDBRANCH   1   2
BRANCH   1  15
ATOM     14  N   UNL     1       3.142  -7.491   1.806  0.00  0.00    -0.294 N 
ATOM     15  C   UNL     1       3.298  -7.290   3.130  0.00  0.00    +0.240 C 
ATOM     16  O   UNL     1       3.225  -8.225   3.898  0.00  0.00    -0.273 OA
ATOM     17  H   UNL     1       3.201  -6.743   1.192  0.00  0.00    +0.150 HD
BRANCH  14  18
ATOM     18  C   UNL     1       2.883  -8.839   1.296  0.00  0.00    +0.278 C 
BRANCH  18  19
ATOM     19  S   UNL     1       1.096  -9.081   1.104  0.00  0.00    +0.013 S 
ATOM     20  O   UNL     1       0.414  -8.642   2.272  0.00  0.00    -0.168 OA
ATOM     21  O   UNL     1       0.831 -10.362   0.550  0.00  0.00    -0.168 OA
BRANCH  19  26
ATOM     22  C   UNL     1      -0.547  -5.178  -3.194  0.00  0.00    +0.044 C 
ATOM     23  C   UNL     1      -0.137  -6.153  -2.120  0.00  0.00    -0.050 A 
ATOM     24  C   UNL     1       0.255  -7.434  -2.463  0.00  0.00    +0.005 A 
ATOM     25  C   UNL     1       0.631  -8.328  -1.478  0.00  0.00    +0.027 A 
ATOM     26  C   UNL     1       0.617  -7.941  -0.151  0.00  0.00    +0.090 A 
ATOM     27  C   UNL     1       0.226  -6.660   0.191  0.00  0.00    +0.027 A 
ATOM     28  C   UNL     1      -0.146  -5.764  -0.794  0.00  0.00    +0.005 A 
ENDBRANCH  19  26
ENDBRANCH  18  19
ENDBRANCH  14  18
ENDBRANCH   1  15
BRANCH   1  29
ATOM     29  N   UNL     1       3.149  -5.823   5.057  0.00  0.00    -0.280 N 
ATOM     30  C   UNL     1       4.076  -5.730   6.031  0.00  0.00    +0.220 C 
ATOM     31  O   UNL     1       5.237  -5.530   5.745  0.00  0.00    -0.275 OA
BRANCH  30  32
ATOM     32  C   UNL     1       3.670  -5.875   7.475  0.00  0.00    +0.075 C 
ATOM     33  C   UNL     1       2.766  -4.706   7.870  0.00  0.00    +0.013 C 
ATOM     34  C   UNL     1       2.353  -4.853   9.336  0.00  0.00    +0.001 C 
ATOM     35  C   UNL     1       3.602  -4.854  10.220  0.00  0.00    +0.000 C 
ATOM     36  C   UNL     1       4.506  -6.024   9.824  0.00  0.00    +0.001 C 
ATOM     37  C   UNL     1       4.919  -5.876   8.358  0.00  0.00    +0.013 C 
ENDBRANCH  30  32
BRANCH  29  38
ATOM     38  C   UNL     1       1.725  -5.844   5.402  0.00  0.00    +0.030 C 
ATOM     39  C   UNL     1       0.934  -6.489   4.261  0.00  0.00    +0.031 C 
ATOM     40  C   UNL     1       1.522  -6.654   6.684  0.00  0.00    +0.031 C 
ATOM     41  C   UNL     1       1.231  -4.412   5.619  0.00  0.00    +0.031 C 
ENDBRANCH  29  38
ENDBRANCH   1  29
TORSDOF 11
