REMARK  Name = ZINC51562967
REMARK  6 active torsions:
REMARK  status: ('A' for Active; 'I' for Inactive)
REMARK    1  A    between atoms: C_1  and  C_2
REMARK    2  A    between atoms: C_2  and  C_4
REMARK    3  A    between atoms: C_2  and  N_11
REMARK    4  A    between atoms: N_11  and  C_12
REMARK    5  A    between atoms: C_12  and  C_13
REMARK    6  A    between atoms: N_15  and  C_16
REMARK                            x       y       z     vdW  Elec       q    Type
REMARK                         _______ _______ _______ _____ _____    ______ ____
ROOT
ATOM      1  C   UNL     1       2.820  -0.953  -2.280  0.00  0.00    +0.228 C 
ATOM      2  O   UNL     1       2.157  -1.184  -3.269  0.00  0.00    -0.274 OA
ATOM      3  N   UNL     1       4.155  -1.134  -2.306  0.00  0.00    -0.303 N 
ATOM      4  H   UNL     1       4.685  -0.949  -1.515  0.00  0.00    +0.149 HD
ENDROOT
BRANCH   3   5
ATOM      5  C   UNL     1       4.806  -1.609  -3.529  0.00  0.00    +0.159 C 
ATOM      6  C   UNL     1       6.214  -2.111  -3.200  0.00  0.00    +0.032 C 
ATOM      7  C   UNL     1       6.837  -1.278  -2.094  0.00  0.00    +0.004 C 
ATOM      8  C   UNL     1       7.121   0.158  -2.494  0.00  0.00    +0.019 C 
ATOM      9  C   UNL     1       5.819   0.925  -2.737  0.00  0.00    +0.104 C 
ATOM     10  N   UNL     1       5.401   0.711  -4.133  0.00  0.00    -0.314 N 
ATOM     11  C   UNL     1       4.916  -0.472  -4.522  0.00  0.00    +0.233 C 
ATOM     12  O   UNL     1       4.568  -0.638  -5.672  0.00  0.00    -0.274 OA
ATOM     13  H   UNL     1       5.475   1.435  -4.774  0.00  0.00    +0.149 HD
ENDBRANCH   3   5
BRANCH   1  14
ATOM     14  C   UNL     1       2.150  -0.463  -1.022  0.00  0.00    +0.178 C 
BRANCH  14  15
ATOM     15  N   UNL     1       0.703  -0.349  -1.250  0.00  0.00    -0.302 NA
ATOM     16  H   UNL     1       0.316  -1.226  -1.564  0.00  0.00    +0.123 HD
BRANCH  15  18
ATOM     17  C   UNL     1       0.063   1.655   0.003  0.00  0.00    +0.029 C 
ATOM     18  C   UNL     1       0.016   0.127  -0.042  0.00  0.00    +0.083 C 
BRANCH  18  19
ATOM     19  C   UNL     1      -1.420  -0.331  -0.067  0.00  0.00    -0.012 A 
ATOM     20  C   UNL     1      -2.003  -0.711  -1.262  0.00  0.00    +0.006 A 
ATOM     21  C   UNL     1      -3.320  -1.131  -1.285  0.00  0.00    +0.000 A 
ATOM     22  C   UNL     1      -4.054  -1.172  -0.115  0.00  0.00    +0.001 A 
ATOM     23  C   UNL     1      -3.472  -0.793   1.080  0.00  0.00    +0.020 A 
ATOM     24  C   UNL     1      -2.152  -0.378   1.105  0.00  0.00    +0.046 A 
ATOM     25 CL   UNL     1      -1.418   0.092   2.607  0.00  0.00    -0.083 Cl
ENDBRANCH  18  19
ENDBRANCH  15  18
ENDBRANCH  14  15
ENDBRANCH   1  14
TORSDOF 5
