REMARK  Name = ZINC40062673
REMARK  5 active torsions:
REMARK  status: ('A' for Active; 'I' for Inactive)
REMARK    1  A    between atoms: C_2  and  C_3
REMARK    2  A    between atoms: C_3  and  N_4
REMARK    3  A    between atoms: C_14  and  C_16
REMARK    4  A    between atoms: N_18  and  C_25
REMARK    5  A    between atoms: C_19  and  C_22
REMARK                            x       y       z     vdW  Elec       q    Type
REMARK                         _______ _______ _______ _____ _____    ______ ____
ROOT
ATOM      1  C   UNL     1      -2.266  -0.075  -2.433  0.00  0.00    +0.124 C 
ATOM      2  N   UNL     1      -2.235   0.904  -1.587  0.00  0.00    -0.178 NA
ATOM      3  N   UNL     1      -2.934   2.035  -2.002  0.00  0.00    -0.212 N 
ATOM      4  C   UNL     1      -3.522   1.773  -3.325  0.00  0.00    +0.189 C 
ATOM      5  C   UNL     1      -3.072   0.334  -3.645  0.00  0.00    +0.096 C 
ENDROOT
BRANCH   1  16
ATOM      6  N   UNL     1      -0.908  -1.618  -1.129  0.00  0.00    -0.242 N 
ATOM      7  C   UNL     1      -0.367  -2.878  -0.912  0.00  0.00    +0.168 A 
ATOM      8  N   UNL     1       0.342  -3.298   0.113  0.00  0.00    -0.229 NA
ATOM      9  C   UNL     1       0.800  -4.544   0.187  0.00  0.00    +0.054 A 
ATOM     10  C   UNL     1       0.480  -5.335  -0.870  0.00  0.00    +0.014 A 
ATOM     11  S   UNL     1      -0.464  -4.243  -1.896  0.00  0.00    -0.057 S 
ATOM     12  C   UNL     1       0.844  -6.765  -1.082  0.00  0.00    +0.044 C 
ATOM     13  C   UNL     1       1.959  -7.128  -0.088  0.00  0.00    +0.006 C 
ATOM     14  C   UNL     1       1.565  -6.623   1.303  0.00  0.00    +0.006 C 
ATOM     15  C   UNL     1       1.622  -5.095   1.344  0.00  0.00    +0.056 C 
ATOM     16  C   UNL     1      -1.618  -1.373  -2.248  0.00  0.00    +0.268 C 
ATOM     17  O   UNL     1      -1.720  -2.231  -3.105  0.00  0.00    -0.268 OA
BRANCH   6  18
ATOM     18  C   UNL     1      -0.708  -0.555  -0.141  0.00  0.00    +0.142 C 
BRANCH  18  20
ATOM     19  C   UNL     1       0.304   1.605  -0.660  0.00  0.00    +0.005 C 
ATOM     20  C   UNL     1       0.454   0.308  -0.560  0.00  0.00    -0.015 C 
ENDBRANCH  18  20
ENDBRANCH   6  18
ENDBRANCH   1  16
BRANCH   3  21
ATOM     21  C   UNL     1      -3.057   3.224  -1.281  0.00  0.00    +0.052 A 
ATOM     22  C   UNL     1      -3.751   4.299  -1.823  0.00  0.00    +0.025 A 
ATOM     23  C   UNL     1      -3.872   5.473  -1.106  0.00  0.00    +0.002 A 
ATOM     24  C   UNL     1      -3.301   5.580   0.150  0.00  0.00    +0.000 A 
ATOM     25  C   UNL     1      -2.609   4.513   0.692  0.00  0.00    +0.002 A 
ATOM     26  C   UNL     1      -2.490   3.333  -0.017  0.00  0.00    +0.025 A 
ENDBRANCH   3  21
BRANCH   4  27
ATOM     27  C   UNL     1      -5.025   1.867  -3.265  0.00  0.00    +0.233 C 
ATOM     28  O   UNL     1      -5.595   1.792  -2.197  0.00  0.00    -0.274 OA
ATOM     29  N   UNL     1      -5.735   2.034  -4.398  0.00  0.00    -0.328 N 
ATOM     30  H   UNL     1      -5.279   2.095  -5.252  0.00  0.00    +0.145 HD
ATOM     31  H   UNL     1      -6.703   2.095  -4.359  0.00  0.00    +0.145 HD
ENDBRANCH   4  27
TORSDOF 5
