REMARK  Name = ZINC12637866
REMARK  11 active torsions:
REMARK  status: ('A' for Active; 'I' for Inactive)
REMARK    1  A    between atoms: C_1  and  C_2
REMARK    2  A    between atoms: C_2  and  C_3
REMARK    3  A    between atoms: C_2  and  C_4
REMARK    4  A    between atoms: C_4  and  C_5
REMARK    5  A    between atoms: C_5  and  C_7
REMARK    6  A    between atoms: C_5  and  N_25
REMARK    7  A    between atoms: C_7  and  O_9
REMARK    8  A    between atoms: O_9  and  C_10
REMARK    9  A    between atoms: C_10  and  C_11
REMARK   10  A    between atoms: C_11  and  C_13
REMARK   11  A    between atoms: C_13  and  C_23
REMARK                            x       y       z     vdW  Elec       q    Type
REMARK                         _______ _______ _______ _____ _____    ______ ____
ROOT
ATOM      1  C   UNL     1      -0.747   1.960  -1.211  0.00  0.00    +0.329 C 
ATOM      2  O   UNL     1      -1.203   1.173  -2.006  0.00  0.00    -0.249 OA
ENDROOT
BRANCH   1   3
ATOM      3  C   UNL     1      -0.018   1.461   0.010  0.00  0.00    +0.193 C 
BRANCH   3   4
ATOM      4  N   UNL     1       0.002  -0.004   0.002  0.00  0.00    -0.220 N 
ATOM      5  C   UNL     1       0.553  -0.752  -0.971  0.00  0.00    +0.255 C 
ATOM      6  O   UNL     1       1.104  -0.328  -1.966  0.00  0.00    -0.270 OA
ATOM      7  C   UNL     1       0.377  -2.179  -0.624  0.00  0.00    +0.049 A 
ATOM      8  C   UNL     1       0.732  -3.373  -1.231  0.00  0.00    +0.014 A 
ATOM      9  C   UNL     1       0.402  -4.576  -0.626  0.00  0.00    +0.001 A 
ATOM     10  C   UNL     1      -0.278  -4.591   0.578  0.00  0.00    +0.001 A 
ATOM     11  C   UNL     1      -0.638  -3.405   1.196  0.00  0.00    +0.014 A 
ATOM     12  C   UNL     1      -0.316  -2.195   0.603  0.00  0.00    +0.049 A 
ATOM     13  C   UNL     1      -0.533  -0.778   0.964  0.00  0.00    +0.255 C 
ATOM     14  O   UNL     1      -1.099  -0.379   1.961  0.00  0.00    -0.270 OA
ENDBRANCH   3   4
BRANCH   3  15
ATOM     15  C   UNL     1       1.418   1.990  -0.001  0.00  0.00    +0.037 C 
BRANCH  15  17
ATOM     16  C   UNL     1       3.589   2.008   1.234  0.00  0.00    +0.007 C 
ATOM     17  C   UNL     1       2.119   1.588   1.298  0.00  0.00    -0.015 C 
ATOM     18  C   UNL     1       1.441   2.282   2.481  0.00  0.00    +0.007 C 
ENDBRANCH  15  17
ENDBRANCH   3  15
ENDBRANCH   1   3
BRANCH   1  19
ATOM     19  O   UNL     1      -0.889   3.279  -1.415  0.00  0.00    -0.455 OA
BRANCH  19  20
ATOM     20  C   UNL     1      -1.602   3.688  -2.612  0.00  0.00    +0.312 C 
BRANCH  20  21
ATOM     21  C   UNL     1      -1.663   5.192  -2.671  0.00  0.00    +0.214 C 
ATOM     22  O   UNL     1      -1.154   5.856  -1.790  0.00  0.00    -0.288 OA
BRANCH  21  23
ATOM     23  C   UNL     1      -2.308   5.827  -3.746  0.00  0.00    +0.133 C 
ATOM     24  C   UNL     1      -2.364   7.232  -3.802  0.00  0.00    +0.114 C 
ATOM     25  N   UNL     1      -1.840   8.077  -2.877  0.00  0.00    -0.300 N 
ATOM     26  C   UNL     1      -2.096   9.381  -3.284  0.00  0.00    +0.054 A 
ATOM     27  C   UNL     1      -1.795  10.621  -2.737  0.00  0.00    +0.025 A 
ATOM     28  C   UNL     1      -2.197  11.773  -3.383  0.00  0.00    +0.002 A 
ATOM     29  C   UNL     1      -2.898  11.698  -4.575  0.00  0.00    +0.002 A 
ATOM     30  C   UNL     1      -3.203  10.470  -5.127  0.00  0.00    +0.025 A 
ATOM     31  C   UNL     1      -2.804   9.305  -4.486  0.00  0.00    +0.054 A 
ATOM     32  N   UNL     1      -2.957   7.957  -4.785  0.00  0.00    -0.300 N 
ATOM     33  H   UNL     1      -1.366   7.816  -2.072  0.00  0.00    +0.153 HD
ATOM     34  H   UNL     1      -3.410   7.595  -5.564  0.00  0.00    +0.153 HD
BRANCH  23  35
ATOM     35  C   UNL     1      -2.908   5.045  -4.785  0.00  0.00    +0.106 C 
ATOM     36  N   UNL     1      -3.383   4.424  -5.609  0.00  0.00    -0.191 NA
ENDBRANCH  23  35
ENDBRANCH  21  23
ENDBRANCH  20  21
ENDBRANCH  19  20
ENDBRANCH   1  19
TORSDOF 9
