REMARK  Name = ZINC52332080
REMARK  6 active torsions:
REMARK  status: ('A' for Active; 'I' for Inactive)
REMARK    1  A    between atoms: C_1  and  C_2
REMARK    2  A    between atoms: C_5  and  N_20
REMARK    3  A    between atoms: C_7  and  C_8
REMARK    4  A    between atoms: N_10  and  C_11
REMARK    5  A    between atoms: C_11  and  C_13
REMARK    6  A    between atoms: C_11  and  C_14
REMARK                            x       y       z     vdW  Elec       q    Type
REMARK                         _______ _______ _______ _____ _____    ______ ____
ROOT
ATOM      1  C   UNL     1       0.243   0.025   2.481  0.00  0.00    +0.245 C 
ATOM      2  O   UNL     1       0.136   1.236   2.500  0.00  0.00    -0.270 OA
ATOM      3  N   UNL     1       0.466  -0.650   3.626  0.00  0.00    -0.308 N 
ATOM      4  H   UNL     1       0.551  -1.616   3.610  0.00  0.00    +0.149 HD
ENDROOT
BRANCH   1  11
ATOM      5  C   UNL     1      -0.512   1.452   0.082  0.00  0.00    +0.044 C 
ATOM      6  C   UNL     1      -0.235  -0.028   0.036  0.00  0.00    -0.038 A 
ATOM      7  C   UNL     1      -0.335  -0.712  -1.158  0.00  0.00    +0.006 A 
ATOM      8  C   UNL     1      -0.082  -2.070  -1.205  0.00  0.00    +0.023 A 
ATOM      9  C   UNL     1       0.275  -2.756  -0.050  0.00  0.00    +0.025 A 
ATOM     10  C   UNL     1       0.378  -2.078   1.155  0.00  0.00    +0.036 A 
ATOM     11  C   UNL     1       0.128  -0.706   1.201  0.00  0.00    +0.041 A 
BRANCH   9  12
ATOM     12  N   UNL     1       0.529  -4.129  -0.103  0.00  0.00    -0.358 N 
ATOM     13  H   UNL     1       0.456  -4.604  -0.946  0.00  0.00    +0.142 HD
ATOM     14  H   UNL     1       0.778  -4.608   0.703  0.00  0.00    +0.142 HD
ENDBRANCH   9  12
ENDBRANCH   1  11
BRANCH   3  15
ATOM     15  C   UNL     1       0.579   0.075   4.894  0.00  0.00    +0.073 C 
ATOM     16  C   UNL     1      -0.817   0.308   5.474  0.00  0.00    +0.028 C 
BRANCH  15  17
ATOM     17  C   UNL     1       1.411  -0.748   5.879  0.00  0.00    +0.009 C 
ATOM     18  C   UNL     1       0.728  -2.095   6.122  0.00  0.00    +0.005 C 
ATOM     19  C   UNL     1       1.560  -2.918   7.107  0.00  0.00    +0.000 C 
ATOM     20  C   UNL     1       1.678  -2.161   8.431  0.00  0.00    +0.000 C 
ATOM     21  C   UNL     1       2.361  -0.813   8.189  0.00  0.00    +0.000 C 
ATOM     22  C   UNL     1       1.529   0.010   7.203  0.00  0.00    +0.005 C 
ENDBRANCH  15  17
ENDBRANCH   3  15
TORSDOF 4
