REMARK  Name = ZINC16995293
REMARK  2 active torsions:
REMARK  status: ('A' for Active; 'I' for Inactive)
REMARK    1  A    between atoms: C_6  and  C_7
REMARK    2  A    between atoms: C_12  and  C_20
REMARK                            x       y       z     vdW  Elec       q    Type
REMARK                         _______ _______ _______ _____ _____    ______ ____
ROOT
ATOM      1  C   UNL     1      -1.293  -0.775   0.010  0.00  0.00    +0.032 C 
ATOM      2  C   UNL     1      -1.374  -1.661  -1.234  0.00  0.00    +0.060 C 
ATOM      3  C   UNL     1      -2.654  -2.462  -1.204  0.00  0.00    +0.020 C 
ATOM      4  C   UNL     1      -3.200  -2.852  -0.033  0.00  0.00    +0.041 C 
ATOM      5  C   UNL     1      -4.472  -3.670   0.029  0.00  0.00    +0.175 C 
ATOM      6  N   UNL     1      -5.139  -3.651  -1.266  0.00  0.00    -0.221 N 
ATOM      7  C   UNL     1      -4.542  -3.227  -2.408  0.00  0.00    +0.218 A 
ATOM      8  N   UNL     1      -5.403  -3.344  -3.381  0.00  0.00    -0.201 NA
ATOM      9  C   UNL     1      -6.553  -3.830  -2.904  0.00  0.00    +0.247 A 
ATOM     10  N   UNL     1      -6.434  -4.031  -1.614  0.00  0.00    -0.156 NA
ATOM     11  N   UNL     1      -3.236  -2.766  -2.412  0.00  0.00    -0.287 N 
ATOM     12  C   UNL     1      -2.602  -2.506   1.192  0.00  0.00    +0.164 C 
ATOM     13  O   UNL     1      -3.109  -2.886   2.229  0.00  0.00    -0.292 OA
ATOM     14  C   UNL     1      -1.350  -1.675   1.249  0.00  0.00    +0.088 C 
ATOM     15  H   UNL     1      -2.746  -2.660  -3.243  0.00  0.00    +0.155 HD
ENDROOT
BRANCH   1  21
ATOM     16  C   UNL     1      -0.017   1.378   0.010  0.00  0.00    +0.007 A 
ATOM     17  C   UNL     1       1.170   2.086   0.002  0.00  0.00    +0.038 A 
ATOM     18  C   UNL     1       2.379   1.410  -0.013  0.00  0.00    +0.123 A 
ATOM     19  C   UNL     1       2.396   0.026  -0.021  0.00  0.00    +0.038 A 
ATOM     20  C   UNL     1       1.208  -0.680  -0.013  0.00  0.00    +0.007 A 
ATOM     21  C   UNL     1       0.002  -0.004   0.002  0.00  0.00    -0.043 A 
ATOM     22  F   UNL     1       3.540   2.101  -0.021  0.00  0.00    -0.205 F 
ENDBRANCH   1  21
BRANCH   5  23
ATOM     23  C   UNL     1      -4.135  -5.092   0.395  0.00  0.00    -0.018 A 
ATOM     24  C   UNL     1      -3.293  -5.833  -0.414  0.00  0.00    +0.007 A 
ATOM     25  C   UNL     1      -2.984  -7.138  -0.079  0.00  0.00    +0.020 A 
ATOM     26  C   UNL     1      -3.517  -7.702   1.067  0.00  0.00    +0.041 A 
ATOM     27  C   UNL     1      -4.359  -6.960   1.876  0.00  0.00    +0.020 A 
ATOM     28  C   UNL     1      -4.663  -5.654   1.543  0.00  0.00    +0.007 A 
ATOM     29 CL   UNL     1      -3.129  -9.341   1.488  0.00  0.00    -0.084 Cl
ENDBRANCH   5  23
TORSDOF 2
