REMARK  Name = ZINC13125644
REMARK  3 active torsions:
REMARK  status: ('A' for Active; 'I' for Inactive)
REMARK    1  A    between atoms: C_8  and  C_18
REMARK    2  A    between atoms: N_9  and  C_10
REMARK    3  A    between atoms: C_10  and  C_11
REMARK                            x       y       z     vdW  Elec       q    Type
REMARK                         _______ _______ _______ _____ _____    ______ ____
ROOT
ATOM      1  C   UNL     1       0.011   1.402   0.043  0.00  0.00    +0.002 A 
ATOM      2  C   UNL     1       1.196   2.111  -0.091  0.00  0.00    +0.002 A 
ATOM      3  C   UNL     1       2.403   1.448  -0.163  0.00  0.00    +0.028 A 
ATOM      4  C   UNL     1       2.432   0.062  -0.100  0.00  0.00    +0.069 A 
ATOM      5  C   UNL     1       1.231  -0.657   0.036  0.00  0.00    +0.090 A 
ATOM      6  C   UNL     1       0.019   0.037   0.107  0.00  0.00    +0.030 A 
ATOM      7  N   UNL     1       1.553  -1.973   0.070  0.00  0.00    -0.227 NA
ATOM      8  C   UNL     1       2.854  -2.111  -0.035  0.00  0.00    +0.147 A 
ATOM      9  N   UNL     1       3.443  -0.879  -0.143  0.00  0.00    -0.319 N 
ENDROOT
BRANCH   8  10
ATOM     10  C   UNL     1       3.573  -3.399  -0.037  0.00  0.00    +0.082 A 
ATOM     11  C   UNL     1       4.523  -3.679   0.939  0.00  0.00    +0.018 A 
ATOM     12  C   UNL     1       5.184  -4.909   0.907  0.00  0.00    +0.018 A 
ATOM     13  C   UNL     1       4.899  -5.810  -0.066  0.00  0.00    +0.086 A 
ATOM     14  N   UNL     1       3.974  -5.542  -1.021  0.00  0.00    -0.329 N 
ATOM     15  H   UNL     1       3.789  -6.204  -1.706  0.00  0.00    +0.168 HD
ATOM     16  C   UNL     1       3.304  -4.374  -1.030  0.00  0.00    +0.259 A 
ATOM     17  O   UNL     1       2.472  -4.153  -1.894  0.00  0.00    -0.267 OA
ENDBRANCH   8  10
BRANCH   9  18
ATOM     18  C   UNL     1       4.877  -0.610  -0.278  0.00  0.00    +0.159 C 
BRANCH  18  19
ATOM     19  C   UNL     1       5.225  -0.460  -1.736  0.00  0.00    -0.028 A 
ATOM     20  C   UNL     1       5.500  -1.580  -2.499  0.00  0.00    +0.008 A 
ATOM     21  C   UNL     1       5.819  -1.445  -3.837  0.00  0.00    +0.038 A 
ATOM     22  C   UNL     1       5.863  -0.187  -4.413  0.00  0.00    +0.123 A 
ATOM     23  C   UNL     1       5.588   0.934  -3.649  0.00  0.00    +0.038 A 
ATOM     24  C   UNL     1       5.264   0.796  -2.312  0.00  0.00    +0.008 A 
ATOM     25  F   UNL     1       6.175  -0.053  -5.721  0.00  0.00    -0.205 F 
ENDBRANCH  18  19
ENDBRANCH   9  18
TORSDOF 3
