REMARK  Name = ZINC64230702
REMARK  10 active torsions:
REMARK  status: ('A' for Active; 'I' for Inactive)
REMARK    1  A    between atoms: C_1  and  C_2
REMARK    2  A    between atoms: C_2  and  N_3
REMARK    3  A    between atoms: N_3  and  C_4
REMARK    4  A    between atoms: C_4  and  C_5
REMARK    5  A    between atoms: C_8  and  N_11
REMARK    6  A    between atoms: N_11  and  C_12
REMARK    7  A    between atoms: N_11  and  C_13
REMARK    8  A    between atoms: N_16  and  C_17
REMARK    9  A    between atoms: C_17  and  C_18
REMARK   10  A    between atoms: C_20  and  C_23
REMARK                            x       y       z     vdW  Elec       q    Type
REMARK                         _______ _______ _______ _____ _____    ______ ____
ROOT
ATOM      1  N   UNL     1       0.688  -0.476  -1.203  0.00  0.00    -0.282 N 
ATOM      2  C   UNL     1      -0.013  -0.705  -2.332  0.00  0.00    +0.303 C 
ATOM      3  O   UNL     1       0.556  -1.097  -3.332  0.00  0.00    -0.253 OA
ATOM      4  N   UNL     1      -1.345  -0.498  -2.351  0.00  0.00    -0.292 N 
ATOM      5  H   UNL     1      -1.799  -0.185  -1.553  0.00  0.00    +0.151 HD
ENDROOT
BRANCH   1   7
ATOM      6  C   UNL     1      -0.019   1.526   0.010  0.00  0.00    +0.024 C 
ATOM      7  C   UNL     1       0.002  -0.004   0.002  0.00  0.00    +0.106 C 
ENDBRANCH   1   7
BRANCH   1   8
ATOM      8  C   UNL     1       2.135  -0.701  -1.182  0.00  0.00    +0.144 C 
BRANCH   8   9
ATOM      9  C   UNL     1       2.417  -2.123  -0.770  0.00  0.00    -0.030 A 
ATOM     10  C   UNL     1       2.576  -2.435   0.568  0.00  0.00    +0.007 A 
ATOM     11  C   UNL     1       2.834  -3.737   0.949  0.00  0.00    +0.023 A 
ATOM     12  C   UNL     1       2.934  -4.734  -0.013  0.00  0.00    +0.029 A 
ATOM     13  C   UNL     1       2.774  -4.417  -1.356  0.00  0.00    +0.023 A 
ATOM     14  C   UNL     1       2.510  -3.114  -1.730  0.00  0.00    +0.007 A 
BRANCH  12  15
ATOM     15  N   UNL     1       3.196  -6.052   0.369  0.00  0.00    -0.336 N 
ATOM     16  C   UNL     1       3.365  -6.383   1.786  0.00  0.00    +0.129 C 
ATOM     17  C   UNL     1       3.300  -7.102  -0.647  0.00  0.00    +0.129 C 
ENDBRANCH  12  15
ENDBRANCH   8   9
ENDBRANCH   1   8
BRANCH   4  18
ATOM     18  C   UNL     1      -2.107  -0.746  -3.578  0.00  0.00    +0.183 C 
BRANCH  18  19
ATOM     19  C   UNL     1      -3.562  -0.440  -3.335  0.00  0.00    +0.154 A 
ATOM     20  C   UNL     1      -4.163   0.750  -3.524  0.00  0.00    +0.072 A 
ATOM     21  C   UNL     1      -5.521   0.613  -3.184  0.00  0.00    +0.081 A 
ATOM     22  N   UNL     1      -5.721  -0.618  -2.806  0.00  0.00    -0.083 NA
ATOM     23  O   UNL     1      -4.488  -1.308  -2.900  0.00  0.00    -0.358 OA
ATOM     24  C   UNL     1      -6.563   1.700  -3.246  0.00  0.00    +0.069 C 
ENDBRANCH  18  19
ENDBRANCH   4  18
TORSDOF 6
