REMARK  Name = ZINC39675139
REMARK  10 active torsions:
REMARK  status: ('A' for Active; 'I' for Inactive)
REMARK    1  A    between atoms: C_1  and  C_2
REMARK    2  A    between atoms: C_5  and  C_8
REMARK    3  A    between atoms: C_12  and  C_21
REMARK    4  A    between atoms: N_23  and  C_24
REMARK    5  A    between atoms: C_24  and  C_26
REMARK    6  A    between atoms: C_24  and  C_27
REMARK    7  A    between atoms: C_27  and  C_28
REMARK    8  A    between atoms: C_28  and  C_29
REMARK    9  A    between atoms: C_32  and  O_35
REMARK   10  A    between atoms: O_35  and  C_36
REMARK                            x       y       z     vdW  Elec       q    Type
REMARK                         _______ _______ _______ _____ _____    ______ ____
ROOT
ATOM      1  C   UNL     1       0.054  -4.265  -0.028  0.00  0.00    +0.247 C 
ATOM      2  O   UNL     1       0.104  -3.051  -0.026  0.00  0.00    -0.270 OA
ATOM      3  N   UNL     1      -0.031  -4.938   1.137  0.00  0.00    -0.296 N 
ATOM      4  C   UNL     1      -0.155  -4.377   2.503  0.00  0.00    +0.121 C 
ATOM      5  C   UNL     1      -1.149  -5.316   3.222  0.00  0.00    +0.100 C 
ATOM      6  C   UNL     1      -1.056  -6.647   2.456  0.00  0.00    -0.004 C 
ATOM      7  C   UNL     1      -0.029  -6.407   1.340  0.00  0.00    +0.115 C 
ATOM      8  C   UNL     1      -2.410  -7.004   1.850  0.00  0.00    -0.010 C 
ATOM      9  C   UNL     1      -2.306  -8.358   1.143  0.00  0.00    -0.082 C 
ATOM     10  N   UNL     1      -1.892  -9.385   2.106  0.00  0.00    +0.379 N 
ATOM     11  C   UNL     1      -0.549  -9.083   2.615  0.00  0.00    -0.082 C 
ATOM     12  C   UNL     1      -0.578  -7.759   3.385  0.00  0.00    -0.010 C 
ATOM     13  H   UNL     1      -2.545  -9.405   2.875  0.00  0.00    -0.086 HD
ATOM     14  H   UNL     1      -1.883 -10.286   1.652  0.00  0.00    -0.086 HD
ENDROOT
BRANCH   1  19
ATOM     15  C   UNL     1       0.179  -7.143  -5.010  0.00  0.00    +0.044 C 
ATOM     16  C   UNL     1       0.146  -6.389  -3.705  0.00  0.00    -0.050 A 
ATOM     17  C   UNL     1       0.744  -6.932  -2.581  0.00  0.00    +0.004 A 
ATOM     18  C   UNL     1       0.718  -6.247  -1.384  0.00  0.00    +0.013 A 
ATOM     19  C   UNL     1       0.086  -5.004  -1.308  0.00  0.00    +0.037 A 
ATOM     20  C   UNL     1      -0.514  -4.463  -2.445  0.00  0.00    +0.013 A 
ATOM     21  C   UNL     1      -0.476  -5.155  -3.638  0.00  0.00    +0.004 A 
ENDBRANCH   1  19
BRANCH   5  22
ATOM     22  C   UNL     1      -2.548  -4.760   3.143  0.00  0.00    +0.218 C 
ATOM     23  O   UNL     1      -2.905  -4.155   2.155  0.00  0.00    -0.275 OA
ATOM     24  N   UNL     1      -3.401  -4.935   4.172  0.00  0.00    -0.312 N 
ATOM     25  H   UNL     1      -3.115  -5.419   4.963  0.00  0.00    +0.149 HD
BRANCH  24  26
ATOM     26  C   UNL     1      -4.760  -4.394   4.096  0.00  0.00    +0.070 C 
ATOM     27  C   UNL     1      -5.665  -5.390   3.367  0.00  0.00    +0.028 C 
BRANCH  26  28
ATOM     28  C   UNL     1      -5.296  -4.159   5.510  0.00  0.00    +0.026 C 
BRANCH  28  29
ATOM     29  C   UNL     1      -4.465  -3.071   6.195  0.00  0.00    +0.037 C 
BRANCH  29  30
ATOM     30  C   UNL     1      -4.993  -2.839   7.587  0.00  0.00    -0.047 A 
ATOM     31  C   UNL     1      -5.985  -1.901   7.802  0.00  0.00    +0.007 A 
ATOM     32  C   UNL     1      -6.470  -1.686   9.078  0.00  0.00    +0.046 A 
ATOM     33  C   UNL     1      -5.960  -2.413  10.144  0.00  0.00    +0.120 A 
ATOM     34  C   UNL     1      -4.965  -3.355   9.925  0.00  0.00    +0.046 A 
ATOM     35  C   UNL     1      -4.487  -3.569   8.647  0.00  0.00    +0.007 A 
BRANCH  33  36
ATOM     36  O   UNL     1      -6.435  -2.203  11.400  0.00  0.00    -0.495 OA
ATOM     37  C   UNL     1      -5.864  -2.988  12.448  0.00  0.00    +0.277 C 
ENDBRANCH  33  36
ENDBRANCH  29  30
ENDBRANCH  28  29
ENDBRANCH  26  28
ENDBRANCH  24  26
ENDBRANCH   5  22
TORSDOF 7
