REMARK  Name = ZINC12679297
REMARK  8 active torsions:
REMARK  status: ('A' for Active; 'I' for Inactive)
REMARK    1  A    between atoms: C_1  and  C_2
REMARK    2  A    between atoms: C_2  and  C_3
REMARK    3  A    between atoms: C_3  and  C_4
REMARK    4  A    between atoms: C_4  and  C_5
REMARK    5  A    between atoms: C_5  and  N_6
REMARK    6  A    between atoms: C_15  and  C_17
REMARK    7  A    between atoms: N_19  and  C_20
REMARK    8  A    between atoms: C_21  and  C_29
REMARK                            x       y       z     vdW  Elec       q    Type
REMARK                         _______ _______ _______ _____ _____    ______ ____
ROOT
ATOM      1  C   UNL     1       1.634   4.436   0.010  0.00  0.00    +0.269 C 
ATOM      2  O   UNL     1       0.419   4.400   0.022  0.00  0.00    -0.268 OA
ATOM      3  N   UNL     1       2.342   3.288  -0.003  0.00  0.00    -0.274 N 
ATOM      4  H   UNL     1       3.311   3.316  -0.013  0.00  0.00    +0.156 HD
ENDROOT
BRANCH   1  14
ATOM      5  N   UNL     1       4.327   6.864  -0.004  0.00  0.00    -0.228 N 
ATOM      6  C   UNL     1       3.772   8.093   0.007  0.00  0.00    +0.275 A 
ATOM      7  O   UNL     1       4.470   9.091   0.005  0.00  0.00    -0.266 OA
ATOM      8  C   UNL     1       2.307   8.200   0.022  0.00  0.00    +0.050 A 
ATOM      9  C   UNL     1       1.638   9.420   0.034  0.00  0.00    +0.014 A 
ATOM     10  C   UNL     1       0.260   9.435   0.047  0.00  0.00    +0.001 A 
ATOM     11  C   UNL     1      -0.463   8.249   0.048  0.00  0.00    +0.001 A 
ATOM     12  C   UNL     1       0.181   7.030   0.036  0.00  0.00    +0.011 A 
ATOM     13  C   UNL     1       1.571   6.992   0.018  0.00  0.00    +0.020 A 
ATOM     14  C   UNL     1       2.335   5.734   0.010  0.00  0.00    +0.154 A 
ATOM     15  N   UNL     1       3.645   5.781  -0.003  0.00  0.00    -0.163 NA
BRANCH   5  16
ATOM     16  C   UNL     1       5.788   6.763  -0.020  0.00  0.00    +0.147 C 
BRANCH  16  17
ATOM     17  C   UNL     1       6.312   6.720   1.417  0.00  0.00    +0.023 C 
BRANCH  17  18
ATOM     18  C   UNL     1       7.838   6.615   1.401  0.00  0.00    +0.002 C 
BRANCH  18  20
ATOM     19  C   UNL     1       9.888   6.467   2.822  0.00  0.00    +0.004 C 
ATOM     20  C   UNL     1       8.361   6.572   2.838  0.00  0.00    -0.003 C 
ENDBRANCH  18  20
ENDBRANCH  17  18
ENDBRANCH  16  17
ENDBRANCH   5  16
ENDBRANCH   1  14
BRANCH   3  21
ATOM     21  C   UNL     1       1.684   2.069  -0.003  0.00  0.00    +0.085 A 
ATOM     22  C   UNL     1       2.232   0.794  -0.015  0.00  0.00    +0.068 A 
ATOM     23  C   UNL     1       1.312  -0.332  -0.012  0.00  0.00    -0.023 A 
ATOM     24  C   UNL     1       0.002  -0.004   0.002  0.00  0.00    -0.004 A 
ATOM     25  S   UNL     1      -0.022   1.766   0.012  0.00  0.00    -0.077 S 
ATOM     26  C   UNL     1      -1.164  -0.944   0.007  0.00  0.00    +0.043 C 
ATOM     27  C   UNL     1      -0.660  -2.341  -0.384  0.00  0.00    +0.005 C 
ATOM     28  C   UNL     1       0.590  -2.663   0.440  0.00  0.00    +0.005 C 
ATOM     29  C   UNL     1       1.757  -1.789  -0.024  0.00  0.00    +0.037 C 
BRANCH  22  30
ATOM     30  C   UNL     1       3.683   0.590  -0.031  0.00  0.00    +0.244 C 
ATOM     31  O   UNL     1       4.275   0.511  -1.091  0.00  0.00    -0.270 OA
ATOM     32  N   UNL     1       4.362   0.489   1.129  0.00  0.00    -0.325 N 
ATOM     33  H   UNL     1       3.890   0.552   1.974  0.00  0.00    +0.145 HD
ATOM     34  H   UNL     1       5.323   0.354   1.119  0.00  0.00    +0.145 HD
ENDBRANCH  22  30
ENDBRANCH   3  21
TORSDOF 7
