REMARK  Name = ZINC22289434
REMARK  5 active torsions:
REMARK  status: ('A' for Active; 'I' for Inactive)
REMARK    1  A    between atoms: C_2  and  C_15
REMARK    2  A    between atoms: C_4  and  C_11
REMARK    3  A    between atoms: C_6  and  C_7
REMARK    4  A    between atoms: C_20  and  C_23
REMARK    5  A    between atoms: C_23  and  N_24
REMARK                            x       y       z     vdW  Elec       q    Type
REMARK                         _______ _______ _______ _____ _____    ______ ____
ROOT
ATOM      1  C   UNL     1       1.172   3.564   0.009  0.00  0.00    +0.250 C 
ATOM      2  O   UNL     1       0.114   4.163   0.022  0.00  0.00    -0.270 OA
ATOM      3  N   UNL     1       2.334   4.248   0.002  0.00  0.00    -0.261 N 
ATOM      4  C   UNL     1       2.322   5.637   0.009  0.00  0.00    +0.165 A 
ATOM      5  N   UNL     1       3.346   6.463  -0.002  0.00  0.00    -0.231 NA
ATOM      6  C   UNL     1       3.167   7.771   0.007  0.00  0.00    +0.034 A 
ATOM      7  C   UNL     1       1.887   8.218   0.028  0.00  0.00    +0.070 A 
ATOM      8  S   UNL     1       0.995   6.672   0.026  0.00  0.00    -0.060 S 
ATOM      9  H   UNL     1       3.178   3.770  -0.008  0.00  0.00    +0.157 HD
ENDROOT
BRANCH   1  11
ATOM     10  C   UNL     1      -0.017   1.375   0.010  0.00  0.00    +0.025 A 
ATOM     11  C   UNL     1       1.185   2.087   0.002  0.00  0.00    +0.038 A 
ATOM     12  C   UNL     1       2.397   1.396  -0.013  0.00  0.00    +0.025 A 
ATOM     13  C   UNL     1       2.402   0.016  -0.021  0.00  0.00    +0.056 A 
ATOM     14  C   UNL     1       1.208  -0.683  -0.013  0.00  0.00    +0.024 A 
ATOM     15  C   UNL     1       0.002  -0.004   0.002  0.00  0.00    +0.056 A 
BRANCH  15  16
ATOM     16  C   UNL     1      -1.294  -0.774   0.011  0.00  0.00    +0.417 C 
ATOM     17  F   UNL     1      -2.368   0.122   0.026  0.00  0.00    -0.166 F 
ATOM     18  F   UNL     1      -1.369  -1.573  -1.135  0.00  0.00    -0.166 F 
ATOM     19  F   UNL     1      -1.347  -1.585   1.149  0.00  0.00    -0.166 F 
ENDBRANCH  15  16
BRANCH  13  20
ATOM     20  C   UNL     1       3.710  -0.731  -0.038  0.00  0.00    +0.417 C 
ATOM     21  F   UNL     1       4.770   0.183  -0.043  0.00  0.00    -0.166 F 
ATOM     22  F   UNL     1       3.800  -1.541   1.099  0.00  0.00    -0.166 F 
ATOM     23  F   UNL     1       3.777  -1.529  -1.185  0.00  0.00    -0.166 F 
ENDBRANCH  13  20
ENDBRANCH   1  11
BRANCH   6  24
ATOM     24  C   UNL     1       4.333   8.725  -0.005  0.00  0.00    -0.022 C 
BRANCH  24  25
ATOM     25  N   UNL     1       4.809   8.935   1.370  0.00  0.00    +0.383 N 
ATOM     26  C   UNL     1       5.334   7.672   1.902  0.00  0.00    -0.078 C 
ATOM     27  C   UNL     1       5.756   7.865   3.360  0.00  0.00    -0.019 C 
ATOM     28  C   UNL     1       6.841   8.943   3.434  0.00  0.00    -0.004 C 
ATOM     29  C   UNL     1       6.307  10.234   2.808  0.00  0.00    -0.019 C 
ATOM     30  C   UNL     1       5.865   9.954   1.370  0.00  0.00    -0.078 C 
ATOM     31  H   UNL     1       4.041   9.247   1.946  0.00  0.00    -0.081 HD
ENDBRANCH  24  25
ENDBRANCH   6  24
TORSDOF 5
