REMARK  Name = ZINC46841130
REMARK  7 active torsions:
REMARK  status: ('A' for Active; 'I' for Inactive)
REMARK    1  A    between atoms: C_1  and  C_2
REMARK    2  A    between atoms: C_3  and  C_12
REMARK    3  A    between atoms: C_12  and  C_13
REMARK    4  A    between atoms: N_15  and  C_16
REMARK    5  A    between atoms: C_16  and  C_17
REMARK    6  A    between atoms: C_25  and  C_32
REMARK    7  A    between atoms: C_28  and  C_31
REMARK                            x       y       z     vdW  Elec       q    Type
REMARK                         _______ _______ _______ _____ _____    ______ ____
ROOT
ATOM      1  C   UNL     1       1.413  -0.074  -3.000  0.00  0.00    +0.218 C 
ATOM      2  O   UNL     1       2.342  -0.331  -2.265  0.00  0.00    -0.275 OA
ATOM      3  N   UNL     1       1.646   0.352  -4.257  0.00  0.00    -0.311 N 
ATOM      4  H   UNL     1       0.902   0.557  -4.845  0.00  0.00    +0.149 HD
ENDROOT
BRANCH   1   5
ATOM      5  C   UNL     1      -0.003  -0.230  -2.507  0.00  0.00    +0.133 C 
BRANCH   5   8
ATOM      6  C   UNL     1       0.034   1.557   0.031  0.00  0.00    +0.063 C 
ATOM      7  C   UNL     1       0.028   0.050   0.023  0.00  0.00    +0.018 A 
ATOM      8  C   UNL     1       0.012  -0.715  -1.081  0.00  0.00    -0.011 A 
ATOM      9  C   UNL     1       0.013  -2.110  -0.634  0.00  0.00    +0.004 A 
ATOM     10  C   UNL     1       0.001  -3.340  -1.295  0.00  0.00    +0.010 A 
ATOM     11  C   UNL     1       0.005  -4.499  -0.571  0.00  0.00    +0.001 A 
ATOM     12  C   UNL     1       0.021  -4.464   0.816  0.00  0.00    +0.002 A 
ATOM     13  C   UNL     1       0.034  -3.261   1.488  0.00  0.00    +0.026 A 
ATOM     14  C   UNL     1       0.029  -2.069   0.771  0.00  0.00    +0.047 A 
ATOM     15  N   UNL     1       0.043  -0.742   1.139  0.00  0.00    -0.358 N 
ATOM     16  H   UNL     1       0.060  -0.417   2.052  0.00  0.00    +0.166 HD
ENDBRANCH   5   8
ENDBRANCH   1   5
BRANCH   3  17
ATOM     17  C   UNL     1       3.022   0.503  -4.736  0.00  0.00    +0.141 C 
BRANCH  17  18
ATOM     18  C   UNL     1       3.007   0.988  -6.163  0.00  0.00    -0.014 A 
ATOM     19  C   UNL     1       2.985   0.079  -7.213  0.00  0.00    +0.010 A 
ATOM     20  C   UNL     1       2.972   0.566  -8.507  0.00  0.00    +0.042 A 
ATOM     21  C   UNL     1       2.981   1.942  -8.713  0.00  0.00    +0.099 A 
ATOM     22  N   UNL     1       3.002   2.777  -7.685  0.00  0.00    -0.349 N 
ATOM     23  C   UNL     1       3.009   2.341  -6.439  0.00  0.00    +0.089 A 
ATOM     24  N   UNL     1       2.968   2.445 -10.008  0.00  0.00    -0.312 N 
ATOM     25  C   UNL     1       2.849   3.890 -10.259  0.00  0.00    +0.137 C 
ATOM     26  C   UNL     1       3.964   4.306 -11.225  0.00  0.00    +0.133 C 
ATOM     27  O   UNL     1       3.931   3.458 -12.375  0.00  0.00    -0.371 OA
ATOM     28  C   UNL     1       4.177   2.078 -12.092  0.00  0.00    +0.133 C 
ATOM     29  C   UNL     1       3.079   1.548 -11.170  0.00  0.00    +0.137 C 
ATOM     30  C   UNL     1       5.535   1.932 -11.402  0.00  0.00    +0.039 C 
ATOM     31  C   UNL     1       3.752   5.759 -11.655  0.00  0.00    +0.039 C 
ATOM     32  H   UNL     1       3.008   3.732  -7.852  0.00  0.00    +0.167 HD
ENDBRANCH  17  18
ENDBRANCH   3  17
TORSDOF 4
