REMARK  Name = ZINC32651601
REMARK  7 active torsions:
REMARK  status: ('A' for Active; 'I' for Inactive)
REMARK    1  A    between atoms: C_1  and  C_2
REMARK    2  A    between atoms: N_7  and  C_25
REMARK    3  A    between atoms: N_10  and  C_11
REMARK    4  A    between atoms: C_11  and  C_13
REMARK    5  A    between atoms: C_11  and  C_14
REMARK    6  A    between atoms: C_17  and  N_20
REMARK    7  A    between atoms: N_26  and  C_28
REMARK                            x       y       z     vdW  Elec       q    Type
REMARK                         _______ _______ _______ _____ _____    ______ ____
ROOT
ATOM      1  C   UNL     1      -0.816  -5.215  -0.019  0.00  0.00    +0.070 C 
ATOM      2  C   UNL     1       0.213  -4.115  -0.023  0.00  0.00    +0.086 A 
ATOM      3  C   UNL     1      -0.062  -2.735  -0.012  0.00  0.00    +0.120 A 
ATOM      4  C   UNL     1       1.171  -2.071  -0.020  0.00  0.00    +0.152 A 
ATOM      5  C   UNL     1       1.184  -0.659  -0.013  0.00  0.00    +0.281 A 
ATOM      6  O   UNL     1       2.237  -0.045  -0.019  0.00  0.00    -0.265 OA
ATOM      7  N   UNL     1       0.002  -0.004   0.002  0.00  0.00    -0.282 N 
ATOM      8  C   UNL     1      -1.173  -0.698   0.015  0.00  0.00    +0.199 A 
ATOM      9  N   UNL     1      -1.206  -2.008   0.003  0.00  0.00    -0.212 NA
ATOM     10  N   UNL     1      -2.357  -0.002   0.036  0.00  0.00    -0.308 N 
ATOM     11  C   UNL     1      -0.018   1.461   0.010  0.00  0.00    +0.155 C 
ATOM     12  N   UNL     1       2.143  -3.036  -0.035  0.00  0.00    -0.260 N 
ATOM     13  N   UNL     1       1.508  -4.285  -0.036  0.00  0.00    -0.174 NA
ATOM     14  C   UNL     1       3.589  -2.803  -0.048  0.00  0.00    +0.173 C 
ATOM     15  H   UNL     1      -2.349   1.098   0.042  0.00  0.00    +0.149 HD
ENDROOT
BRANCH  10  16
ATOM     16  C   UNL     1      -3.632  -0.724   0.050  0.00  0.00    +0.100 C 
ATOM     17  C   UNL     1      -3.993  -1.093   1.490  0.00  0.00    +0.033 C 
BRANCH  16  18
ATOM     18  C   UNL     1      -4.712   0.151  -0.530  0.00  0.00    -0.027 A 
ATOM     19  C   UNL     1      -4.747   1.499  -0.224  0.00  0.00    +0.007 A 
ATOM     20  C   UNL     1      -5.732   2.305  -0.759  0.00  0.00    +0.026 A 
ATOM     21  C   UNL     1      -6.696   1.759  -1.596  0.00  0.00    +0.046 A 
ATOM     22  C   UNL     1      -6.662   0.404  -1.897  0.00  0.00    +0.026 A 
ATOM     23  C   UNL     1      -5.670  -0.396  -1.363  0.00  0.00    +0.007 A 
BRANCH  21  24
ATOM     24  N   UNL     1      -7.701   2.573  -2.136  0.00  0.00    -0.323 N 
ATOM     25  C   UNL     1      -8.697   2.159  -2.973  0.00  0.00    +0.091 A 
ATOM     26  C   UNL     1      -9.466   3.226  -3.273  0.00  0.00    +0.019 A 
ATOM     27  C   UNL     1      -8.921   4.341  -2.606  0.00  0.00    +0.019 A 
ATOM     28  C   UNL     1      -7.843   3.914  -1.918  0.00  0.00    +0.091 A 
ENDBRANCH  21  24
ENDBRANCH  16  18
ENDBRANCH  10  16
TORSDOF 3
