REMARK  Name = ZINC39568848
REMARK  23 active torsions:
REMARK  status: ('A' for Active; 'I' for Inactive)
REMARK    1  A    between atoms: C_1  and  C_2
REMARK    2  A    between atoms: C_2  and  O_3
REMARK    3  A    between atoms: O_3  and  C_4
REMARK    4  A    between atoms: C_4  and  C_6
REMARK    5  A    between atoms: C_6  and  C_8
REMARK    6  A    between atoms: C_6  and  N_38
REMARK    7  A    between atoms: C_8  and  C_9
REMARK    8  A    between atoms: C_15  and  N_24
REMARK    9  A    between atoms: C_18  and  C_19
REMARK   10  A    between atoms: C_19  and  C_20
REMARK   11  A    between atoms: C_19  and  C_21
REMARK   12  A    between atoms: C_19  and  C_22
REMARK   13  A    between atoms: N_24  and  C_25
REMARK   14  A    between atoms: N_24  and  C_26
REMARK   15  A    between atoms: C_26  and  C_28
REMARK   16  A    between atoms: C_26  and  C_31
REMARK   17  A    between atoms: C_28  and  C_29
REMARK   18  A    between atoms: C_28  and  C_30
REMARK   19  A    between atoms: C_31  and  O_33
REMARK   20  A    between atoms: O_33  and  C_34
REMARK   21  A    between atoms: C_34  and  C_35
REMARK   22  A    between atoms: C_34  and  C_36
REMARK   23  A    between atoms: C_34  and  C_37
REMARK                            x       y       z     vdW  Elec       q    Type
REMARK                         _______ _______ _______ _____ _____    ______ ____
ROOT
ATOM      1  C   UNL     1       1.296  -3.264   3.336  0.00  0.00    -0.038 C 
ATOM      2  C   UNL     1       2.288  -2.506   3.818  0.00  0.00    +0.111 C 
ATOM      3  N   UNL     1       3.224  -3.233   4.457  0.00  0.00    -0.259 NA
ATOM      4  C   UNL     1       2.880  -4.468   4.610  0.00  0.00    +0.058 C 
ATOM      5  C   UNL     1       1.676  -4.677   3.690  0.00  0.00    +0.109 C 
ATOM      6  C   UNL     1       0.639  -5.395   4.508  0.00  0.00    +0.020 C 
ATOM      7  C   UNL     1       1.052  -6.234   5.488  0.00  0.00    +0.020 C 
ATOM      8  C   UNL     1       2.404  -6.420   5.818  0.00  0.00    +0.008 C 
ATOM      9  C   UNL     1       3.361  -5.531   5.387  0.00  0.00    -0.016 C 
ENDROOT
BRANCH   9  10
ATOM     10  C   UNL     1       4.820  -5.680   5.736  0.00  0.00    +0.010 C 
ATOM     11  C   UNL     1       5.015  -6.936   6.588  0.00  0.00    +0.020 C 
ATOM     12  C   UNL     1       5.642  -5.802   4.452  0.00  0.00    +0.020 C 
BRANCH  10  13
ATOM     13  C   UNL     1       5.276  -4.471   6.511  0.00  0.00    -0.024 C 
ATOM     14  C   UNL     1       5.750  -4.612   7.725  0.00  0.00    +0.005 C 
ENDBRANCH  10  13
ENDBRANCH   9  10
BRANCH   6  15
ATOM     15  N   UNL     1      -0.697  -5.204   4.267  0.00  0.00    -0.322 N 
ATOM     16  C   UNL     1      -1.225  -5.348   2.908  0.00  0.00    +0.130 C 
BRANCH  15  17
ATOM     17  C   UNL     1      -1.597  -4.855   5.369  0.00  0.00    +0.185 C 
BRANCH  17  18
ATOM     18  C   UNL     1      -2.137  -3.439   5.159  0.00  0.00    +0.014 C 
ATOM     19  C   UNL     1      -3.227  -3.150   6.193  0.00  0.00    +0.009 C 
ATOM     20  C   UNL     1      -0.998  -2.430   5.322  0.00  0.00    +0.009 C 
ENDBRANCH  17  18
BRANCH  17  21
ATOM     21  C   UNL     1      -2.746  -5.830   5.407  0.00  0.00    +0.329 C 
ATOM     22  O   UNL     1      -2.807  -6.724   4.597  0.00  0.00    -0.249 OA
BRANCH  21  23
ATOM     23  O   UNL     1      -3.702  -5.705   6.341  0.00  0.00    -0.458 OA
BRANCH  23  24
ATOM     24  C   UNL     1      -4.761  -6.664   6.318  0.00  0.00    +0.105 C 
ATOM     25  C   UNL     1      -4.182  -8.068   6.507  0.00  0.00    +0.055 C 
ATOM     26  C   UNL     1      -5.747  -6.362   7.448  0.00  0.00    +0.055 C 
ATOM     27  C   UNL     1      -5.487  -6.589   4.974  0.00  0.00    +0.055 C 
ENDBRANCH  23  24
ENDBRANCH  21  23
ENDBRANCH  17  21
ENDBRANCH  15  17
ENDBRANCH   6  15
BRANCH   1  28
ATOM     28  C   UNL     1       0.063  -2.803   2.602  0.00  0.00    +0.028 C 
BRANCH  28  29
ATOM     29  C   UNL     1       0.350  -2.758   1.100  0.00  0.00    +0.040 C 
BRANCH  29  30
ATOM     30  N   UNL     1       0.571  -4.122   0.603  0.00  0.00    +0.387 N 
ATOM     31  H   UNL     1       0.962  -4.082  -0.327  0.00  0.00    -0.089 HD
ATOM     32  H   UNL     1       1.211  -4.604   1.216  0.00  0.00    -0.089 HD
ATOM     33  H   UNL     1      -0.308  -4.617   0.577  0.00  0.00    -0.089 HD
ENDBRANCH  29  30
BRANCH  29  34
ATOM     34  C   UNL     1      -0.825  -2.146   0.382  0.00  0.00    +0.293 C 
ATOM     35  O   UNL     1      -1.630  -2.855  -0.173  0.00  0.00    -0.253 OA
BRANCH  34  36
ATOM     36  O   UNL     1      -0.977  -0.812   0.359  0.00  0.00    -0.466 OA
BRANCH  36  38
ATOM     37  C   UNL     1      -2.118   1.227  -0.258  0.00  0.00    +0.048 C 
ATOM     38  C   UNL     1      -2.113  -0.301  -0.340  0.00  0.00    +0.228 C 
ENDBRANCH  36  38
ENDBRANCH  34  36
ENDBRANCH  29  34
ENDBRANCH  28  29
ENDBRANCH   1  28
TORSDOF 14
