REMARK  Name = ZINC65387097
REMARK  7 active torsions:
REMARK  status: ('A' for Active; 'I' for Inactive)
REMARK    1  A    between atoms: C_1  and  C_2
REMARK    2  A    between atoms: C_4  and  C_26
REMARK    3  A    between atoms: C_8  and  C_12
REMARK    4  A    between atoms: C_12  and  C_13
REMARK    5  A    between atoms: C_13  and  N_14
REMARK    6  A    between atoms: C_15  and  C_17
REMARK    7  A    between atoms: C_17  and  N_18
REMARK                            x       y       z     vdW  Elec       q    Type
REMARK                         _______ _______ _______ _____ _____    ______ ____
ROOT
ATOM      1  C   UNL     1       6.011  -4.036  -1.015  0.00  0.00    +0.111 C 
ENDROOT
BRANCH   1   2
ATOM      2  N   UNL     1       7.183  -4.816  -0.608  0.00  0.00    -0.316 N 
ATOM      3  C   UNL     1       7.986  -5.363  -1.541  0.00  0.00    +0.196 C 
ATOM      4  O   UNL     1       7.739  -5.210  -2.719  0.00  0.00    -0.278 OA
ATOM      5  H   UNL     1       7.380  -4.939   0.334  0.00  0.00    +0.149 HD
BRANCH   3   6
ATOM      6  C   UNL     1       9.191  -6.166  -1.122  0.00  0.00    +0.019 C 
BRANCH   6   7
ATOM      7  N   UNL     1       9.896  -6.650  -2.316  0.00  0.00    +0.385 N 
ATOM      8  C   UNL     1       8.985  -7.522  -3.083  0.00  0.00    -0.078 C 
ATOM      9  C   UNL     1       9.432  -7.524  -4.523  0.00  0.00    -0.019 C 
ATOM     10  C   UNL     1      10.334  -8.733  -4.832  0.00  0.00    -0.002 C 
ATOM     11  C   UNL     1      11.327  -9.014  -3.686  0.00  0.00    -0.002 C 
ATOM     12  C   UNL     1      11.919  -7.750  -3.117  0.00  0.00    -0.019 C 
ATOM     13  C   UNL     1      11.069  -7.292  -1.914  0.00  0.00    -0.078 C 
ATOM     14  H   UNL     1      10.142  -5.857  -2.890  0.00  0.00    -0.081 HD
ENDBRANCH   6   7
ENDBRANCH   3   6
ENDBRANCH   1   2
BRANCH   1  15
ATOM     15  C   UNL     1       5.277  -3.531   0.228  0.00  0.00    +0.092 C 
BRANCH  15  22
ATOM     16  C   UNL     1      -0.019   1.526   0.010  0.00  0.00    +0.024 C 
ATOM     17  C   UNL     1       0.002  -0.004   0.002  0.00  0.00    +0.076 C 
ATOM     18  C   UNL     1       0.769  -0.528  -1.190  0.00  0.00    -0.045 C 
ATOM     19  C   UNL     1       1.868  -1.261  -0.953  0.00  0.00    +0.071 C 
ATOM     20  C   UNL     1       2.243  -1.498   0.457  0.00  0.00    +0.111 C 
ATOM     21  N   UNL     1       3.306  -2.207   0.754  0.00  0.00    -0.227 NA
ATOM     22  C   UNL     1       4.072  -2.729  -0.191  0.00  0.00    +0.125 C 
ATOM     23  N   UNL     1       3.837  -2.585  -1.473  0.00  0.00    -0.161 NA
ATOM     24  C   UNL     1       2.796  -1.891  -1.945  0.00  0.00    +0.271 C 
ATOM     25  O   UNL     1       2.607  -1.777  -3.144  0.00  0.00    -0.268 OA
ATOM     26  S   UNL     1       0.997  -0.657   1.404  0.00  0.00    -0.098 S 
ATOM     27  C   UNL     1       0.315  -0.239  -2.598  0.00  0.00    +0.041 C 
ENDBRANCH  15  22
ENDBRANCH   1  15
TORSDOF 5
