REMARK  Name = ZINC62105809
REMARK  12 active torsions:
REMARK  status: ('A' for Active; 'I' for Inactive)
REMARK    1  A    between atoms: C_1  and  C_2
REMARK    2  A    between atoms: C_2  and  O_3
REMARK    3  A    between atoms: O_3  and  C_4
REMARK    4  A    between atoms: C_4  and  C_5
REMARK    5  A    between atoms: N_10  and  S_12
REMARK    6  A    between atoms: S_12  and  C_15
REMARK    7  A    between atoms: C_15  and  C_16
REMARK    8  A    between atoms: C_16  and  C_17
REMARK    9  A    between atoms: C_20  and  C_23
REMARK   10  A    between atoms: C_23  and  C_24
REMARK   11  A    between atoms: C_23  and  C_25
REMARK   12  A    between atoms: C_23  and  C_26
REMARK                            x       y       z     vdW  Elec       q    Type
REMARK                         _______ _______ _______ _____ _____    ______ ____
ROOT
ATOM      1  S   UNL     1       3.636  -5.049  -4.004  0.00  0.00    +0.032 S 
ATOM      2  O   UNL     1       3.647  -5.802  -2.799  0.00  0.00    -0.158 OA
ATOM      3  O   UNL     1       3.569  -5.700  -5.265  0.00  0.00    -0.158 OA
ENDROOT
BRANCH   1   8
ATOM      4  C   UNL     1       1.478  -2.265  -2.569  0.00  0.00    +0.030 C 
ATOM      5  C   UNL     1       0.652  -1.814  -3.776  0.00  0.00    +0.008 C 
ATOM      6  C   UNL     1       1.399  -2.162  -5.066  0.00  0.00    +0.017 C 
ATOM      7  C   UNL     1       1.587  -3.680  -5.149  0.00  0.00    +0.109 C 
ATOM      8  N   UNL     1       2.252  -4.142  -3.923  0.00  0.00    -0.181 NA
ATOM      9  C   UNL     1       1.667  -3.785  -2.623  0.00  0.00    +0.114 C 
BRANCH   4  10
ATOM     10  C   UNL     1       0.746  -1.888  -1.280  0.00  0.00    +0.164 C 
BRANCH  10  11
ATOM     11  O   UNL     1       0.671  -0.465  -1.174  0.00  0.00    -0.380 OA
BRANCH  11  13
ATOM     12  C   UNL     1      -0.019   1.526   0.010  0.00  0.00    +0.034 C 
ATOM     13  C   UNL     1       0.002  -0.004   0.002  0.00  0.00    +0.156 C 
ENDBRANCH  11  13
ENDBRANCH  10  11
ENDBRANCH   4  10
ENDBRANCH   1   8
BRANCH   1  14
ATOM     14  C   UNL     1       4.987  -3.839  -3.997  0.00  0.00    +0.190 C 
BRANCH  14  15
ATOM     15  C   UNL     1       6.328  -4.572  -4.069  0.00  0.00    +0.059 C 
BRANCH  15  16
ATOM     16  C   UNL     1       7.451  -3.567  -4.063  0.00  0.00    -0.046 A 
ATOM     17  C   UNL     1       7.924  -3.052  -5.256  0.00  0.00    +0.004 A 
ATOM     18  C   UNL     1       8.954  -2.130  -5.250  0.00  0.00    +0.004 A 
ATOM     19  C   UNL     1       9.510  -1.722  -4.052  0.00  0.00    -0.042 A 
ATOM     20  C   UNL     1       9.036  -2.236  -2.860  0.00  0.00    +0.004 A 
ATOM     21  C   UNL     1       8.004  -3.155  -2.865  0.00  0.00    +0.004 A 
BRANCH  19  22
ATOM     22  C   UNL     1      10.634  -0.718  -4.046  0.00  0.00    -0.013 C 
ATOM     23  C   UNL     1      10.158   0.584  -4.694  0.00  0.00    +0.015 C 
ATOM     24  C   UNL     1      11.063  -0.442  -2.604  0.00  0.00    +0.015 C 
ATOM     25  C   UNL     1      11.821  -1.275  -4.834  0.00  0.00    +0.015 C 
ENDBRANCH  19  22
ENDBRANCH  15  16
ENDBRANCH  14  15
ENDBRANCH   1  14
TORSDOF 8
