REMARK  Name = ZINC40342215
REMARK  7 active torsions:
REMARK  status: ('A' for Active; 'I' for Inactive)
REMARK    1  A    between atoms: C_1  and  C_2
REMARK    2  A    between atoms: C_2  and  C_3
REMARK    3  A    between atoms: C_2  and  C_4
REMARK    4  A    between atoms: C_7  and  C_10
REMARK    5  A    between atoms: C_13  and  C_28
REMARK    6  A    between atoms: N_20  and  C_21
REMARK    7  A    between atoms: C_21  and  C_22
REMARK                            x       y       z     vdW  Elec       q    Type
REMARK                         _______ _______ _______ _____ _____    ______ ____
ROOT
ATOM      1  C   UNL     1       2.797  -1.919   4.683  0.00  0.00    +0.141 C 
ATOM      2  C   UNL     1       3.210  -3.352   4.489  0.00  0.00    +0.035 A 
ATOM      3  C   UNL     1       3.952  -4.274   3.744  0.00  0.00    +0.099 A 
ATOM      4  N   UNL     1       3.758  -5.463   4.281  0.00  0.00    -0.173 NA
ATOM      5  N   UNL     1       2.967  -5.382   5.291  0.00  0.00    -0.272 N 
ATOM      6  H   UNL     1       2.684  -6.131   5.838  0.00  0.00    +0.189 HD
ATOM      7  C   UNL     1       2.584  -4.084   5.479  0.00  0.00    +0.126 A 
ATOM      8  C   UNL     1       1.784  -3.169   6.301  0.00  0.00    +0.266 C 
ATOM      9  O   UNL     1       1.111  -3.503   7.257  0.00  0.00    -0.268 OA
ATOM     10  N   UNL     1       1.902  -1.907   5.848  0.00  0.00    -0.283 N 
ENDROOT
BRANCH   3  11
ATOM     11  C   UNL     1       4.802  -3.971   2.565  0.00  0.00    +0.003 A 
ATOM     12  C   UNL     1       4.428  -2.969   1.673  0.00  0.00    +0.011 A 
ATOM     13  C   UNL     1       5.221  -2.691   0.578  0.00  0.00    +0.020 A 
ATOM     14  C   UNL     1       6.387  -3.406   0.366  0.00  0.00    +0.041 A 
ATOM     15  C   UNL     1       6.763  -4.404   1.249  0.00  0.00    +0.020 A 
ATOM     16  C   UNL     1       5.979  -4.685   2.350  0.00  0.00    +0.011 A 
ATOM     17 CL   UNL     1       7.380  -3.053  -1.014  0.00  0.00    -0.084 Cl
ENDBRANCH   3  11
BRANCH   1  21
ATOM     18  C   UNL     1       0.731  -0.503   1.223  0.00  0.00    -0.045 A 
ATOM     19  C   UNL     1       2.050  -0.148   1.434  0.00  0.00    +0.004 A 
ATOM     20  C   UNL     1       2.719  -0.606   2.554  0.00  0.00    +0.006 A 
ATOM     21  C   UNL     1       2.068  -1.419   3.463  0.00  0.00    -0.022 A 
ATOM     22  C   UNL     1       0.749  -1.773   3.252  0.00  0.00    +0.006 A 
ATOM     23  C   UNL     1       0.079  -1.312   2.135  0.00  0.00    +0.004 A 
BRANCH  18  25
ATOM     24  C   UNL     1      -0.019   1.526   0.010  0.00  0.00    +0.012 C 
ATOM     25  C   UNL     1       0.002  -0.004   0.002  0.00  0.00    +0.013 C 
ATOM     26  C   UNL     1       0.718  -0.497  -1.257  0.00  0.00    +0.012 C 
ENDBRANCH  18  25
ENDBRANCH   1  21
BRANCH  10  27
ATOM     27  C   UNL     1       1.249  -0.725   6.416  0.00  0.00    +0.140 C 
BRANCH  27  28
ATOM     28  C   UNL     1      -0.111  -0.521   5.745  0.00  0.00    +0.136 C 
ATOM     29  C   UNL     1      -0.753   0.789   6.250  0.00  0.00    +0.035 C 
ATOM     30  C   UNL     1      -2.249   0.394   6.382  0.00  0.00    +0.031 C 
ATOM     31  C   UNL     1      -2.124  -1.089   6.814  0.00  0.00    +0.160 C 
ATOM     32  O   UNL     1      -0.990  -1.597   6.091  0.00  0.00    -0.375 OA
ENDBRANCH  27  28
ENDBRANCH  10  27
TORSDOF 5
