REMARK  Name = ZINC54640671
REMARK  4 active torsions:
REMARK  status: ('A' for Active; 'I' for Inactive)
REMARK    1  A    between atoms: C_7  and  C_9
REMARK    2  A    between atoms: C_9  and  C_16
REMARK    3  A    between atoms: C_16  and  N_17
REMARK    4  A    between atoms: N_17  and  C_18
REMARK                            x       y       z     vdW  Elec       q    Type
REMARK                         _______ _______ _______ _____ _____    ______ ____
ROOT
ATOM      1  C   UNL     1      -1.401  -0.538  -0.304  0.00  0.00    -0.019 C 
ATOM      2  C   UNL     1      -2.348  -0.142   0.828  0.00  0.00    +0.029 C 
ATOM      3  C   UNL     1      -3.801  -0.006   0.292  0.00  0.00    +0.166 C 
ATOM      4  S   UNL     1      -3.455   0.797  -1.334  0.00  0.00    -0.031 S 
ATOM      5  O   UNL     1      -3.257   2.190  -1.134  0.00  0.00    -0.174 OA
ATOM      6  O   UNL     1      -4.411   0.353  -2.287  0.00  0.00    -0.174 OA
ATOM      7  C   UNL     1      -1.833  -0.001  -1.683  0.00  0.00    +0.171 C 
ENDROOT
BRANCH   1  14
ATOM      8  C   UNL     1      -0.028   1.535   0.025  0.00  0.00    +0.028 C 
ATOM      9  C   UNL     1       1.419   2.085   0.026  0.00  0.00    +0.166 C 
ATOM     10  S   UNL     1       2.357   0.754  -0.829  0.00  0.00    -0.031 S 
ATOM     11  O   UNL     1       2.789   1.234  -2.095  0.00  0.00    -0.174 OA
ATOM     12  O   UNL     1       3.309   0.207   0.073  0.00  0.00    -0.174 OA
ATOM     13  C   UNL     1       0.999  -0.464  -1.080  0.00  0.00    +0.170 C 
ATOM     14  C   UNL     1      -0.004  -0.002   0.015  0.00  0.00    +0.017 C 
ENDBRANCH   1  14
BRANCH   1  15
ATOM     15  C   UNL     1      -1.335  -2.065  -0.372  0.00  0.00    -0.073 C 
BRANCH  15  16
ATOM     16  N   UNL     1      -0.759  -2.587   0.875  0.00  0.00    +0.381 N 
ATOM     17  H   UNL     1       0.138  -2.153   1.037  0.00  0.00    -0.086 HD
ATOM     18  H   UNL     1      -1.377  -2.378   1.644  0.00  0.00    -0.086 HD
BRANCH  16  19
ATOM     19  C   UNL     1      -0.587  -4.041   0.764  0.00  0.00    -0.072 C 
ATOM     20  C   UNL     1      -1.397  -4.922   1.718  0.00  0.00    -0.017 C 
ATOM     21  C   UNL     1       0.111  -4.760   1.921  0.00  0.00    -0.017 C 
ENDBRANCH  16  19
ENDBRANCH  15  16
ENDBRANCH   1  15
TORSDOF 4
