REMARK  Name = ZINC58994313
REMARK  8 active torsions:
REMARK  status: ('A' for Active; 'I' for Inactive)
REMARK    1  A    between atoms: C_1  and  C_2
REMARK    2  A    between atoms: C_2  and  C_3
REMARK    3  A    between atoms: C_3  and  C_4
REMARK    4  A    between atoms: C_4  and  N_5
REMARK    5  A    between atoms: N_5  and  C_6
REMARK    6  A    between atoms: C_7  and  C_9
REMARK    7  A    between atoms: C_15  and  C_17
REMARK    8  A    between atoms: C_18  and  C_19
REMARK                            x       y       z     vdW  Elec       q    Type
REMARK                         _______ _______ _______ _____ _____    ______ ____
ROOT
ATOM      1  C   UNL     1       1.420  -3.221  -4.833  0.00  0.00    +0.078 C 
ATOM      2  C   UNL     1       2.101  -4.560  -4.543  0.00  0.00    +0.032 C 
ATOM      3  C   UNL     1       2.849  -5.030  -5.795  0.00  0.00    +0.109 C 
ATOM      4  N   UNL     1       1.908  -5.063  -6.922  0.00  0.00    -0.298 N 
ATOM      5  C   UNL     1       1.133  -3.854  -7.232  0.00  0.00    +0.109 C 
ATOM      6  C   UNL     1       0.405  -3.397  -5.964  0.00  0.00    +0.032 C 
ATOM      7  C   UNL     1       1.758  -6.182  -7.660  0.00  0.00    +0.239 C 
ATOM      8  O   UNL     1       2.472  -7.146  -7.454  0.00  0.00    -0.271 OA
ENDROOT
BRANCH   1  11
ATOM      9  N   UNL     1       1.411  -2.512  -2.463  0.00  0.00    -0.304 N 
ATOM     10  C   UNL     1       2.859  -2.735  -2.440  0.00  0.00    +0.132 C 
ATOM     11  C   UNL     1       0.712  -2.739  -3.593  0.00  0.00    +0.219 C 
ATOM     12  O   UNL     1      -0.486  -2.554  -3.612  0.00  0.00    -0.275 OA
BRANCH   9  13
ATOM     13  C   UNL     1       0.723  -2.043  -1.257  0.00  0.00    +0.107 C 
BRANCH  13  14
ATOM     14  C   UNL     1       0.700  -0.514  -1.246  0.00  0.00    +0.019 C 
BRANCH  14  16
ATOM     15  C   UNL     1      -0.042   1.506   0.025  0.00  0.00    +0.004 C 
ATOM     16  C   UNL     1      -0.019  -0.024   0.013  0.00  0.00    -0.002 C 
ENDBRANCH  14  16
ENDBRANCH  13  14
ENDBRANCH   9  13
ENDBRANCH   1  11
BRANCH   7  17
ATOM     17  C   UNL     1       0.739  -6.237  -8.707  0.00  0.00    +0.068 C 
ATOM     18  C   UNL     1       0.518  -7.389  -9.374  0.00  0.00    +0.013 C 
BRANCH  18  19
ATOM     19  C   UNL     1      -0.506  -7.444 -10.427  0.00  0.00    -0.021 A 
ATOM     20  C   UNL     1      -1.250  -6.302 -10.744  0.00  0.00    +0.012 A 
ATOM     21  C   UNL     1      -2.209  -6.358 -11.729  0.00  0.00    +0.050 A 
ATOM     22  C   UNL     1      -2.443  -7.546 -12.414  0.00  0.00    +0.162 A 
ATOM     23  C   UNL     1      -1.705  -8.686 -12.106  0.00  0.00    +0.163 A 
ATOM     24  C   UNL     1      -0.737  -8.637 -11.120  0.00  0.00    +0.057 A 
ATOM     25  O   UNL     1      -1.917  -9.854 -12.773  0.00  0.00    -0.485 OA
ATOM     26  C   UNL     1      -3.145  -9.965 -13.501  0.00  0.00    +0.270 C 
ATOM     27  C   UNL     1      -3.347  -8.672 -14.302  0.00  0.00    +0.270 C 
ATOM     28  O   UNL     1      -3.399  -7.577 -13.381  0.00  0.00    -0.485 OA
ENDBRANCH  18  19
ENDBRANCH   7  17
TORSDOF 6
