REMARK  Name = ZINC36558681
REMARK  21 active torsions:
REMARK  status: ('A' for Active; 'I' for Inactive)
REMARK    1  A    between atoms: C_1  and  C_2
REMARK    2  A    between atoms: C_2  and  C_3
REMARK    3  A    between atoms: C_3  and  C_5
REMARK    4  A    between atoms: C_3  and  C_11
REMARK    5  A    between atoms: N_13  and  C_14
REMARK    6  A    between atoms: N_13  and  C_21
REMARK    7  A    between atoms: C_14  and  C_15
REMARK    8  A    between atoms: C_18  and  C_20
REMARK    9  A    between atoms: C_21  and  C_23
REMARK   10  A    between atoms: C_21  and  C_32
REMARK   11  A    between atoms: C_26  and  N_29
REMARK   12  A    between atoms: N_29  and  C_30
REMARK   13  A    between atoms: N_29  and  C_31
REMARK   14  A    between atoms: N_34  and  C_35
REMARK   15  A    between atoms: C_35  and  C_36
REMARK   16  A    between atoms: C_35  and  C_37
REMARK   17  A    between atoms: C_35  and  C_38
REMARK   18  A    between atoms: C_38  and  C_39
REMARK   19  A    between atoms: C_39  and  C_40
REMARK   20  A    between atoms: C_39  and  C_41
REMARK   21  A    between atoms: C_39  and  C_42
REMARK                            x       y       z     vdW  Elec       q    Type
REMARK                         _______ _______ _______ _____ _____    ______ ____
ROOT
ATOM      1  C   UNL     1       4.436   0.643  -1.808  0.00  0.00    +0.193 C 
ENDROOT
BRANCH   1   2
ATOM      2  C   UNL     1       5.238   0.642  -0.532  0.00  0.00    -0.018 A 
ATOM      3  C   UNL     1       4.766   1.315   0.580  0.00  0.00    +0.008 A 
ATOM      4  C   UNL     1       5.499   1.317   1.751  0.00  0.00    +0.023 A 
ATOM      5  C   UNL     1       6.711   0.640   1.811  0.00  0.00    +0.029 A 
ATOM      6  C   UNL     1       7.182  -0.035   0.692  0.00  0.00    +0.023 A 
ATOM      7  C   UNL     1       6.441  -0.037  -0.474  0.00  0.00    +0.008 A 
BRANCH   5   8
ATOM      8  N   UNL     1       7.454   0.640   2.993  0.00  0.00    -0.336 N 
ATOM      9  C   UNL     1       6.956   1.353   4.172  0.00  0.00    +0.129 C 
ATOM     10  C   UNL     1       8.732  -0.074   3.055  0.00  0.00    +0.129 C 
ENDBRANCH   5   8
ENDBRANCH   1   2
BRANCH   1  11
ATOM     11  C   UNL     1       4.577   1.980  -2.488  0.00  0.00    +0.239 C 
ATOM     12  O   UNL     1       3.605   2.690  -2.637  0.00  0.00    -0.273 OA
ATOM     13  N   UNL     1       5.783   2.387  -2.932  0.00  0.00    -0.308 N 
ATOM     14  H   UNL     1       6.560   1.819  -2.814  0.00  0.00    +0.149 HD
BRANCH  13  15
ATOM     15  C   UNL     1       5.919   3.687  -3.594  0.00  0.00    +0.030 C 
ATOM     16  C   UNL     1       5.140   3.673  -4.911  0.00  0.00    +0.031 C 
ATOM     17  C   UNL     1       5.363   4.783  -2.684  0.00  0.00    +0.031 C 
BRANCH  15  18
ATOM     18  C   UNL     1       7.397   3.961  -3.879  0.00  0.00    +0.031 C 
BRANCH  18  19
ATOM     19  C   UNL     1       8.139   4.178  -2.558  0.00  0.00    -0.036 C 
ATOM     20  C   UNL     1       7.664   3.148  -1.531  0.00  0.00    +0.010 C 
ATOM     21  C   UNL     1       9.643   4.016  -2.786  0.00  0.00    +0.010 C 
ATOM     22  C   UNL     1       7.851   5.587  -2.037  0.00  0.00    +0.010 C 
ENDBRANCH  18  19
ENDBRANCH  15  18
ENDBRANCH  13  15
ENDBRANCH   1  11
BRANCH   1  25
ATOM     23  C   UNL     1       2.624  -0.827  -1.103  0.00  0.00    +0.224 C 
ATOM     24  O   UNL     1       3.416  -1.745  -1.079  0.00  0.00    -0.275 OA
ATOM     25  N   UNL     1       3.025   0.398  -1.498  0.00  0.00    -0.278 N 
BRANCH  23  26
ATOM     26  C   UNL     1       1.193  -1.054  -0.693  0.00  0.00    +0.105 C 
BRANCH  26  27
ATOM     27  C   UNL     1       0.703  -2.355  -1.276  0.00  0.00    -0.036 A 
ATOM     28  C   UNL     1       1.333  -3.541  -0.948  0.00  0.00    +0.004 A 
ATOM     29  C   UNL     1       0.884  -4.733  -1.484  0.00  0.00    +0.000 A 
ATOM     30  C   UNL     1      -0.195  -4.740  -2.348  0.00  0.00    +0.000 A 
ATOM     31  C   UNL     1      -0.825  -3.554  -2.676  0.00  0.00    +0.000 A 
ATOM     32  C   UNL     1      -0.379  -2.362  -2.137  0.00  0.00    +0.004 A 
ENDBRANCH  26  27
BRANCH  26  34
ATOM     33  C   UNL     1       1.457   0.253   1.420  0.00  0.00    +0.005 C 
ATOM     34  C   UNL     1       1.104  -1.115   0.834  0.00  0.00    +0.014 C 
ENDBRANCH  26  34
ENDBRANCH  23  26
BRANCH  25  35
ATOM     35  C   UNL     1       2.050   1.485  -1.617  0.00  0.00    +0.183 C 
BRANCH  35  36
ATOM     36  C   UNL     1       1.514   1.527  -3.025  0.00  0.00    +0.122 A 
ATOM     37  C   UNL     1       0.382   0.940  -3.453  0.00  0.00    +0.046 A 
ATOM     38  C   UNL     1       0.264   1.233  -4.831  0.00  0.00    +0.045 A 
ATOM     39  C   UNL     1       1.332   1.982  -5.162  0.00  0.00    +0.102 A 
ATOM     40  O   UNL     1       2.082   2.161  -4.063  0.00  0.00    -0.463 OA
ATOM     41  C   UNL     1       1.631   2.530  -6.534  0.00  0.00    +0.086 C 
ENDBRANCH  35  36
ENDBRANCH  25  35
ENDBRANCH   1  25
TORSDOF 12
