REMARK  Name = ZINC35098235
REMARK  14 active torsions:
REMARK  status: ('A' for Active; 'I' for Inactive)
REMARK    1  A    between atoms: C_1  and  C_2
REMARK    2  A    between atoms: C_2  and  C_3
REMARK    3  A    between atoms: C_3  and  C_4
REMARK    4  A    between atoms: C_4  and  N_5
REMARK    5  A    between atoms: C_13  and  C_15
REMARK    6  A    between atoms: C_16  and  C_18
REMARK    7  A    between atoms: C_18  and  C_20
REMARK    8  A    between atoms: C_18  and  N_25
REMARK    9  A    between atoms: C_20  and  C_22
REMARK   10  A    between atoms: C_20  and  C_23
REMARK   11  A    between atoms: C_23  and  C_24
REMARK   12  A    between atoms: C_26  and  C_28
REMARK   13  A    between atoms: C_28  and  C_29
REMARK   14  A    between atoms: C_28  and  C_35
REMARK                            x       y       z     vdW  Elec       q    Type
REMARK                         _______ _______ _______ _____ _____    ______ ____
ROOT
ATOM      1  C   UNL     1       6.394  -4.498   7.388  0.00  0.00    +0.162 C 
ENDROOT
BRANCH   1  12
ATOM      2  N   UNL     1       1.241  -2.209   3.852  0.00  0.00    -0.299 N 
ATOM      3  C   UNL     1       1.354  -3.543   4.002  0.00  0.00    +0.303 C 
ATOM      4  O   UNL     1       0.637  -4.290   3.365  0.00  0.00    -0.253 OA
ATOM      5  N   UNL     1       2.262  -4.051   4.859  0.00  0.00    -0.280 N 
ATOM      6  C   UNL     1       3.054  -3.163   5.722  0.00  0.00    +0.128 C 
ATOM      7  C   UNL     1       4.542  -3.452   5.489  0.00  0.00    +0.127 C 
ATOM      8  N   UNL     1       4.758  -4.903   5.578  0.00  0.00    -0.297 N 
ATOM      9  C   UNL     1       3.966  -5.791   4.715  0.00  0.00    +0.130 C 
ATOM     10  C   UNL     1       2.474  -5.502   4.952  0.00  0.00    +0.092 C 
ATOM     11  C   UNL     1       2.067  -5.992   6.343  0.00  0.00    +0.030 C 
ATOM     12  C   UNL     1       5.666  -5.410   6.435  0.00  0.00    +0.236 C 
ATOM     13  O   UNL     1       5.897  -6.601   6.439  0.00  0.00    -0.274 OA
ATOM     14  H   UNL     1       1.761  -1.612   4.413  0.00  0.00    +0.150 HD
BRANCH   2  15
ATOM     15  C   UNL     1       0.334  -1.659   2.842  0.00  0.00    +0.106 C 
BRANCH  15  16
ATOM     16  C   UNL     1       0.394  -0.131   2.878  0.00  0.00    +0.018 C 
BRANCH  16  18
ATOM     17  C   UNL     1      -0.493   1.971   1.860  0.00  0.00    +0.004 C 
ATOM     18  C   UNL     1      -0.554   0.442   1.823  0.00  0.00    -0.002 C 
ENDBRANCH  16  18
ENDBRANCH  15  16
ENDBRANCH   2  15
ENDBRANCH   1  12
BRANCH   1  19
ATOM     19  N   UNL     1       7.099  -5.301   8.390  0.00  0.00    -0.303 N 
ATOM     20  C   UNL     1       7.277  -4.819   9.636  0.00  0.00    +0.225 C 
ATOM     21  O   UNL     1       6.777  -3.762   9.954  0.00  0.00    -0.275 OA
ATOM     22  H   UNL     1       7.438  -6.180   8.156  0.00  0.00    +0.149 HD
BRANCH  20  23
ATOM     23  C   UNL     1       8.099  -5.595  10.633  0.00  0.00    +0.135 C 
BRANCH  23  24
ATOM     24  C   UNL     1       9.531  -5.651  10.169  0.00  0.00    -0.031 A 
ATOM     25  C   UNL     1      10.174  -6.870  10.054  0.00  0.00    +0.005 A 
ATOM     26  C   UNL     1      11.488  -6.921   9.628  0.00  0.00    +0.000 A 
ATOM     27  C   UNL     1      12.160  -5.753   9.317  0.00  0.00    +0.000 A 
ATOM     28  C   UNL     1      11.517  -4.535   9.431  0.00  0.00    +0.000 A 
ATOM     29  C   UNL     1      10.202  -4.484   9.853  0.00  0.00    +0.005 A 
ENDBRANCH  23  24
BRANCH  23  30
ATOM     30  C   UNL     1       8.032  -4.915  11.976  0.00  0.00    -0.031 A 
ATOM     31  C   UNL     1       8.356  -3.576  12.089  0.00  0.00    +0.005 A 
ATOM     32  C   UNL     1       8.295  -2.951  13.321  0.00  0.00    +0.000 A 
ATOM     33  C   UNL     1       7.909  -3.666  14.440  0.00  0.00    +0.000 A 
ATOM     34  C   UNL     1       7.585  -5.005  14.327  0.00  0.00    +0.000 A 
ATOM     35  C   UNL     1       7.642  -5.628  13.094  0.00  0.00    +0.005 A 
ENDBRANCH  23  30
ENDBRANCH  20  23
ENDBRANCH   1  19
BRANCH   1  36
ATOM     36  C   UNL     1       7.404  -3.650   6.611  0.00  0.00    +0.015 C 
ATOM     37  C   UNL     1       8.011  -2.599   7.543  0.00  0.00    +0.010 C 
BRANCH  36  38
ATOM     38  C   UNL     1       8.514  -4.551   6.066  0.00  0.00    +0.002 C 
ATOM     39  C   UNL     1       7.998  -5.314   4.845  0.00  0.00    +0.004 C 
ENDBRANCH  36  38
ENDBRANCH   1  36
TORSDOF 10
