REMARK  Name = ZINC15728125
REMARK  9 active torsions:
REMARK  status: ('A' for Active; 'I' for Inactive)
REMARK    1  A    between atoms: C_1  and  C_2
REMARK    2  A    between atoms: C_2  and  N_64
REMARK    3  A    between atoms: C_3  and  C_4
REMARK    4  A    between atoms: C_3  and  N_64
REMARK    5  A    between atoms: C_4  and  C_5
REMARK    6  A    between atoms: C_5  and  N_6
REMARK    7  A    between atoms: C_7  and  C_9
REMARK    8  A    between atoms: C_26  and  C_27
REMARK    9  A    between atoms: C_26  and  N_64
REMARK                            x       y       z     vdW  Elec       q    Type
REMARK                         _______ _______ _______ _____ _____    ______ ____
ROOT
ATOM      1  N   UNL     1       1.416   9.413   1.758  0.00  0.00    -0.315 N 
ATOM      2  C   UNL     1       2.370   8.983   0.910  0.00  0.00    +0.218 C 
ATOM      3  O   UNL     1       2.660   9.645  -0.064  0.00  0.00    -0.275 OA
ATOM      4  H   UNL     1       1.184   8.883   2.537  0.00  0.00    +0.149 HD
ENDROOT
BRANCH   2   5
ATOM      5  C   UNL     1       3.078   7.678   1.172  0.00  0.00    +0.092 C 
ATOM      6  C   UNL     1       4.104   7.422   0.064  0.00  0.00    +0.016 C 
ATOM      7  C   UNL     1       4.776   6.067   0.305  0.00  0.00    +0.020 C 
ATOM      8  C   UNL     1       3.707   4.974   0.347  0.00  0.00    +0.107 C 
ATOM      9  N   UNL     1       2.750   5.264   1.423  0.00  0.00    -0.307 N 
ATOM     10  C   UNL     1       2.058   6.538   1.189  0.00  0.00    +0.119 C 
ATOM     11  C   UNL     1       1.842   4.225   1.575  0.00  0.00    +0.186 A 
ATOM     12  N   UNL     1       0.517   4.239   1.537  0.00  0.00    -0.124 NA
ATOM     13  N   UNL     1      -0.165   3.190   1.696  0.00  0.00    -0.121 NA
ATOM     14  C   UNL     1       0.398   2.013   1.911  0.00  0.00    +0.202 A 
ATOM     15  S   UNL     1       2.125   2.484   1.885  0.00  0.00    -0.013 S 
ATOM     16  N   UNL     1      -0.188   0.761   2.108  0.00  0.00    -0.301 N 
ATOM     17  C   UNL     1      -1.529   0.501   2.116  0.00  0.00    +0.093 A 
ATOM     18  C   UNL     1      -1.701  -0.819   2.335  0.00  0.00    +0.019 A 
ATOM     19  C   UNL     1      -0.422  -1.396   2.467  0.00  0.00    +0.019 A 
ATOM     20  C   UNL     1       0.485  -0.408   2.324  0.00  0.00    +0.093 A 
ENDBRANCH   2   5
BRANCH   1  21
ATOM     21  C   UNL     1       0.728  10.681   1.504  0.00  0.00    +0.102 C 
BRANCH  21  22
ATOM     22  C   UNL     1      -0.301  10.934   2.609  0.00  0.00    +0.000 C 
BRANCH  22  23
ATOM     23  C   UNL     1      -1.020  12.258   2.343  0.00  0.00    -0.077 C 
BRANCH  23  24
ATOM     24  N   UNL     1      -2.023  12.477   3.406  0.00  0.00    +0.382 N 
ATOM     25  H   UNL     1      -2.612  11.640   3.486  0.00  0.00    -0.081 HD
BRANCH  24  27
ATOM     26  C   UNL     1      -2.370  12.558   5.825  0.00  0.00    -0.017 C 
ATOM     27  C   UNL     1      -1.347  12.715   4.698  0.00  0.00    -0.082 C 
ENDBRANCH  24  27
BRANCH  24  28
ATOM     28  C   UNL     1      -2.878  13.634   3.063  0.00  0.00    -0.043 C 
BRANCH  28  29
ATOM     29  C   UNL     1      -3.877  13.203   2.021  0.00  0.00    -0.064 A 
ATOM     30  C   UNL     1      -3.629  13.447   0.683  0.00  0.00    +0.002 A 
ATOM     31  C   UNL     1      -4.544  13.048  -0.274  0.00  0.00    +0.000 A 
ATOM     32  C   UNL     1      -5.711  12.414   0.108  0.00  0.00    +0.000 A 
ATOM     33  C   UNL     1      -5.962  12.174   1.446  0.00  0.00    +0.000 A 
ATOM     34  C   UNL     1      -5.045  12.569   2.403  0.00  0.00    +0.002 A 
ENDBRANCH  28  29
ENDBRANCH  24  28
ENDBRANCH  23  24
ENDBRANCH  22  23
ENDBRANCH  21  22
ENDBRANCH   1  21
TORSDOF 8
