REMARK  Name = ZINC63389273
REMARK  10 active torsions:
REMARK  status: ('A' for Active; 'I' for Inactive)
REMARK    1  A    between atoms: C_1  and  O_2
REMARK    2  A    between atoms: O_2  and  C_3
REMARK    3  A    between atoms: C_9  and  C_12
REMARK    4  A    between atoms: C_12  and  C_13
REMARK    5  A    between atoms: C_13  and  N_14
REMARK    6  A    between atoms: C_15  and  C_17
REMARK    7  A    between atoms: C_17  and  C_18
REMARK    8  A    between atoms: C_18  and  C_19
REMARK    9  A    between atoms: N_23  and  C_27
REMARK   10  A    between atoms: C_27  and  C_28
REMARK                            x       y       z     vdW  Elec       q    Type
REMARK                         _______ _______ _______ _____ _____    ______ ____
ROOT
ATOM      1  C   UNL     1       0.535  -8.564   2.584  0.00  0.00    +0.098 C 
ENDROOT
BRANCH   1   3
ATOM      2  N   UNL     1      -0.759  -6.798   1.434  0.00  0.00    -0.315 N 
ATOM      3  C   UNL     1      -0.408  -7.389   2.593  0.00  0.00    +0.213 C 
ATOM      4  O   UNL     1      -0.851  -6.975   3.644  0.00  0.00    -0.276 OA
ATOM      5  H   UNL     1      -0.405  -7.128   0.594  0.00  0.00    +0.149 HD
BRANCH   2   6
ATOM      6  C   UNL     1      -1.676  -5.655   1.443  0.00  0.00    +0.108 C 
BRANCH   6   7
ATOM      7  C   UNL     1      -1.908  -5.176   0.009  0.00  0.00    +0.052 C 
BRANCH   7  14
ATOM      8  C   UNL     1      -1.200  -0.637   0.010  0.00  0.00    +0.121 A 
ATOM      9  C   UNL     1      -2.375   0.135   0.020  0.00  0.00    +0.047 A 
ATOM     10  C   UNL     1      -3.607  -0.415   0.028  0.00  0.00    +0.029 A 
ATOM     11  C   UNL     1      -3.753  -1.875   0.027  0.00  0.00    +0.043 A 
ATOM     12  N   UNL     1      -4.809  -2.650   0.034  0.00  0.00    -0.380 N 
ATOM     13  C   UNL     1      -4.362  -4.047   0.029  0.00  0.00    +0.144 C 
ATOM     14  C   UNL     1      -2.851  -4.000   0.018  0.00  0.00    -0.040 C 
ATOM     15  C   UNL     1      -2.516  -2.690   0.016  0.00  0.00    +0.002 A 
ATOM     16  C   UNL     1      -1.226  -1.992   0.003  0.00  0.00    +0.055 A 
ATOM     17  H   UNL     1      -5.731  -2.350   0.042  0.00  0.00    +0.160 HD
BRANCH   8  19
ATOM     18  C   UNL     1      -0.017   1.425   0.010  0.00  0.00    +0.277 C 
ATOM     19  O   UNL     1       0.002  -0.004   0.002  0.00  0.00    -0.495 OA
ENDBRANCH   8  19
ENDBRANCH   7  14
ENDBRANCH   6   7
ENDBRANCH   2   6
ENDBRANCH   1   3
BRANCH   1  20
ATOM     20  C   UNL     1       0.767  -9.043   4.019  0.00  0.00    +0.041 C 
BRANCH  20  21
ATOM     21  C   UNL     1       1.724 -10.237   4.010  0.00  0.00    +0.161 C 
ATOM     22  C   UNL     1       2.027 -10.688   5.424  0.00  0.00    +0.244 C 
ATOM     23  O   UNL     1       2.561 -10.042   6.301  0.00  0.00    -0.273 OA
ATOM     24  N   UNL     1       1.579 -11.956   5.506  0.00  0.00    -0.220 N 
ATOM     25  C   UNL     1       1.040 -12.365   4.352  0.00  0.00    +0.309 C 
ATOM     26  O   UNL     1       0.568 -13.471   4.181  0.00  0.00    -0.252 OA
ATOM     27  N   UNL     1       1.081 -11.412   3.398  0.00  0.00    -0.288 N 
ATOM     28  H   UNL     1       0.751 -11.485   2.488  0.00  0.00    +0.151 HD
BRANCH  24  29
ATOM     29  C   UNL     1       1.671 -12.786   6.710  0.00  0.00    +0.153 C 
BRANCH  29  30
ATOM     30  C   UNL     1       0.433 -12.594   7.548  0.00  0.00    -0.026 A 
ATOM     31  C   UNL     1       0.397 -11.600   8.508  0.00  0.00    +0.009 A 
ATOM     32  C   UNL     1      -0.736 -11.420   9.279  0.00  0.00    +0.050 A 
ATOM     33  C   UNL     1      -1.840 -12.236   9.091  0.00  0.00    +0.166 A 
ATOM     34  C   UNL     1      -1.804 -13.237   8.123  0.00  0.00    +0.167 A 
ATOM     35  C   UNL     1      -0.667 -13.408   7.351  0.00  0.00    +0.054 A 
ATOM     36  O   UNL     1      -2.999 -13.896   8.133  0.00  0.00    -0.453 OA
ATOM     37  C   UNL     1      -3.615 -13.557   9.389  0.00  0.00    +0.466 C 
ATOM     38  O   UNL     1      -3.058 -12.268   9.706  0.00  0.00    -0.453 OA
ENDBRANCH  29  30
ENDBRANCH  24  29
ENDBRANCH  20  21
ENDBRANCH   1  20
TORSDOF 9
