REMARK  Name = ZINC59292349
REMARK  3 active torsions:
REMARK  status: ('A' for Active; 'I' for Inactive)
REMARK    1  A    between atoms: C_1  and  C_2
REMARK    2  A    between atoms: N_10  and  C_11
REMARK    3  A    between atoms: C_16  and  C_19
REMARK                            x       y       z     vdW  Elec       q    Type
REMARK                         _______ _______ _______ _____ _____    ______ ____
ROOT
ATOM      1  C   UNL     1      -0.027   1.526   0.007  0.00  0.00    +0.007 C 
ATOM      2  C   UNL     1      -0.002  -0.004   0.001  0.00  0.00    -0.011 C 
ATOM      3  C   UNL     1      -1.437  -0.537   0.006  0.00  0.00    +0.022 C 
ATOM      4  C   UNL     1      -1.408  -2.068  -0.035  0.00  0.00    +0.109 C 
ATOM      5  N   UNL     1      -0.578  -2.556   1.075  0.00  0.00    -0.286 N 
ATOM      6  C   UNL     1       0.789  -2.038   1.216  0.00  0.00    +0.109 C 
ATOM      7  C   UNL     1       0.736  -0.507   1.243  0.00  0.00    +0.022 C 
ATOM      8  C   UNL     1      -1.063  -3.461   1.948  0.00  0.00    +0.302 C 
ATOM      9  O   UNL     1      -2.225  -3.811   1.879  0.00  0.00    -0.253 OA
ATOM     10  N   UNL     1      -0.259  -3.978   2.898  0.00  0.00    -0.296 N 
ATOM     11  H   UNL     1       0.647  -3.647   3.000  0.00  0.00    +0.151 HD
ENDROOT
BRANCH  10  12
ATOM     12  C   UNL     1      -0.753  -5.041   3.777  0.00  0.00    +0.075 C 
ATOM     13  C   UNL     1      -0.570  -6.397   3.091  0.00  0.00    +0.022 C 
ATOM     14  C   UNL     1       0.915  -6.625   2.800  0.00  0.00    +0.002 C 
ATOM     15  C   UNL     1       1.700  -6.607   4.113  0.00  0.00    +0.012 C 
ATOM     16  C   UNL     1       1.517  -5.252   4.799  0.00  0.00    +0.095 C 
ATOM     17  C   UNL     1       0.033  -5.024   5.090  0.00  0.00    +0.034 C 
BRANCH  16  18
ATOM     18  C   UNL     1       2.303  -5.235   6.112  0.00  0.00    +0.393 C 
ATOM     19  F   UNL     1       3.660  -5.443   5.846  0.00  0.00    -0.170 F 
ATOM     20  F   UNL     1       2.136  -3.995   6.739  0.00  0.00    -0.170 F 
ATOM     21  F   UNL     1       1.831  -6.250   6.951  0.00  0.00    -0.170 F 
ENDBRANCH  16  18
ENDBRANCH  10  12
TORSDOF 2
