REMARK  Name = ZINC12712722
REMARK  10 active torsions:
REMARK  status: ('A' for Active; 'I' for Inactive)
REMARK    1  A    between atoms: C_1  and  C_2
REMARK    2  A    between atoms: C_8  and  C_10
REMARK    3  A    between atoms: C_8  and  C_24
REMARK    4  A    between atoms: C_8  and  N_65
REMARK    5  A    between atoms: C_15  and  O_22
REMARK    6  A    between atoms: O_22  and  C_23
REMARK    7  A    between atoms: N_28  and  C_29
REMARK    8  A    between atoms: C_29  and  C_30
REMARK    9  A    between atoms: C_33  and  O_36
REMARK   10  A    between atoms: O_36  and  C_37
REMARK                            x       y       z     vdW  Elec       q    Type
REMARK                         _______ _______ _______ _____ _____    ______ ____
ROOT
ATOM      1  C   UNL     1      -4.091  -5.186   1.578  0.00  0.00    +0.039 C 
ENDROOT
BRANCH   1   2
ATOM      2  C   UNL     1      -2.742  -5.116   2.248  0.00  0.00    +0.011 A 
ATOM      3  C   UNL     1      -2.528  -4.219   3.244  0.00  0.00    +0.017 A 
ATOM      4  C   UNL     1      -1.209  -4.176   3.874  0.00  0.00    -0.001 A 
ATOM      5  C   UNL     1      -0.930  -3.272   4.906  0.00  0.00    +0.013 A 
ATOM      6  C   UNL     1       0.310  -3.255   5.475  0.00  0.00    +0.046 A 
ATOM      7  C   UNL     1       1.303  -4.130   5.036  0.00  0.00    +0.122 A 
ATOM      8  C   UNL     1       1.047  -5.032   4.017  0.00  0.00    +0.072 A 
ATOM      9  C   UNL     1      -0.210  -5.064   3.426  0.00  0.00    +0.053 A 
ATOM     10  N   UNL     1      -0.493  -5.951   2.410  0.00  0.00    -0.322 N 
ATOM     11  H   UNL     1       0.196  -6.561   2.103  0.00  0.00    +0.169 HD
ATOM     12  C   UNL     1      -1.710  -5.986   1.841  0.00  0.00    +0.251 A 
ATOM     13  O   UNL     1      -1.927  -6.787   0.948  0.00  0.00    -0.268 OA
BRANCH   7  14
ATOM     14  O   UNL     1       2.531  -4.099   5.614  0.00  0.00    -0.495 OA
ATOM     15  C   UNL     1       2.732  -3.147   6.660  0.00  0.00    +0.277 C 
ENDBRANCH   7  14
ENDBRANCH   1   2
BRANCH   1  22
ATOM     16  C   UNL     1      -7.561  -8.319   0.050  0.00  0.00    +0.005 C 
ATOM     17  C   UNL     1      -6.259  -8.174   0.840  0.00  0.00    -0.031 C 
ATOM     18  C   UNL     1      -6.474  -8.667   2.273  0.00  0.00    -0.001 C 
ATOM     19  C   UNL     1      -5.184  -8.464   3.073  0.00  0.00    -0.018 C 
ATOM     20  C   UNL     1      -4.794  -6.985   3.037  0.00  0.00    -0.077 C 
ATOM     21  C   UNL     1      -5.838  -6.703   0.869  0.00  0.00    -0.074 C 
ATOM     22  N   UNL     1      -4.578  -6.579   1.632  0.00  0.00    +0.389 N 
ATOM     23  H   UNL     1      -3.873  -7.196   1.212  0.00  0.00    -0.080 HD
ENDBRANCH   1  22
BRANCH   1  24
ATOM     24  C   UNL     1      -5.050  -4.261   2.283  0.00  0.00    +0.143 A 
ATOM     25  N   UNL     1      -5.510  -4.392   3.503  0.00  0.00    -0.115 NA
ATOM     26  N   UNL     1      -6.306  -3.406   3.736  0.00  0.00    -0.023 NA
ATOM     27  N   UNL     1      -6.361  -2.647   2.699  0.00  0.00    -0.044 NA
ATOM     28  N   UNL     1      -5.598  -3.139   1.782  0.00  0.00    -0.226 N 
BRANCH  28  29
ATOM     29  C   UNL     1      -5.375  -2.583   0.445  0.00  0.00    +0.182 C 
BRANCH  29  30
ATOM     30  C   UNL     1      -4.248  -1.584   0.497  0.00  0.00    -0.026 A 
ATOM     31  C   UNL     1      -2.947  -1.999   0.277  0.00  0.00    +0.009 A 
ATOM     32  C   UNL     1      -1.913  -1.085   0.325  0.00  0.00    +0.046 A 
ATOM     33  C   UNL     1      -2.179   0.249   0.594  0.00  0.00    +0.120 A 
ATOM     34  C   UNL     1      -3.484   0.662   0.821  0.00  0.00    +0.046 A 
ATOM     35  C   UNL     1      -4.516  -0.255   0.766  0.00  0.00    +0.009 A 
BRANCH  33  36
ATOM     36  O   UNL     1      -1.162   1.150   0.642  0.00  0.00    -0.495 OA
ATOM     37  C   UNL     1      -1.510   2.507   0.925  0.00  0.00    +0.277 C 
ENDBRANCH  33  36
ENDBRANCH  29  30
ENDBRANCH  28  29
ENDBRANCH   1  24
TORSDOF 7
