REMARK  Name = ZINC36205312
REMARK  17 active torsions:
REMARK  status: ('A' for Active; 'I' for Inactive)
REMARK    1  A    between atoms: C_1  and  C_2
REMARK    2  A    between atoms: C_5  and  C_9
REMARK    3  A    between atoms: C_7  and  C_8
REMARK    4  A    between atoms: C_18  and  C_20
REMARK    5  A    between atoms: C_20  and  N_21
REMARK    6  A    between atoms: N_21  and  C_22
REMARK    7  A    between atoms: N_21  and  C_32
REMARK    8  A    between atoms: C_22  and  C_23
REMARK    9  A    between atoms: C_23  and  C_25
REMARK   10  A    between atoms: C_23  and  O_31
REMARK   11  A    between atoms: C_25  and  O_26
REMARK   12  A    between atoms: O_26  and  C_27
REMARK   13  A    between atoms: C_27  and  C_28
REMARK   14  A    between atoms: C_28  and  C_29
REMARK   15  A    between atoms: C_28  and  C_30
REMARK   16  A    between atoms: C_32  and  C_33
REMARK   17  A    between atoms: C_32  and  C_34
REMARK                            x       y       z     vdW  Elec       q    Type
REMARK                         _______ _______ _______ _____ _____    ______ ____
ROOT
ATOM      1  C   UNL     1      -3.100  -5.236   2.628  0.00  0.00    +0.004 A 
ATOM      2  C   UNL     1      -2.648  -6.090   3.579  0.00  0.00    +0.056 A 
ATOM      3  S   UNL     1      -2.488  -7.634   2.704  0.00  0.00    -0.076 S 
ATOM      4  C   UNL     1      -3.025  -7.104   1.099  0.00  0.00    +0.116 A 
ATOM      5  C   UNL     1      -3.322  -5.744   1.280  0.00  0.00    +0.080 A 
ATOM      6  C   UNL     1      -3.794  -5.052   0.118  0.00  0.00    +0.260 A 
ATOM      7  O   UNL     1      -4.073  -3.867   0.174  0.00  0.00    -0.267 OA
ATOM      8  N   UNL     1      -3.923  -5.731  -1.037  0.00  0.00    -0.312 N 
ATOM      9  H   UNL     1      -4.242  -5.267  -1.827  0.00  0.00    +0.170 HD
ATOM     10  C   UNL     1      -3.616  -7.051  -1.118  0.00  0.00    +0.094 A 
ATOM     11  N   UNL     1      -3.174  -7.706  -0.078  0.00  0.00    -0.229 NA
ENDROOT
BRANCH   1  16
ATOM     12  C   UNL     1      -4.145   0.282   3.896  0.00  0.00    +0.044 C 
ATOM     13  C   UNL     1      -3.871  -1.162   3.564  0.00  0.00    -0.048 A 
ATOM     14  C   UNL     1      -3.100  -1.482   2.461  0.00  0.00    +0.004 A 
ATOM     15  C   UNL     1      -2.846  -2.802   2.152  0.00  0.00    +0.009 A 
ATOM     16  C   UNL     1      -3.369  -3.816   2.955  0.00  0.00    -0.016 A 
ATOM     17  C   UNL     1      -4.145  -3.487   4.065  0.00  0.00    +0.012 A 
ATOM     18  C   UNL     1      -4.387  -2.163   4.367  0.00  0.00    -0.047 A 
ATOM     19  C   UNL     1      -5.221  -1.806   5.571  0.00  0.00    +0.044 C 
ENDBRANCH   1  16
BRANCH  10  20
ATOM     20  C   UNL     1      -3.776  -7.769  -2.433  0.00  0.00    -0.003 C 
BRANCH  20  21
ATOM     21  N   UNL     1      -3.213  -9.121  -2.324  0.00  0.00    +0.388 N 
ATOM     22  H   UNL     1      -3.359  -9.472  -1.389  0.00  0.00    -0.081 HD
BRANCH  21  23
ATOM     23  C   UNL     1      -1.773  -9.077  -2.612  0.00  0.00    -0.074 C 
ATOM     24  C   UNL     1      -1.552  -8.517  -4.018  0.00  0.00    -0.014 C 
ATOM     25  C   UNL     1      -1.076  -8.179  -1.589  0.00  0.00    -0.014 C 
ENDBRANCH  21  23
BRANCH  21  26
ATOM     26  C   UNL     1      -3.878 -10.008  -3.288  0.00  0.00    -0.044 C 
BRANCH  26  27
ATOM     27  C   UNL     1      -3.408 -11.447  -3.067  0.00  0.00    +0.124 C 
BRANCH  27  28
ATOM     28  O   UNL     1      -2.038 -11.565  -3.455  0.00  0.00    -0.391 OA
ATOM     29  H   UNL     1      -1.862 -11.291  -4.366  0.00  0.00    +0.210 HD
ENDBRANCH  27  28
BRANCH  27  30
ATOM     30  C   UNL     1      -4.261 -12.397  -3.910  0.00  0.00    +0.189 C 
BRANCH  30  31
ATOM     31  O   UNL     1      -3.900 -13.748  -3.616  0.00  0.00    -0.377 OA
BRANCH  31  32
ATOM     32  C   UNL     1      -4.641 -14.722  -4.354  0.00  0.00    +0.163 C 
BRANCH  32  33
ATOM     33  C   UNL     1      -4.173 -16.125  -3.961  0.00  0.00    +0.009 C 
ATOM     34  C   UNL     1      -5.050 -17.168  -4.656  0.00  0.00    +0.009 C 
ATOM     35  C   UNL     1      -2.717 -16.315  -4.389  0.00  0.00    +0.009 C 
ENDBRANCH  32  33
ENDBRANCH  31  32
ENDBRANCH  30  31
ENDBRANCH  27  30
ENDBRANCH  26  27
ENDBRANCH  21  26
ENDBRANCH  20  21
ENDBRANCH  10  20
TORSDOF 11
