REMARK  Name = ZINC04814045
REMARK  7 active torsions:
REMARK  status: ('A' for Active; 'I' for Inactive)
REMARK    1  A    between atoms: C_1  and  C_2
REMARK    2  A    between atoms: C_2  and  C_3
REMARK    3  A    between atoms: C_2  and  C_4
REMARK    4  A    between atoms: C_2  and  C_5
REMARK    5  A    between atoms: C_8  and  C_11
REMARK    6  A    between atoms: C_16  and  C_19
REMARK    7  A    between atoms: C_25  and  O_27
REMARK                            x       y       z     vdW  Elec       q    Type
REMARK                         _______ _______ _______ _____ _____    ______ ____
ROOT
ATOM      1  C   UNL     1       2.707  -1.868  -4.752  0.00  0.00    +0.224 C 
ATOM      2  N   UNL     1       4.149  -1.993  -4.468  0.00  0.00    -0.313 N 
ATOM      3  C   UNL     1       4.550  -3.162  -3.874  0.00  0.00    +0.080 A 
ATOM      4  C   UNL     1       3.822  -4.355  -3.987  0.00  0.00    +0.072 A 
ATOM      5  C   UNL     1       4.383  -5.490  -3.285  0.00  0.00    +0.003 A 
ATOM      6  C   UNL     1       5.544  -5.317  -2.597  0.00  0.00    +0.056 A 
ATOM      7  S   UNL     1       5.930  -3.595  -2.870  0.00  0.00    -0.081 S 
ATOM      8  C   UNL     1       2.585  -4.314  -4.807  0.00  0.00    +0.220 C 
ATOM      9  N   UNL     1       2.130  -3.143  -5.159  0.00  0.00    -0.223 NA
ATOM     10  H   UNL     1       4.778  -1.289  -4.689  0.00  0.00    +0.149 HD
ENDROOT
BRANCH   1  14
ATOM     11  C   UNL     1       0.707  -0.490  -1.238  0.00  0.00    -0.042 A 
ATOM     12  C   UNL     1       0.036  -1.284  -2.148  0.00  0.00    +0.004 A 
ATOM     13  C   UNL     1       0.683  -1.730  -3.286  0.00  0.00    +0.007 A 
ATOM     14  C   UNL     1       2.001  -1.381  -3.513  0.00  0.00    -0.005 A 
ATOM     15  C   UNL     1       2.672  -0.586  -2.603  0.00  0.00    +0.007 A 
ATOM     16  C   UNL     1       2.024  -0.137  -1.467  0.00  0.00    +0.004 A 
BRANCH  11  18
ATOM     17  C   UNL     1      -0.019   1.526   0.010  0.00  0.00    +0.015 C 
ATOM     18  C   UNL     1       0.002  -0.004   0.002  0.00  0.00    -0.013 C 
ATOM     19  C   UNL     1       0.742  -0.511   1.242  0.00  0.00    +0.015 C 
ATOM     20  C   UNL     1      -1.433  -0.534   0.013  0.00  0.00    +0.015 C 
ENDBRANCH  11  18
ENDBRANCH   1  14
BRANCH   5  21
ATOM     21  C   UNL     1       3.709  -6.809  -3.315  0.00  0.00    -0.017 A 
ATOM     22  C   UNL     1       2.348  -6.907  -3.027  0.00  0.00    +0.008 A 
ATOM     23  C   UNL     1       1.726  -8.138  -3.057  0.00  0.00    +0.001 A 
ATOM     24  C   UNL     1       2.449  -9.274  -3.371  0.00  0.00    +0.000 A 
ATOM     25  C   UNL     1       3.800  -9.184  -3.658  0.00  0.00    +0.001 A 
ATOM     26  C   UNL     1       4.432  -7.957  -3.637  0.00  0.00    +0.008 A 
ENDBRANCH   5  21
BRANCH   8  27
ATOM     27  O   UNL     1       1.953  -5.452  -5.178  0.00  0.00    -0.492 OA
ATOM     28  H   UNL     1       1.159  -5.305  -5.710  0.00  0.00    +0.294 HD
ENDBRANCH   8  27
TORSDOF 4
