REMARK  Name = ZINC00720132
REMARK  6 active torsions:
REMARK  status: ('A' for Active; 'I' for Inactive)
REMARK    1  A    between atoms: C_1  and  O_2
REMARK    2  A    between atoms: O_2  and  C_3
REMARK    3  A    between atoms: C_7  and  C_11
REMARK    4  A    between atoms: C_8  and  O_9
REMARK    5  A    between atoms: O_9  and  C_10
REMARK    6  A    between atoms: C_16  and  C_21
REMARK                            x       y       z     vdW  Elec       q    Type
REMARK                         _______ _______ _______ _____ _____    ______ ____
ROOT
ATOM      1  C   UNL     1      -2.850   3.037   0.102  0.00  0.00    +0.140 C 
ATOM      2  C   UNL     1      -2.265   2.721  -1.253  0.00  0.00    +0.037 C 
ATOM      3  C   UNL     1      -2.586   3.317  -2.412  0.00  0.00    +0.017 C 
ATOM      4  C   UNL     1      -1.926   2.887  -3.711  0.00  0.00    +0.060 C 
ATOM      5  C   UNL     1      -0.502   2.426  -3.445  0.00  0.00    +0.039 C 
ATOM      6  C   UNL     1      -0.574   1.246  -2.470  0.00  0.00    +0.088 C 
ATOM      7  C   UNL     1      -1.293   1.693  -1.233  0.00  0.00    +0.163 C 
ATOM      8  O   UNL     1      -1.033   1.154  -0.175  0.00  0.00    -0.292 OA
ATOM      9  N   UNL     1      -3.503   4.309  -2.539  0.00  0.00    -0.316 N 
ATOM     10  C   UNL     1      -3.590   5.425  -1.715  0.00  0.00    +0.052 A 
ATOM     11  C   UNL     1      -3.422   6.713  -2.193  0.00  0.00    +0.025 A 
ATOM     12  C   UNL     1      -3.637   7.785  -1.344  0.00  0.00    +0.002 A 
ATOM     13  C   UNL     1      -4.014   7.571  -0.031  0.00  0.00    +0.002 A 
ATOM     14  C   UNL     1      -4.160   6.283   0.455  0.00  0.00    +0.025 A 
ATOM     15  C   UNL     1      -3.929   5.207  -0.388  0.00  0.00    +0.049 A 
ATOM     16  N   UNL     1      -4.017   3.893   0.067  0.00  0.00    -0.331 N 
ATOM     17  H   UNL     1      -4.147   4.234  -3.260  0.00  0.00    +0.152 HD
ATOM     18  H   UNL     1      -4.873   3.546   0.364  0.00  0.00    +0.147 HD
ENDROOT
BRANCH   1  23
ATOM     19  C   UNL     1      -0.907   4.332   3.082  0.00  0.00    +0.162 A 
ATOM     20  C   UNL     1       0.164   4.952   2.458  0.00  0.00    +0.049 A 
ATOM     21  C   UNL     1       0.254   4.955   1.079  0.00  0.00    +0.004 A 
ATOM     22  C   UNL     1      -0.721   4.336   0.318  0.00  0.00    +0.009 A 
ATOM     23  C   UNL     1      -1.789   3.711   0.934  0.00  0.00    +0.023 A 
ATOM     24  C   UNL     1      -1.885   3.704   2.316  0.00  0.00    +0.167 A 
BRANCH  19  26
ATOM     25  C   UNL     1       0.040   4.997   5.159  0.00  0.00    +0.277 C 
ATOM     26  O   UNL     1      -1.000   4.333   4.438  0.00  0.00    -0.491 OA
ENDBRANCH  19  26
BRANCH  24  27
ATOM     27  O   UNL     1      -2.935   3.089   2.924  0.00  0.00    -0.491 OA
ATOM     28  C   UNL     1      -2.736   1.743   3.359  0.00  0.00    +0.277 C 
ENDBRANCH  24  27
ENDBRANCH   1  23
BRANCH   5  29
ATOM     29  C   UNL     1       0.140   1.985  -4.735  0.00  0.00    -0.006 A 
ATOM     30  C   UNL     1       1.269   2.445  -5.328  0.00  0.00    +0.011 A 
ATOM     31  C   UNL     1       1.675   1.883  -6.524  0.00  0.00    +0.008 A 
ATOM     32  C   UNL     1       0.931   0.888  -7.069  0.00  0.00    +0.045 A 
ATOM     33  S   UNL     1      -0.384   0.714  -5.875  0.00  0.00    -0.101 S 
ENDBRANCH   5  29
TORSDOF 4
