REMARK  Name = ZINC35231773
REMARK  4 active torsions:
REMARK  status: ('A' for Active; 'I' for Inactive)
REMARK    1  A    between atoms: C_4  and  C_7
REMARK    2  A    between atoms: C_10  and  N_13
REMARK    3  A    between atoms: N_13  and  C_14
REMARK    4  A    between atoms: C_14  and  C_15
REMARK                            x       y       z     vdW  Elec       q    Type
REMARK                         _______ _______ _______ _____ _____    ______ ____
ROOT
ATOM      1  C   UNL     1       3.711  -0.707  -0.038  0.00  0.00    +0.019 C 
ATOM      2  C   UNL     1       3.817  -1.592   1.206  0.00  0.00    +0.006 C 
ATOM      3  C   UNL     1       5.152  -2.339   1.188  0.00  0.00    -0.015 C 
ATOM      4  C   UNL     1       5.232  -3.211  -0.066  0.00  0.00    -0.071 C 
ATOM      5  C   UNL     1       5.126  -2.326  -1.310  0.00  0.00    -0.015 C 
ATOM      6  C   UNL     1       3.791  -1.579  -1.292  0.00  0.00    +0.006 C 
ENDROOT
BRANCH   1  10
ATOM      7  C   UNL     1      -0.017   1.378   0.010  0.00  0.00    +0.000 A 
ATOM      8  C   UNL     1       1.171   2.086   0.002  0.00  0.00    +0.000 A 
ATOM      9  C   UNL     1       2.377   1.411  -0.013  0.00  0.00    +0.004 A 
ATOM     10  C   UNL     1       2.396   0.029  -0.020  0.00  0.00    -0.044 A 
ATOM     11  C   UNL     1       1.208  -0.679  -0.012  0.00  0.00    +0.004 A 
ATOM     12  C   UNL     1       0.002  -0.004   0.002  0.00  0.00    +0.000 A 
ENDBRANCH   1  10
BRANCH   4  13
ATOM     13  N   UNL     1       4.129  -4.181  -0.059  0.00  0.00    +0.384 N 
ATOM     14  H   UNL     1       4.151  -4.709   0.800  0.00  0.00    -0.085 HD
ATOM     15  H   UNL     1       3.250  -3.690  -0.131  0.00  0.00    -0.085 HD
BRANCH  13  16
ATOM     16  C   UNL     1       4.274  -5.095  -1.200  0.00  0.00    -0.039 C 
BRANCH  16  17
ATOM     17  C   UNL     1       3.142  -6.090  -1.193  0.00  0.00    -0.026 A 
ATOM     18  C   UNL     1       1.927  -6.004  -1.788  0.00  0.00    +0.011 A 
ATOM     19  C   UNL     1       1.035  -7.051  -1.645  0.00  0.00    +0.028 A 
ATOM     20  C   UNL     1       1.403  -8.132  -0.913  0.00  0.00    +0.078 A 
ATOM     21  S   UNL     1       3.056  -7.689  -0.405  0.00  0.00    -0.084 S 
ATOM     22 CL   UNL     1       0.502  -9.575  -0.567  0.00  0.00    -0.076 Cl
ENDBRANCH  16  17
ENDBRANCH  13  16
ENDBRANCH   4  13
TORSDOF 4
