REMARK  Name = ZINC14478627
REMARK  4 active torsions:
REMARK  status: ('A' for Active; 'I' for Inactive)
REMARK    1  A    between atoms: C_1  and  C_2
REMARK    2  A    between atoms: C_7  and  C_8
REMARK    3  A    between atoms: C_19  and  N_25
REMARK    4  A    between atoms: C_21  and  O_24
REMARK                            x       y       z     vdW  Elec       q    Type
REMARK                         _______ _______ _______ _____ _____    ______ ____
ROOT
ATOM      1  C   UNL     1      -2.823   1.746  -0.095  0.00  0.00    +0.105 C 
ATOM      2  C   UNL     1      -3.460   0.374  -0.172  0.00  0.00    +0.029 C 
ATOM      3  C   UNL     1      -2.531  -0.834  -0.040  0.00  0.00    +0.033 C 
ATOM      4  C   UNL     1      -3.486  -1.868   0.560  0.00  0.00    -0.030 C 
ATOM      5  C   UNL     1      -4.447  -1.254   1.243  0.00  0.00    -0.023 C 
ATOM      6  C   UNL     1      -4.201   0.208   1.191  0.00  0.00    +0.049 C 
ATOM      7  C   UNL     1      -5.295   1.203   1.207  0.00  0.00    -0.014 A 
ATOM      8  C   UNL     1      -6.487   0.961   1.858  0.00  0.00    +0.039 A 
ATOM      9  C   UNL     1      -7.478   1.923   1.894  0.00  0.00    +0.130 A 
ATOM     10  C   UNL     1      -7.271   3.141   1.270  0.00  0.00    +0.080 A 
ATOM     11  C   UNL     1      -6.086   3.390   0.608  0.00  0.00    +0.140 A 
ATOM     12  C   UNL     1      -5.077   2.419   0.558  0.00  0.00    +0.074 A 
ATOM     13  N   UNL     1      -3.913   2.733  -0.146  0.00  0.00    -0.334 N 
ATOM     14  H   UNL     1      -3.580   3.654   0.099  0.00  0.00    +0.147 HD
ENDROOT
BRANCH   1  21
ATOM     15  C   UNL     1      -0.054   0.932   0.050  0.00  0.00    +0.044 C 
ATOM     16  C   UNL     1      -0.738   1.498   1.268  0.00  0.00    -0.045 A 
ATOM     17  C   UNL     1      -0.039   1.633   2.453  0.00  0.00    +0.004 A 
ATOM     18  C   UNL     1      -0.666   2.152   3.570  0.00  0.00    +0.000 A 
ATOM     19  C   UNL     1      -1.992   2.538   3.502  0.00  0.00    +0.000 A 
ATOM     20  C   UNL     1      -2.691   2.403   2.317  0.00  0.00    +0.006 A 
ATOM     21  C   UNL     1      -2.062   1.888   1.199  0.00  0.00    -0.024 A 
ENDBRANCH   1  21
BRANCH   9  22
ATOM     22  N   UNL     1      -8.753   1.653   2.595  0.00  0.00    +0.057 N 
ATOM     23  O   UNL     1      -8.931   0.580   3.143  0.00  0.00    -0.126 OA
ATOM     24  O   UNL     1      -9.624   2.504   2.624  0.00  0.00    -0.126 OA
ENDBRANCH   9  22
BRANCH  11  25
ATOM     25  O   UNL     1      -5.896   4.590  -0.002  0.00  0.00    -0.505 OA
ATOM     26  H   UNL     1      -6.189   4.614  -0.923  0.00  0.00    +0.292 HD
ENDBRANCH  11  25
TORSDOF 3
