REMARK  Name = ZINC08824922
REMARK  8 active torsions:
REMARK  status: ('A' for Active; 'I' for Inactive)
REMARK    1  A    between atoms: C_1  and  C_2
REMARK    2  A    between atoms: C_2  and  C_3
REMARK    3  A    between atoms: C_8  and  N_9
REMARK    4  A    between atoms: C_12  and  C_17
REMARK    5  A    between atoms: C_17  and  S_18
REMARK    6  A    between atoms: S_18  and  C_19
REMARK    7  A    between atoms: C_22  and  C_31
REMARK    8  A    between atoms: N_23  and  C_24
REMARK                            x       y       z     vdW  Elec       q    Type
REMARK                         _______ _______ _______ _____ _____    ______ ____
ROOT
ATOM      1  C   UNL     1      -5.573  -3.300   0.070  0.00  0.00    +0.153 C 
ENDROOT
BRANCH   1   5
ATOM      2  N   UNL     1      -8.104  -6.281   2.852  0.00  0.00    -0.283 N 
ATOM      3  C   UNL     1      -7.486  -6.024   1.643  0.00  0.00    +0.224 A 
ATOM      4  N   UNL     1      -6.865  -4.863   1.445  0.00  0.00    -0.198 NA
ATOM      5  C   UNL     1      -6.274  -4.616   0.289  0.00  0.00    +0.146 A 
ATOM      6  N   UNL     1      -6.300  -5.518  -0.676  0.00  0.00    -0.199 NA
ATOM      7  C   UNL     1      -6.914  -6.684  -0.484  0.00  0.00    +0.217 A 
ATOM      8  N   UNL     1      -7.510  -6.935   0.677  0.00  0.00    -0.181 NA
ATOM      9  N   UNL     1      -6.936  -7.627  -1.491  0.00  0.00    -0.327 N 
ATOM     10  H   UNL     1      -8.012  -5.654   3.586  0.00  0.00    +0.155 HD
ATOM     11  H   UNL     1      -7.387  -8.475  -1.351  0.00  0.00    +0.145 HD
ATOM     12  H   UNL     1      -6.501  -7.443  -2.338  0.00  0.00    +0.145 HD
BRANCH   2  18
ATOM     13  C   UNL     1      -8.986  -8.022   4.273  0.00  0.00    -0.026 A 
ATOM     14  C   UNL     1      -9.735  -9.171   4.432  0.00  0.00    +0.005 A 
ATOM     15  C   UNL     1     -10.359  -9.748   3.342  0.00  0.00    +0.000 A 
ATOM     16  C   UNL     1     -10.237  -9.176   2.088  0.00  0.00    +0.002 A 
ATOM     17  C   UNL     1      -9.495  -8.023   1.924  0.00  0.00    +0.023 A 
ATOM     18  C   UNL     1      -8.861  -7.445   3.016  0.00  0.00    +0.037 A 
BRANCH  13  20
ATOM     19  C   UNL     1      -9.198  -6.295   6.040  0.00  0.00    +0.009 C 
ATOM     20  C   UNL     1      -8.305  -7.394   5.462  0.00  0.00    +0.033 C 
ENDBRANCH  13  20
ENDBRANCH   2  18
ENDBRANCH   1   5
BRANCH   1  21
ATOM     21  S   UNL     1      -3.843  -3.446   0.580  0.00  0.00    -0.078 S 
BRANCH  21  22
ATOM     22  C   UNL     1      -3.280  -1.814   0.225  0.00  0.00    +0.197 A 
ATOM     23  N   UNL     1      -4.000  -0.832  -0.273  0.00  0.00    -0.122 NA
ATOM     24  N   UNL     1      -3.277   0.222  -0.406  0.00  0.00    -0.128 NA
ATOM     25  C   UNL     1      -2.051  -0.020  -0.001  0.00  0.00    +0.169 A 
ATOM     26  N   UNL     1      -2.014  -1.335   0.410  0.00  0.00    -0.270 N 
BRANCH  26  27
ATOM     27  C   UNL     1      -0.908  -2.033   0.917  0.00  0.00    +0.051 A 
ATOM     28  C   UNL     1       0.170  -2.321   0.091  0.00  0.00    +0.029 A 
ATOM     29  C   UNL     1       1.260  -3.004   0.593  0.00  0.00    +0.040 A 
ATOM     30  C   UNL     1       1.273  -3.412   1.917  0.00  0.00    +0.124 A 
ATOM     31  C   UNL     1       0.196  -3.131   2.740  0.00  0.00    +0.040 A 
ATOM     32  C   UNL     1      -0.893  -2.443   2.243  0.00  0.00    +0.029 A 
ATOM     33  F   UNL     1       2.338  -4.085   2.405  0.00  0.00    -0.205 F 
ENDBRANCH  26  27
BRANCH  25  34
ATOM     34  C   UNL     1      -0.924   0.935   0.005  0.00  0.00    +0.022 A 
ATOM     35  C   UNL     1       0.227   0.684   0.763  0.00  0.00    +0.031 A 
ATOM     36  C   UNL     1       1.256   1.603   0.740  0.00  0.00    +0.111 A 
ATOM     37  N   UNL     1       1.165   2.703   0.017  0.00  0.00    -0.263 NA
ATOM     38  C   UNL     1       0.099   2.978  -0.711  0.00  0.00    +0.111 A 
ATOM     39  C   UNL     1      -0.976   2.115  -0.746  0.00  0.00    +0.031 A 
ENDBRANCH  25  34
ENDBRANCH  21  22
ENDBRANCH   1  21
TORSDOF 7
