REMARK  Name = ZINC44848917
REMARK  11 active torsions:
REMARK  status: ('A' for Active; 'I' for Inactive)
REMARK    1  A    between atoms: C_1  and  C_2
REMARK    2  A    between atoms: C_2  and  C_3
REMARK    3  A    between atoms: C_3  and  C_5
REMARK    4  A    between atoms: C_3  and  N_21
REMARK    5  A    between atoms: N_7  and  C_8
REMARK    6  A    between atoms: C_8  and  C_9
REMARK    7  A    between atoms: C_14  and  N_15
REMARK    8  A    between atoms: C_19  and  C_20
REMARK    9  A    between atoms: N_21  and  C_22
REMARK   10  A    between atoms: N_21  and  S_29
REMARK   11  A    between atoms: S_29  and  C_32
REMARK                            x       y       z     vdW  Elec       q    Type
REMARK                         _______ _______ _______ _____ _____    ______ ____
ROOT
ATOM      1  C   UNL     1      -2.350  -2.211  -0.093  0.00  0.00    +0.236 C 
ATOM      2  O   UNL     1      -3.015  -2.519  -1.060  0.00  0.00    -0.274 OA
ATOM      3  N   UNL     1      -2.133  -3.109   0.888  0.00  0.00    -0.310 N 
ATOM      4  H   UNL     1      -1.601  -2.863   1.661  0.00  0.00    +0.149 HD
ENDROOT
BRANCH   1   5
ATOM      5  C   UNL     1      -1.765  -0.826   0.009  0.00  0.00    +0.183 C 
BRANCH   5   7
ATOM      6  C   UNL     1       0.345   0.473   0.329  0.00  0.00    +0.006 C 
ATOM      7  C   UNL     1      -0.240  -0.921   0.093  0.00  0.00    +0.030 C 
ENDBRANCH   5   7
BRANCH   5   8
ATOM      8  N   UNL     1      -2.142  -0.048  -1.174  0.00  0.00    -0.196 N 
BRANCH   8   9
ATOM      9  C   UNL     1      -1.708  -0.449  -2.441  0.00  0.00    +0.052 A 
ATOM     10  C   UNL     1      -0.362  -0.366  -2.773  0.00  0.00    +0.026 A 
ATOM     11  C   UNL     1       0.064  -0.763  -4.026  0.00  0.00    +0.022 A 
ATOM     12  C   UNL     1      -0.849  -1.242  -4.949  0.00  0.00    +0.041 A 
ATOM     13  C   UNL     1      -2.190  -1.325  -4.620  0.00  0.00    +0.022 A 
ATOM     14  C   UNL     1      -2.621  -0.935  -3.367  0.00  0.00    +0.026 A 
ATOM     15 CL   UNL     1      -0.309  -1.739  -6.522  0.00  0.00    -0.084 Cl
ENDBRANCH   8   9
BRANCH   8  16
ATOM     16  S   UNL     1      -3.082   1.305  -1.010  0.00  0.00    +0.043 S 
ATOM     17  O   UNL     1      -3.751   1.435  -2.257  0.00  0.00    -0.155 OA
ATOM     18  O   UNL     1      -3.816   1.094   0.188  0.00  0.00    -0.155 OA
ATOM     19  C   UNL     1      -1.904   2.667  -0.789  0.00  0.00    +0.218 C 
ENDBRANCH   8  16
ENDBRANCH   5   8
ENDBRANCH   1   5
BRANCH   3  20
ATOM     20  C   UNL     1      -2.701  -4.455   0.789  0.00  0.00    +0.141 C 
BRANCH  20  21
ATOM     21  C   UNL     1      -2.314  -5.255   2.006  0.00  0.00    -0.006 A 
ATOM     22  C   UNL     1      -1.264  -6.151   1.939  0.00  0.00    +0.007 A 
ATOM     23  C   UNL     1      -0.909  -6.886   3.055  0.00  0.00    +0.000 A 
ATOM     24  C   UNL     1      -1.602  -6.726   4.241  0.00  0.00    +0.002 A 
ATOM     25  C   UNL     1      -2.651  -5.832   4.314  0.00  0.00    +0.026 A 
ATOM     26  C   UNL     1      -3.007  -5.089   3.196  0.00  0.00    +0.052 A 
BRANCH  26  27
ATOM     27  N   UNL     1      -4.069  -4.176   3.269  0.00  0.00    -0.305 N 
ATOM     28  C   UNL     1      -4.112  -3.033   4.025  0.00  0.00    +0.110 A 
ATOM     29  C   UNL     1      -5.308  -2.459   3.797  0.00  0.00    +0.102 A 
ATOM     30  N   UNL     1      -5.982  -3.225   2.927  0.00  0.00    -0.350 N 
ATOM     31  C   UNL     1      -5.248  -4.254   2.599  0.00  0.00    +0.088 A 
ATOM     32  C   UNL     1      -5.644  -5.346   1.639  0.00  0.00    +0.084 C 
ATOM     33  H   UNL     1      -6.873  -3.042   2.592  0.00  0.00    +0.166 HD
ENDBRANCH  26  27
ENDBRANCH  20  21
ENDBRANCH   3  20
TORSDOF 8
