REMARK  Name = ZINC06904967
REMARK  11 active torsions:
REMARK  status: ('A' for Active; 'I' for Inactive)
REMARK    1  A    between atoms: C_1  and  O_2
REMARK    2  A    between atoms: O_2  and  C_3
REMARK    3  A    between atoms: C_3  and  C_4
REMARK    4  A    between atoms: C_4  and  N_5
REMARK    5  A    between atoms: C_6  and  C_8
REMARK    6  A    between atoms: C_8  and  C_10
REMARK    7  A    between atoms: C_8  and  N_17
REMARK    8  A    between atoms: N_17  and  C_18
REMARK    9  A    between atoms: C_25  and  C_27
REMARK   10  A    between atoms: C_28  and  N_35
REMARK   11  A    between atoms: C_29  and  C_32
REMARK                            x       y       z     vdW  Elec       q    Type
REMARK                         _______ _______ _______ _____ _____    ______ ____
ROOT
ATOM      1  N   UNL     1      -6.647   1.496   0.605  0.00  0.00    -0.248 N 
ATOM      2  C   UNL     1      -5.934   0.671  -0.186  0.00  0.00    +0.262 C 
ATOM      3  O   UNL     1      -6.185   0.600  -1.375  0.00  0.00    -0.269 OA
ENDROOT
BRANCH   1   4
ATOM      4  C   UNL     1      -6.358   1.577   1.972  0.00  0.00    +0.073 A 
ATOM      5  C   UNL     1      -5.414   2.485   2.432  0.00  0.00    +0.026 A 
ATOM      6  C   UNL     1      -5.131   2.563   3.782  0.00  0.00    +0.002 A 
ATOM      7  C   UNL     1      -5.786   1.737   4.676  0.00  0.00    +0.003 A 
ATOM      8  C   UNL     1      -6.728   0.831   4.224  0.00  0.00    +0.040 A 
ATOM      9  C   UNL     1      -7.020   0.752   2.875  0.00  0.00    +0.145 A 
ATOM     10  F   UNL     1      -7.944  -0.130   2.433  0.00  0.00    -0.204 F 
ENDBRANCH   1   4
BRANCH   2  11
ATOM     11  C   UNL     1      -4.858  -0.142   0.384  0.00  0.00    +0.116 A 
ATOM     12  C   UNL     1      -4.003  -1.048  -0.248  0.00  0.00    +0.076 A 
ATOM     13  C   UNL     1      -3.100  -1.636   0.638  0.00  0.00    +0.155 A 
ATOM     14  N   UNL     1      -3.130  -1.297   1.907  0.00  0.00    -0.203 NA
ATOM     15  S   UNL     1      -4.285  -0.235   2.067  0.00  0.00    +0.019 S 
BRANCH  13  16
ATOM     16  C   UNL     1      -2.119  -2.624   0.154  0.00  0.00    +0.262 C 
ATOM     17  O   UNL     1      -2.096  -2.933  -1.022  0.00  0.00    -0.269 OA
ATOM     18  N   UNL     1      -1.242  -3.180   1.014  0.00  0.00    -0.324 N 
ATOM     19  H   UNL     1      -0.594  -3.827   0.694  0.00  0.00    +0.145 HD
ATOM     20  H   UNL     1      -1.260  -2.934   1.952  0.00  0.00    +0.145 HD
ENDBRANCH  13  16
BRANCH  12  21
ATOM     21  N   UNL     1      -4.049  -1.333  -1.606  0.00  0.00    -0.355 N 
ATOM     22  H   UNL     1      -3.430  -1.975  -1.988  0.00  0.00    +0.142 HD
ATOM     23  H   UNL     1      -4.700  -0.891  -2.173  0.00  0.00    +0.142 HD
ENDBRANCH  12  21
ENDBRANCH   2  11
BRANCH   1  24
ATOM     24  C   UNL     1      -7.723   2.310   0.035  0.00  0.00    +0.198 C 
BRANCH  24  25
ATOM     25  C   UNL     1      -7.160   3.212  -1.032  0.00  0.00    -0.018 A 
ATOM     26  C   UNL     1      -6.009   3.938  -0.786  0.00  0.00    +0.009 A 
ATOM     27  C   UNL     1      -5.488   4.762  -1.766  0.00  0.00    +0.038 A 
ATOM     28  C   UNL     1      -6.125   4.869  -2.990  0.00  0.00    +0.123 A 
ATOM     29  C   UNL     1      -7.281   4.146  -3.234  0.00  0.00    +0.038 A 
ATOM     30  C   UNL     1      -7.797   3.318  -2.255  0.00  0.00    +0.009 A 
ATOM     31  F   UNL     1      -5.620   5.678  -3.947  0.00  0.00    -0.205 F 
ENDBRANCH  24  25
BRANCH  24  33
ATOM     32  N   UNL     1      -9.689   3.295   1.168  0.00  0.00    -0.311 N 
ATOM     33  C   UNL     1      -8.350   3.146   1.120  0.00  0.00    +0.239 C 
ATOM     34  O   UNL     1      -7.650   3.686   1.951  0.00  0.00    -0.273 OA
ATOM     35  H   UNL     1     -10.249   2.864   0.504  0.00  0.00    +0.149 HD
BRANCH  32  36
ATOM     36  C   UNL     1     -10.298   4.108   2.224  0.00  0.00    +0.132 C 
BRANCH  36  37
ATOM     37  C   UNL     1     -11.818   4.113   2.050  0.00  0.00    +0.178 C 
BRANCH  37  39
ATOM     38  C   UNL     1     -13.743   2.685   2.111  0.00  0.00    +0.194 C 
ATOM     39  O   UNL     1     -12.325   2.792   2.251  0.00  0.00    -0.381 OA
ENDBRANCH  37  39
ENDBRANCH  36  37
ENDBRANCH  32  36
ENDBRANCH  24  33
ENDBRANCH   1  24
TORSDOF 10
