REMARK  Name = ZINC12703334
REMARK  9 active torsions:
REMARK  status: ('A' for Active; 'I' for Inactive)
REMARK    1  A    between atoms: C_5  and  C_7
REMARK    2  A    between atoms: C_7  and  N_8
REMARK    3  A    between atoms: N_8  and  C_9
REMARK    4  A    between atoms: C_9  and  C_11
REMARK    5  A    between atoms: C_9  and  C_16
REMARK    6  A    between atoms: N_18  and  C_19
REMARK    7  A    between atoms: C_24  and  C_26
REMARK    8  A    between atoms: C_27  and  N_34
REMARK    9  A    between atoms: C_28  and  C_31
REMARK                            x       y       z     vdW  Elec       q    Type
REMARK                         _______ _______ _______ _____ _____    ______ ____
ROOT
ATOM      1  N   UNL     1      -3.549   2.468   0.891  0.00  0.00    -0.274 N 
ATOM      2  C   UNL     1      -4.430   2.284   1.894  0.00  0.00    +0.258 C 
ATOM      3  O   UNL     1      -4.771   1.158   2.205  0.00  0.00    -0.269 OA
ENDROOT
BRANCH   2   4
ATOM      4  C   UNL     1      -4.976   3.439   2.610  0.00  0.00    +0.115 A 
ATOM      5  C   UNL     1      -5.776   3.474   3.753  0.00  0.00    +0.076 A 
ATOM      6  C   UNL     1      -6.098   4.775   4.140  0.00  0.00    +0.155 A 
ATOM      7  N   UNL     1      -5.645   5.787   3.434  0.00  0.00    -0.203 NA
ATOM      8  S   UNL     1      -4.790   5.175   2.260  0.00  0.00    +0.019 S 
BRANCH   6   9
ATOM      9  C   UNL     1      -6.939   5.012   5.328  0.00  0.00    +0.262 C 
ATOM     10  O   UNL     1      -7.355   4.071   5.976  0.00  0.00    -0.269 OA
ATOM     11  N   UNL     1      -7.246   6.272   5.696  0.00  0.00    -0.324 N 
ATOM     12  H   UNL     1      -6.914   7.022   5.179  0.00  0.00    +0.145 HD
ATOM     13  H   UNL     1      -7.799   6.428   6.477  0.00  0.00    +0.145 HD
ENDBRANCH   6   9
BRANCH   5  14
ATOM     14  N   UNL     1      -6.205   2.340   4.430  0.00  0.00    -0.355 N 
ATOM     15  H   UNL     1      -5.948   1.460   4.112  0.00  0.00    +0.142 HD
ATOM     16  H   UNL     1      -6.761   2.427   5.220  0.00  0.00    +0.142 HD
ENDBRANCH   5  14
ENDBRANCH   2   4
BRANCH   1  17
ATOM     17  C   UNL     1      -3.097   3.820   0.552  0.00  0.00    +0.147 C 
BRANCH  17  22
ATOM     18  C   UNL     1      -3.332   4.711  -3.109  0.00  0.00    +0.000 A 
ATOM     19  C   UNL     1      -4.687   4.943  -3.252  0.00  0.00    +0.003 A 
ATOM     20  C   UNL     1      -5.529   4.811  -2.164  0.00  0.00    +0.038 A 
ATOM     21  C   UNL     1      -5.015   4.448  -0.931  0.00  0.00    +0.128 A 
ATOM     22  C   UNL     1      -3.658   4.216  -0.789  0.00  0.00    +0.005 A 
ATOM     23  C   UNL     1      -2.817   4.353  -1.878  0.00  0.00    +0.008 A 
ATOM     24  F   UNL     1      -5.838   4.320   0.133  0.00  0.00    -0.205 F 
ENDBRANCH  17  22
ENDBRANCH   1  17
BRANCH   1  25
ATOM     25  C   UNL     1      -3.044   1.317   0.139  0.00  0.00    +0.229 C 
BRANCH  25  26
ATOM     26  C   UNL     1      -1.552   1.444  -0.033  0.00  0.00    +0.134 A 
ATOM     27  C   UNL     1      -0.662   0.439   0.057  0.00  0.00    +0.047 A 
ATOM     28  C   UNL     1       0.614   1.001  -0.176  0.00  0.00    +0.041 A 
ATOM     29  C   UNL     1       0.428   2.317  -0.389  0.00  0.00    +0.195 A 
ATOM     30  O   UNL     1      -0.886   2.579  -0.298  0.00  0.00    -0.465 OA
ENDBRANCH  25  26
BRANCH  25  31
ATOM     31  C   UNL     1      -3.704   1.273  -1.216  0.00  0.00    +0.241 C 
ATOM     32  O   UNL     1      -4.573   2.072  -1.493  0.00  0.00    -0.273 OA
ATOM     33  N   UNL     1      -3.328   0.345  -2.118  0.00  0.00    -0.311 N 
ATOM     34  H   UNL     1      -2.633  -0.294  -1.896  0.00  0.00    +0.149 HD
BRANCH  33  35
ATOM     35  C   UNL     1      -3.969   0.303  -3.435  0.00  0.00    +0.073 C 
ATOM     36  C   UNL     1      -5.234  -0.580  -3.378  0.00  0.00    +0.022 C 
ATOM     37  C   UNL     1      -5.249  -1.310  -4.744  0.00  0.00    +0.002 C 
ATOM     38  C   UNL     1      -3.748  -1.603  -4.992  0.00  0.00    +0.002 C 
ATOM     39  C   UNL     1      -3.025  -0.348  -4.460  0.00  0.00    +0.022 C 
ENDBRANCH  33  35
ENDBRANCH  25  31
ENDBRANCH   1  25
TORSDOF 9
