REMARK  Name = ZINC01719085
REMARK  8 active torsions:
REMARK  status: ('A' for Active; 'I' for Inactive)
REMARK    1  A    between atoms: C_1  and  O_2
REMARK    2  A    between atoms: O_2  and  C_3
REMARK    3  A    between atoms: C_3  and  C_5
REMARK    4  A    between atoms: C_5  and  N_10
REMARK    5  A    between atoms: C_11  and  C_13
REMARK    6  A    between atoms: C_13  and  N_18
REMARK    7  A    between atoms: C_19  and  C_21
REMARK    8  A    between atoms: C_21  and  N_26
REMARK                            x       y       z     vdW  Elec       q    Type
REMARK                         _______ _______ _______ _____ _____    ______ ____
ROOT
ATOM      1  N   UNL     1       1.356  -3.745   3.345  0.00  0.00    -0.300 N 
ATOM      2  C   UNL     1       2.462  -4.287   2.798  0.00  0.00    +0.238 C 
ATOM      3  O   UNL     1       3.459  -3.612   2.652  0.00  0.00    -0.273 OA
ATOM      4  H   UNL     1       0.539  -4.266   3.404  0.00  0.00    +0.150 HD
ENDROOT
BRANCH   1   5
ATOM      5  C   UNL     1       1.387  -2.371   3.852  0.00  0.00    +0.111 C 
ATOM      6  C   UNL     1       2.488  -2.226   4.918  0.00  0.00    +0.035 C 
ATOM      7  C   UNL     1       1.784  -1.807   6.224  0.00  0.00    +0.003 C 
ATOM      8  C   UNL     1       0.328  -2.306   6.049  0.00  0.00    +0.003 C 
ATOM      9  C   UNL     1       0.052  -2.035   4.549  0.00  0.00    +0.035 C 
BRANCH   5  11
ATOM     10  N   UNL     1       1.124  -1.660   1.498  0.00  0.00    -0.298 N 
ATOM     11  C   UNL     1       1.635  -1.409   2.719  0.00  0.00    +0.237 C 
ATOM     12  O   UNL     1       2.294  -0.409   2.907  0.00  0.00    -0.273 OA
ATOM     13  H   UNL     1       0.638  -2.484   1.335  0.00  0.00    +0.150 HD
BRANCH  10  14
ATOM     14  C   UNL     1       1.302  -0.689   0.415  0.00  0.00    +0.132 C 
ATOM     15  C   UNL     1       0.594   0.645   0.759  0.00  0.00    +0.037 C 
ATOM     16  C   UNL     1      -0.883   0.352   0.396  0.00  0.00    +0.003 C 
ATOM     17  C   UNL     1      -0.795  -0.512  -0.879  0.00  0.00    +0.003 C 
ATOM     18  C   UNL     1       0.594  -1.174  -0.867  0.00  0.00    +0.037 C 
BRANCH  14  19
ATOM     19  C   UNL     1       2.767  -0.456   0.153  0.00  0.00    +0.331 C 
ATOM     20  O   UNL     1       3.148  -0.207  -0.966  0.00  0.00    -0.248 OA
BRANCH  19  22
ATOM     21  C   UNL     1       5.022  -0.294   0.842  0.00  0.00    +0.280 C 
ATOM     22  O   UNL     1       3.649  -0.526   1.163  0.00  0.00    -0.466 OA
ENDBRANCH  19  22
ENDBRANCH  14  19
ENDBRANCH  10  14
ENDBRANCH   5  11
ENDBRANCH   1   5
BRANCH   2  23
ATOM     23  C   UNL     1       2.460  -5.731   2.367  0.00  0.00    +0.121 C 
ATOM     24  C   UNL     1       1.726  -5.880   1.023  0.00  0.00    +0.036 C 
ATOM     25  C   UNL     1       2.751  -6.449   0.021  0.00  0.00    +0.003 C 
ATOM     26  C   UNL     1       3.799  -7.161   0.913  0.00  0.00    +0.003 C 
ATOM     27  C   UNL     1       3.906  -6.215   2.135  0.00  0.00    +0.036 C 
BRANCH  23  28
ATOM     28  N   UNL     1       1.812  -6.558   3.388  0.00  0.00    -0.219 N 
ATOM     29  C   UNL     1       1.354  -7.806   3.180  0.00  0.00    +0.255 C 
ATOM     30  O   UNL     1       1.412  -8.416   2.131  0.00  0.00    -0.270 OA
ATOM     31  C   UNL     1       0.770  -8.310   4.440  0.00  0.00    +0.049 A 
ATOM     32  C   UNL     1       0.164  -9.497   4.819  0.00  0.00    +0.014 A 
ATOM     33  C   UNL     1      -0.288  -9.653   6.120  0.00  0.00    +0.001 A 
ATOM     34  C   UNL     1      -0.138  -8.633   7.041  0.00  0.00    +0.001 A 
ATOM     35  C   UNL     1       0.467  -7.441   6.677  0.00  0.00    +0.014 A 
ATOM     36  C   UNL     1       0.923  -7.270   5.380  0.00  0.00    +0.049 A 
ATOM     37  C   UNL     1       1.600  -6.171   4.659  0.00  0.00    +0.255 C 
ATOM     38  O   UNL     1       1.912  -5.098   5.135  0.00  0.00    -0.270 OA
ENDBRANCH  23  28
ENDBRANCH   2  23
TORSDOF 7
