REMARK  Name = ZINC29961932
REMARK  13 active torsions:
REMARK  status: ('A' for Active; 'I' for Inactive)
REMARK    1  A    between atoms: C_1  and  C_2
REMARK    2  A    between atoms: C_2  and  C_23
REMARK    3  A    between atoms: N_5  and  C_9
REMARK    4  A    between atoms: C_9  and  C_10
REMARK    5  A    between atoms: N_12  and  C_13
REMARK    6  A    between atoms: C_13  and  C_14
REMARK    7  A    between atoms: C_14  and  C_15
REMARK    8  A    between atoms: C_14  and  C_16
REMARK    9  A    between atoms: C_14  and  N_17
REMARK   10  A    between atoms: C_26  and  C_29
REMARK   11  A    between atoms: C_29  and  C_30
REMARK   12  A    between atoms: C_29  and  C_31
REMARK   13  A    between atoms: C_29  and  C_32
REMARK                            x       y       z     vdW  Elec       q    Type
REMARK                         _______ _______ _______ _____ _____    ______ ____
ROOT
ATOM      1  C   UNL     1      -6.372   1.757  -2.866  0.00  0.00    +0.047 C 
ATOM      2  C   UNL     1      -5.178   2.421  -2.176  0.00  0.00    +0.135 C 
ATOM      3  C   UNL     1      -3.932   1.572  -2.331  0.00  0.00    +0.251 C 
ATOM      4  O   UNL     1      -3.383   1.260  -3.365  0.00  0.00    -0.272 OA
ATOM      5  N   UNL     1      -3.562   1.237  -1.079  0.00  0.00    -0.215 N 
ATOM      6  C   UNL     1      -4.395   1.746  -0.165  0.00  0.00    +0.310 C 
ATOM      7  O   UNL     1      -4.270   1.577   1.032  0.00  0.00    -0.252 OA
ATOM      8  N   UNL     1      -5.385   2.470  -0.718  0.00  0.00    -0.281 N 
ATOM      9  H   UNL     1      -6.233   3.033  -0.301  0.00  0.00    +0.152 HD
ENDROOT
BRANCH   2  10
ATOM     10  C   UNL     1      -4.949   3.805  -2.726  0.00  0.00    -0.015 A 
ATOM     11  C   UNL     1      -4.060   3.997  -3.767  0.00  0.00    +0.006 A 
ATOM     12  C   UNL     1      -3.853   5.266  -4.274  0.00  0.00    +0.004 A 
ATOM     13  C   UNL     1      -4.526   6.345  -3.734  0.00  0.00    -0.042 A 
ATOM     14  C   UNL     1      -5.411   6.154  -2.689  0.00  0.00    +0.004 A 
ATOM     15  C   UNL     1      -5.622   4.885  -2.185  0.00  0.00    +0.006 A 
BRANCH  13  16
ATOM     16  C   UNL     1      -4.296   7.729  -4.283  0.00  0.00    -0.013 C 
ATOM     17  C   UNL     1      -3.758   8.635  -3.173  0.00  0.00    +0.015 C 
ATOM     18  C   UNL     1      -3.279   7.662  -5.424  0.00  0.00    +0.015 C 
ATOM     19  C   UNL     1      -5.616   8.296  -4.809  0.00  0.00    +0.015 C 
ENDBRANCH  13  16
ENDBRANCH   2  10
BRANCH   5  20
ATOM     20  C   UNL     1      -2.395   0.411  -0.760  0.00  0.00    +0.213 C 
BRANCH  20  21
ATOM     21  C   UNL     1      -1.189   1.295  -0.576  0.00  0.00    +0.231 C 
ATOM     22  O   UNL     1      -1.294   2.497  -0.699  0.00  0.00    -0.274 OA
ATOM     23  N   UNL     1       0.007   0.751  -0.274  0.00  0.00    -0.312 N 
ATOM     24  H   UNL     1       0.101  -0.339  -0.157  0.00  0.00    +0.149 HD
BRANCH  23  25
ATOM     25  C   UNL     1       1.180   1.610  -0.101  0.00  0.00    +0.126 C 
BRANCH  25  26
ATOM     26  C   UNL     1       2.422   0.741   0.109  0.00  0.00    +0.032 C 
ATOM     27  C   UNL     1       2.703  -0.062  -1.163  0.00  0.00    +0.029 C 
ATOM     28  C   UNL     1       3.623   1.635   0.423  0.00  0.00    +0.029 C 
BRANCH  26  29
ATOM     29  N   UNL     1       2.191  -0.180   1.229  0.00  0.00    -0.291 NA
ATOM     30  C   UNL     1       1.864   0.556   2.458  0.00  0.00    +0.113 C 
ATOM     31  C   UNL     1       1.574  -0.441   3.583  0.00  0.00    +0.175 C 
ATOM     32  O   UNL     1       2.702  -1.303   3.752  0.00  0.00    -0.377 OA
ATOM     33  C   UNL     1       3.048  -2.037   2.574  0.00  0.00    +0.175 C 
ATOM     34  C   UNL     1       3.354  -1.055   1.440  0.00  0.00    +0.113 C 
ENDBRANCH  26  29
ENDBRANCH  25  26
ENDBRANCH  23  25
ENDBRANCH  20  21
ENDBRANCH   5  20
TORSDOF 7
