REMARK  Name = ZINC14463844
REMARK  3 active torsions:
REMARK  status: ('A' for Active; 'I' for Inactive)
REMARK    1  A    between atoms: C_10  and  C_11
REMARK    2  A    between atoms: C_21  and  N_28
REMARK    3  A    between atoms: C_24  and  O_27
REMARK                            x       y       z     vdW  Elec       q    Type
REMARK                         _______ _______ _______ _____ _____    ______ ____
ROOT
ATOM      1  C   UNL     1      -1.422   5.996   0.046  0.00  0.00    +0.106 C 
ATOM      2  C   UNL     1      -1.942   6.145  -1.386  0.00  0.00    +0.029 C 
ATOM      3  C   UNL     1      -1.940   4.736  -2.042  0.00  0.00    +0.033 C 
ATOM      4  C   UNL     1      -0.504   4.557  -2.493  0.00  0.00    -0.030 C 
ATOM      5  C   UNL     1       0.091   5.718  -2.607  0.00  0.00    -0.023 C 
ATOM      6  C   UNL     1      -0.858   6.836  -2.241  0.00  0.00    +0.051 C 
ATOM      7  C   UNL     1      -0.144   7.905  -1.468  0.00  0.00    +0.014 A 
ATOM      8  C   UNL     1       0.747   8.722  -2.155  0.00  0.00    +0.132 A 
ATOM      9  C   UNL     1       1.436   9.721  -1.502  0.00  0.00    +0.037 A 
ATOM     10  C   UNL     1       1.246   9.922  -0.146  0.00  0.00    +0.049 A 
ATOM     11  C   UNL     1       0.362   9.117   0.548  0.00  0.00    +0.138 A 
ATOM     12  C   UNL     1      -0.339   8.103  -0.114  0.00  0.00    +0.076 A 
ATOM     13  N   UNL     1      -1.225   7.323   0.632  0.00  0.00    -0.334 N 
ATOM     14  H   UNL     1      -1.751   7.598   1.558  0.00  0.00    +0.147 HD
ENDROOT
BRANCH   1  24
ATOM     15  C   UNL     1       0.003   1.094   0.418  0.00  0.00    +0.001 A 
ATOM     16  C   UNL     1      -1.220   1.764   0.430  0.00  0.00    +0.001 A 
ATOM     17  C   UNL     1      -1.278   3.118   0.311  0.00  0.00    +0.009 A 
ATOM     18  C   UNL     1      -0.090   3.855   0.163  0.00  0.00    -0.013 A 
ATOM     19  C   UNL     1       1.152   3.174   0.145  0.00  0.00    -0.018 A 
ATOM     20  C   UNL     1       1.173   1.774   0.276  0.00  0.00    +0.008 A 
ATOM     21  C   UNL     1       2.340   3.910  -0.004  0.00  0.00    +0.008 A 
ATOM     22  C   UNL     1       2.281   5.264  -0.129  0.00  0.00    +0.001 A 
ATOM     23  C   UNL     1       1.059   5.934  -0.112  0.00  0.00    +0.006 A 
ATOM     24  C   UNL     1      -0.111   5.253   0.031  0.00  0.00    -0.019 A 
ENDBRANCH   1  24
BRANCH   8  25
ATOM     25  N   UNL     1       0.959   8.515  -3.606  0.00  0.00    +0.057 N 
ATOM     26  O   UNL     1       1.738   9.226  -4.215  0.00  0.00    -0.126 OA
ATOM     27  O   UNL     1       0.354   7.634  -4.190  0.00  0.00    -0.126 OA
ENDBRANCH   8  25
BRANCH  11  28
ATOM     28  O   UNL     1       0.172   9.311   1.881  0.00  0.00    -0.505 OA
ATOM     29  H   UNL     1      -0.530   8.672   2.435  0.00  0.00    +0.292 HD
ENDBRANCH  11  28
TORSDOF 3
