REMARK  Name = ZINC24213445
REMARK  11 active torsions:
REMARK  status: ('A' for Active; 'I' for Inactive)
REMARK    1  A    between atoms: C_1  and  O_2
REMARK    2  A    between atoms: O_2  and  C_3
REMARK    3  A    between atoms: C_3  and  C_4
REMARK    4  A    between atoms: C_4  and  N_5
REMARK    5  A    between atoms: C_6  and  C_8
REMARK    6  A    between atoms: C_12  and  N_13
REMARK    7  A    between atoms: C_14  and  C_16
REMARK    8  A    between atoms: C_16  and  N_17
REMARK    9  A    between atoms: C_21  and  C_23
REMARK   10  A    between atoms: C_26  and  O_29
REMARK   11  A    between atoms: O_29  and  C_30
REMARK                            x       y       z     vdW  Elec       q    Type
REMARK                         _______ _______ _______ _____ _____    ______ ____
ROOT
ATOM      1  N   UNL     1       1.143   1.899   0.012  0.00  0.00    -0.281 N 
ATOM      2  C   UNL     1      -0.015   1.210   0.018  0.00  0.00    +0.201 C 
ATOM      3  O   UNL     1       0.002  -0.003   0.022  0.00  0.00    -0.278 OA
ATOM      4  H   UNL     1       1.128   2.999   0.008  0.00  0.00    +0.155 HD
ENDROOT
BRANCH   1   9
ATOM      5  C   UNL     1       3.636   1.751   0.003  0.00  0.00    +0.069 A 
ATOM      6  C   UNL     1       4.748   0.815   0.003  0.00  0.00    -0.023 A 
ATOM      7  C   UNL     1       4.401  -0.490   0.009  0.00  0.00    -0.004 A 
ATOM      8  S   UNL     1       2.630  -0.488   0.022  0.00  0.00    -0.077 S 
ATOM      9  C   UNL     1       2.353   1.223   0.010  0.00  0.00    +0.084 A 
ATOM     10  C   UNL     1       5.323  -1.670   0.009  0.00  0.00    +0.043 C 
ATOM     11  C   UNL     1       6.729  -1.186  -0.375  0.00  0.00    +0.005 C 
ATOM     12  C   UNL     1       7.067   0.055   0.457  0.00  0.00    +0.005 C 
ATOM     13  C   UNL     1       6.212   1.238  -0.002  0.00  0.00    +0.037 C 
BRANCH   5  15
ATOM     14  N   UNL     1       3.962   3.861  -1.174  0.00  0.00    -0.309 N 
ATOM     15  C   UNL     1       3.862   3.200  -0.004  0.00  0.00    +0.247 C 
ATOM     16  O   UNL     1       3.960   3.805   1.048  0.00  0.00    -0.270 OA
ATOM     17  H   UNL     1       3.873   3.313  -2.124  0.00  0.00    +0.149 HD
BRANCH  14  18
ATOM     18  C   UNL     1       4.187   5.308  -1.180  0.00  0.00    +0.132 C 
BRANCH  18  19
ATOM     19  C   UNL     1       4.261   5.806  -2.625  0.00  0.00    +0.178 C 
BRANCH  19  21
ATOM     20  C   UNL     1       2.954   6.053  -4.619  0.00  0.00    +0.194 C 
ATOM     21  O   UNL     1       2.993   5.618  -3.259  0.00  0.00    -0.381 OA
ENDBRANCH  19  21
ENDBRANCH  18  19
ENDBRANCH  14  18
ENDBRANCH   5  15
ENDBRANCH   1   9
BRANCH   2  22
ATOM     22  C   UNL     1      -1.330   1.945   0.015  0.00  0.00    +0.020 C 
BRANCH  22  23
ATOM     23  N   UNL     1      -2.434   0.975   0.016  0.00  0.00    +0.390 N 
ATOM     24  C   UNL     1      -2.591   0.350  -1.314  0.00  0.00    -0.077 C 
ATOM     25  C   UNL     1      -4.114   0.104  -1.457  0.00  0.00    -0.020 C 
ATOM     26  C   UNL     1      -4.701   1.362  -0.765  0.00  0.00    -0.013 C 
ATOM     27  C   UNL     1      -3.706   1.623   0.385  0.00  0.00    -0.037 C 
ATOM     28  H   UNL     1      -2.181   0.207   0.762  0.00  0.00    -0.080 HD
BRANCH  27  29
ATOM     29  C   UNL     1      -3.496   3.105   0.555  0.00  0.00    -0.061 A 
ATOM     30  C   UNL     1      -3.671   3.689   1.796  0.00  0.00    +0.005 A 
ATOM     31  C   UNL     1      -3.474   5.047   1.956  0.00  0.00    +0.046 A 
ATOM     32  C   UNL     1      -3.111   5.827   0.867  0.00  0.00    +0.120 A 
ATOM     33  C   UNL     1      -2.942   5.240  -0.378  0.00  0.00    +0.046 A 
ATOM     34  C   UNL     1      -3.134   3.880  -0.531  0.00  0.00    +0.005 A 
BRANCH  32  35
ATOM     35  O   UNL     1      -2.923   7.164   1.020  0.00  0.00    -0.495 OA
ATOM     36  C   UNL     1      -3.115   7.700   2.331  0.00  0.00    +0.277 C 
ENDBRANCH  32  35
ENDBRANCH  27  29
ENDBRANCH  22  23
ENDBRANCH   2  22
TORSDOF 9
