REMARK  Name = ZINC40815797
REMARK  9 active torsions:
REMARK  status: ('A' for Active; 'I' for Inactive)
REMARK    1  A    between atoms: C_1  and  C_2
REMARK    2  A    between atoms: C_6  and  C_7
REMARK    3  A    between atoms: N_9  and  C_10
REMARK    4  A    between atoms: C_15  and  C_16
REMARK    5  A    between atoms: C_16  and  O_18
REMARK    6  A    between atoms: O_18  and  C_19
REMARK    7  A    between atoms: N_24  and  N_25
REMARK    8  A    between atoms: C_26  and  C_28
REMARK    9  A    between atoms: C_28  and  C_29
REMARK                            x       y       z     vdW  Elec       q    Type
REMARK                         _______ _______ _______ _____ _____    ______ ____
ROOT
ATOM      1  C   UNL     1      -0.024   1.500   0.010  0.00  0.00    +0.048 C 
ATOM      2  C   UNL     1       0.013  -0.006   0.002  0.00  0.00    +0.009 A 
ATOM      3  C   UNL     1       0.036  -0.840  -1.123  0.00  0.00    +0.042 A 
ATOM      4  C   UNL     1       0.066  -2.139  -0.672  0.00  0.00    +0.115 A 
ATOM      5  O   UNL     1       0.065  -2.114   0.658  0.00  0.00    -0.454 OA
ATOM      6  C   UNL     1       0.037  -0.832   1.091  0.00  0.00    +0.193 A 
ATOM      7  C   UNL     1       0.091  -3.328  -1.599  0.00  0.00    +0.075 C 
ATOM      8  C   UNL     1      -0.430  -2.910  -2.977  0.00  0.00    +0.014 C 
ATOM      9  C   UNL     1       0.331  -1.684  -3.493  0.00  0.00    +0.058 C 
ATOM     10  C   UNL     1       0.033  -0.514  -2.566  0.00  0.00    +0.070 C 
ATOM     11  N   UNL     1      -0.206   0.681  -3.009  0.00  0.00    -0.184 NA
ENDROOT
BRANCH   6  12
ATOM     12  C   UNL     1       0.031  -0.402   2.493  0.00  0.00    +0.284 C 
ATOM     13  O   UNL     1       0.002   0.784   2.765  0.00  0.00    -0.266 OA
ATOM     14  N   UNL     1       0.057  -1.319   3.480  0.00  0.00    -0.278 N 
ATOM     15  H   UNL     1      -0.002  -2.264   3.266  0.00  0.00    +0.155 HD
BRANCH  14  16
ATOM     16  C   UNL     1       0.167  -0.912   4.806  0.00  0.00    +0.048 A 
ATOM     17  C   UNL     1       0.759   0.306   5.115  0.00  0.00    +0.024 A 
ATOM     18  C   UNL     1       0.868   0.708   6.431  0.00  0.00    +0.002 A 
ATOM     19  C   UNL     1       0.390  -0.098   7.452  0.00  0.00    +0.001 A 
ATOM     20  C   UNL     1      -0.200  -1.309   7.165  0.00  0.00    +0.017 A 
ATOM     21  C   UNL     1      -0.324  -1.727   5.837  0.00  0.00    +0.080 A 
BRANCH  21  22
ATOM     22  C   UNL     1      -0.959  -3.019   5.523  0.00  0.00    +0.341 C 
ATOM     23  O   UNL     1      -0.979  -3.423   4.377  0.00  0.00    -0.245 OA
BRANCH  22  24
ATOM     24  O   UNL     1      -1.517  -3.753   6.506  0.00  0.00    -0.464 OA
ATOM     25  C   UNL     1      -2.115  -4.995   6.129  0.00  0.00    +0.280 C 
ENDBRANCH  22  24
ENDBRANCH  21  22
ENDBRANCH  14  16
ENDBRANCH   6  12
BRANCH  11  26
ATOM     26  N   UNL     1      -0.195   0.933  -4.387  0.00  0.00    -0.206 N 
ATOM     27  C   UNL     1      -0.443   2.175  -4.848  0.00  0.00    +0.237 C 
ATOM     28  O   UNL     1      -0.676   3.075  -4.069  0.00  0.00    -0.274 OA
ATOM     29  H   UNL     1      -0.009   0.213  -5.010  0.00  0.00    +0.177 HD
BRANCH  27  30
ATOM     30  C   UNL     1      -0.432   2.446  -6.330  0.00  0.00    +0.132 C 
BRANCH  30  31
ATOM     31  C   UNL     1      -0.737   3.901  -6.578  0.00  0.00    -0.039 A 
ATOM     32  C   UNL     1      -2.045   4.315  -6.741  0.00  0.00    +0.004 A 
ATOM     33  C   UNL     1      -2.325   5.649  -6.968  0.00  0.00    +0.000 A 
ATOM     34  C   UNL     1      -1.295   6.570  -7.031  0.00  0.00    +0.000 A 
ATOM     35  C   UNL     1       0.013   6.156  -6.867  0.00  0.00    +0.000 A 
ATOM     36  C   UNL     1       0.292   4.822  -6.636  0.00  0.00    +0.004 A 
ENDBRANCH  30  31
ENDBRANCH  27  30
ENDBRANCH  11  26
TORSDOF 7
