REMARK  Name = ZINC04920452
REMARK  5 active torsions:
REMARK  status: ('A' for Active; 'I' for Inactive)
REMARK    1  A    between atoms: C_1  and  N_2
REMARK    2  A    between atoms: N_2  and  C_3
REMARK    3  A    between atoms: C_10  and  C_12
REMARK    4  A    between atoms: C_12  and  C_13
REMARK    5  A    between atoms: CA_22  and  C_23
REMARK                            x       y       z     vdW  Elec       q    Type
REMARK                         _______ _______ _______ _____ _____    ______ ____
ROOT
ATOM      1  C   UNL     1       0.085   1.498  -0.001  0.00  0.00    +0.001 A 
ATOM      2  C   UNL     1       1.245   2.308  -0.019  0.00  0.00    +0.005 A 
ATOM      3  C   UNL     1       2.617   2.023  -0.045  0.00  0.00    +0.030 A 
ATOM      4  C   UNL     1       3.522   3.044  -0.058  0.00  0.00    +0.042 A 
ATOM      5  C   UNL     1       3.096   4.368  -0.048  0.00  0.00    +0.022 A 
ATOM      6  C   UNL     1       1.754   4.673  -0.023  0.00  0.00    +0.027 A 
ATOM      7  C   UNL     1       0.811   3.648  -0.009  0.00  0.00    +0.047 A 
ATOM      8  N   UNL     1      -0.563   3.635   0.016  0.00  0.00    -0.349 N 
ATOM      9  H   UNL     1      -1.135   4.418   0.028  0.00  0.00    +0.166 HD
ATOM     10  CA  UNL     1      -0.996   2.322   0.014  0.00  0.00    +0.133 A 
ATOM     11 CL   UNL     1       5.221   2.688  -0.090  0.00  0.00    -0.084 Cl
ENDROOT
BRANCH  10  12
ATOM     12  C   UNL     1      -2.399   1.888   0.030  0.00  0.00    +0.403 C 
ATOM     13  O   UNL     1      -2.668   0.703   0.030  0.00  0.00    -0.239 OA
ATOM     14  OXT UNL     1      -3.388   2.804   0.044  0.00  0.00    -0.239 OA
ENDBRANCH  10  12
BRANCH   1  15
ATOM     15  C   UNL     1       0.052  -0.009  -0.004  0.00  0.00    +0.134 C 
BRANCH  15  18
ATOM     16  C   UNL     1      -0.114  -2.786   0.551  0.00  0.00    +0.138 C 
ATOM     17  N   UNL     1       0.043  -1.840   1.659  0.00  0.00    -0.274 N 
ATOM     18  C   UNL     1       0.067  -0.515   1.415  0.00  0.00    +0.224 C 
ATOM     19  O   UNL     1       0.100   0.271   2.339  0.00  0.00    -0.275 OA
BRANCH  17  20
ATOM     20  C   UNL     1       0.167  -2.313   2.970  0.00  0.00    +0.036 A 
ATOM     21  C   UNL     1       1.294  -3.033   3.346  0.00  0.00    +0.025 A 
ATOM     22  C   UNL     1       1.417  -3.494   4.642  0.00  0.00    +0.022 A 
ATOM     23  C   UNL     1       0.413  -3.249   5.563  0.00  0.00    +0.041 A 
ATOM     24  C   UNL     1      -0.713  -2.536   5.190  0.00  0.00    +0.022 A 
ATOM     25  C   UNL     1      -0.838  -2.068   3.897  0.00  0.00    +0.025 A 
ATOM     26 CL   UNL     1       0.567  -3.836   7.189  0.00  0.00    -0.084 Cl
ENDBRANCH  17  20
ENDBRANCH  15  18
ENDBRANCH   1  15
TORSDOF 4
