REMARK  Name = ZINC20868966
REMARK  9 active torsions:
REMARK  status: ('A' for Active; 'I' for Inactive)
REMARK    1  A    between atoms: C_1  and  O_2
REMARK    2  A    between atoms: O_2  and  C_3
REMARK    3  A    between atoms: C_6  and  C_9
REMARK    4  A    between atoms: C_22  and  C_23
REMARK    5  A    between atoms: C_23  and  O_25
REMARK    6  A    between atoms: O_25  and  C_26
REMARK    7  A    between atoms: C_26  and  C_27
REMARK    8  A    between atoms: N_32  and  C_33
REMARK    9  A    between atoms: C_33  and  C_34
REMARK                            x       y       z     vdW  Elec       q    Type
REMARK                         _______ _______ _______ _____ _____    ______ ____
ROOT
ATOM      1  C   UNL     1      -4.751   3.852   2.909  0.00  0.00    +0.013 C 
ATOM      2  C   UNL     1      -3.651   3.162   2.559  0.00  0.00    -0.021 C 
ATOM      3  C   UNL     1      -2.658   2.541   3.509  0.00  0.00    +0.042 C 
ATOM      4  C   UNL     1      -1.599   1.875   2.620  0.00  0.00    +0.043 C 
ATOM      5  C   UNL     1      -2.019   2.136   1.194  0.00  0.00    -0.007 A 
ATOM      6  C   UNL     1      -3.209   2.883   1.179  0.00  0.00    +0.072 A 
ATOM      7  N   UNL     1      -3.781   3.240   0.033  0.00  0.00    -0.247 NA
ATOM      8  C   UNL     1      -3.277   2.921  -1.157  0.00  0.00    +0.072 A 
ATOM      9  C   UNL     1      -3.915   3.319  -2.347  0.00  0.00    +0.028 A 
ATOM     10  C   UNL     1      -3.366   2.994  -3.549  0.00  0.00    +0.002 A 
ATOM     11  C   UNL     1      -2.188   2.255  -3.626  0.00  0.00    +0.001 A 
ATOM     12  C   UNL     1      -1.545   1.847  -2.494  0.00  0.00    +0.011 A 
ATOM     13  C   UNL     1      -2.075   2.175  -1.242  0.00  0.00    +0.015 A 
ATOM     14  C   UNL     1      -1.422   1.760  -0.000  0.00  0.00    +0.073 A 
ENDROOT
BRANCH   1  18
ATOM     15  C   UNL     1      -5.886   4.107   6.990  0.00  0.00    +0.120 A 
ATOM     16  C   UNL     1      -4.663   3.544   6.645  0.00  0.00    +0.046 A 
ATOM     17  C   UNL     1      -4.290   3.459   5.322  0.00  0.00    +0.011 A 
ATOM     18  C   UNL     1      -5.145   3.940   4.325  0.00  0.00    -0.024 A 
ATOM     19  C   UNL     1      -6.372   4.511   4.678  0.00  0.00    +0.011 A 
ATOM     20  C   UNL     1      -6.738   4.587   6.003  0.00  0.00    +0.046 A 
BRANCH  15  22
ATOM     21  C   UNL     1      -7.519   4.779   8.581  0.00  0.00    +0.277 C 
ATOM     22  O   UNL     1      -6.249   4.189   8.296  0.00  0.00    -0.495 OA
ENDBRANCH  15  22
ENDBRANCH   1  18
BRANCH  14  23
ATOM     23  C   UNL     1      -0.170   0.975  -0.018  0.00  0.00    +0.341 C 
ATOM     24  O   UNL     1      -0.214  -0.238  -0.023  0.00  0.00    -0.245 OA
BRANCH  23  25
ATOM     25  O   UNL     1       1.020   1.606  -0.033  0.00  0.00    -0.452 OA
BRANCH  25  26
ATOM     26  C   UNL     1       2.208   0.771  -0.055  0.00  0.00    +0.328 C 
BRANCH  26  27
ATOM     27  C   UNL     1       3.436   1.645  -0.070  0.00  0.00    +0.258 C 
ATOM     28  O   UNL     1       3.321   2.852  -0.062  0.00  0.00    -0.272 OA
ATOM     29  N   UNL     1       4.662   1.085  -0.091  0.00  0.00    -0.237 N 
ATOM     30  C   UNL     1       5.759   1.867  -0.104  0.00  0.00    +0.306 C 
ATOM     31  O   UNL     1       5.644   3.077  -0.096  0.00  0.00    -0.252 OA
ATOM     32  N   UNL     1       6.985   1.307  -0.126  0.00  0.00    -0.296 N 
ATOM     33  H   UNL     1       4.766  -0.010  -0.099  0.00  0.00    +0.159 HD
ATOM     34  H   UNL     1       7.089   0.212  -0.133  0.00  0.00    +0.151 HD
BRANCH  32  35
ATOM     35  C   UNL     1       8.178   2.157  -0.140  0.00  0.00    +0.132 C 
BRANCH  35  36
ATOM     36  C   UNL     1       9.412   1.290  -0.164  0.00  0.00    -0.016 C 
ATOM     37  C   UNL     1      10.307   1.451  -1.106  0.00  0.00    +0.005 C 
ENDBRANCH  35  36
ENDBRANCH  32  35
ENDBRANCH  26  27
ENDBRANCH  25  26
ENDBRANCH  23  25
ENDBRANCH  14  23
TORSDOF 8
