REMARK  Name = ZINC41584099
REMARK  14 active torsions:
REMARK  status: ('A' for Active; 'I' for Inactive)
REMARK    1  A    between atoms: C_1  and  C_2
REMARK    2  A    between atoms: C_2  and  C_3
REMARK    3  A    between atoms: C_3  and  C_4
REMARK    4  A    between atoms: C_4  and  N_5
REMARK    5  A    between atoms: N_5  and  C_6
REMARK    6  A    between atoms: N_5  and  C_7
REMARK    7  A    between atoms: C_7  and  C_8
REMARK    8  A    between atoms: C_9  and  O_30
REMARK    9  A    between atoms: C_17  and  C_20
REMARK   10  A    between atoms: C_18  and  C_19
REMARK   11  A    between atoms: C_23  and  O_28
REMARK   12  A    between atoms: C_24  and  O_26
REMARK   13  A    between atoms: O_26  and  C_27
REMARK   14  A    between atoms: O_28  and  C_29
REMARK                            x       y       z     vdW  Elec       q    Type
REMARK                         _______ _______ _______ _____ _____    ______ ____
ROOT
ATOM      1  C   UNL     1       1.939  -4.443  -3.842  0.00  0.00    +0.020 A 
ATOM      2  C   UNL     1       1.141  -4.571  -4.968  0.00  0.00    +0.122 A 
ATOM      3  C   UNL     1       1.687  -5.005  -6.174  0.00  0.00    +0.046 A 
ATOM      4  C   UNL     1       3.011  -5.323  -6.261  0.00  0.00    +0.015 A 
ATOM      5  C   UNL     1       3.829  -5.223  -5.127  0.00  0.00    +0.022 A 
ATOM      6  C   UNL     1       3.288  -4.750  -3.916  0.00  0.00    +0.144 A 
ATOM      7  O   UNL     1       4.090  -4.582  -2.836  0.00  0.00    -0.421 OA
ATOM      8  C   UNL     1       5.194  -5.362  -2.771  0.00  0.00    +0.345 A 
ATOM      9  O   UNL     1       5.576  -5.824  -1.711  0.00  0.00    -0.244 OA
ATOM     10  C   UNL     1       5.916  -5.635  -4.024  0.00  0.00    +0.070 A 
ATOM     11  C   UNL     1       5.201  -5.581  -5.193  0.00  0.00    -0.025 A 
ATOM     12  C   UNL     1       5.859  -5.879  -6.515  0.00  0.00    +0.045 C 
ENDROOT
BRANCH  10  13
ATOM     13  C   UNL     1       7.361  -5.965  -4.021  0.00  0.00    -0.007 A 
ATOM     14  C   UNL     1       7.791  -7.223  -4.443  0.00  0.00    +0.012 A 
ATOM     15  C   UNL     1       9.136  -7.529  -4.440  0.00  0.00    +0.050 A 
ATOM     16  C   UNL     1      10.063  -6.589  -4.018  0.00  0.00    +0.162 A 
ATOM     17  C   UNL     1       9.640  -5.331  -3.596  0.00  0.00    +0.162 A 
ATOM     18  C   UNL     1       8.293  -5.016  -3.603  0.00  0.00    +0.058 A 
BRANCH  17  19
ATOM     19  O   UNL     1      10.552  -4.410  -3.183  0.00  0.00    -0.491 OA
ATOM     20  C   UNL     1      10.047  -3.140  -2.764  0.00  0.00    +0.277 C 
ENDBRANCH  17  19
BRANCH  16  21
ATOM     21  O   UNL     1      11.388  -6.895  -4.016  0.00  0.00    -0.491 OA
ATOM     22  C   UNL     1      11.752  -8.204  -4.461  0.00  0.00    +0.277 C 
ENDBRANCH  16  21
ENDBRANCH  10  13
BRANCH   2  23
ATOM     23  O   UNL     1      -0.181  -4.271  -4.895  0.00  0.00    -0.506 OA
ATOM     24  H   UNL     1      -0.387  -3.348  -5.095  0.00  0.00    +0.292 HD
ENDBRANCH   2  23
BRANCH   1  25
ATOM     25  C   UNL     1       1.342  -3.966  -2.543  0.00  0.00    -0.036 C 
BRANCH  25  26
ATOM     26  N   UNL     1       1.427  -2.501  -2.474  0.00  0.00    +0.381 N 
ATOM     27  C   UNL     1       2.837  -2.094  -2.426  0.00  0.00    -0.096 C 
ATOM     28  H   UNL     1       0.988  -2.100  -3.289  0.00  0.00    -0.082 HD
BRANCH  26  29
ATOM     29  C   UNL     1       0.739  -2.027  -1.265  0.00  0.00    -0.079 C 
BRANCH  29  30
ATOM     30  C   UNL     1       0.718  -0.497  -1.257  0.00  0.00    -0.019 C 
BRANCH  30  32
ATOM     31  C   UNL     1      -0.019   1.526   0.010  0.00  0.00    +0.004 C 
ATOM     32  C   UNL     1       0.002  -0.004   0.002  0.00  0.00    -0.005 C 
ENDBRANCH  30  32
ENDBRANCH  29  30
ENDBRANCH  26  29
ENDBRANCH  25  26
ENDBRANCH   1  25
TORSDOF 9
