REMARK  Name = ZINC39674944
REMARK  7 active torsions:
REMARK  status: ('A' for Active; 'I' for Inactive)
REMARK    1  A    between atoms: C_1  and  C_2
REMARK    2  A    between atoms: C_4  and  C_33
REMARK    3  A    between atoms: N_5  and  C_7
REMARK    4  A    between atoms: C_7  and  C_8
REMARK    5  A    between atoms: C_8  and  N_9
REMARK    6  A    between atoms: C_10  and  C_12
REMARK    7  A    between atoms: C_23  and  C_25
REMARK                            x       y       z     vdW  Elec       q    Type
REMARK                         _______ _______ _______ _____ _____    ______ ____
ROOT
ATOM      1  C   UNL     1       2.853  -5.990   4.188  0.00  0.00    +0.100 C 
ATOM      2  C   UNL     1       2.163  -5.978   5.570  0.00  0.00    +0.121 C 
ATOM      3  N   UNL     1       3.021  -6.831   6.425  0.00  0.00    -0.296 N 
ATOM      4  C   UNL     1       4.404  -6.491   6.015  0.00  0.00    +0.115 C 
ATOM      5  C   UNL     1       4.325  -6.327   4.484  0.00  0.00    -0.004 C 
ATOM      6  C   UNL     1       5.230  -5.186   4.029  0.00  0.00    -0.010 C 
ATOM      7  C   UNL     1       6.691  -5.569   4.280  0.00  0.00    -0.082 C 
ATOM      8  N   UNL     1       7.011  -6.798   3.545  0.00  0.00    +0.379 N 
ATOM      9  C   UNL     1       6.201  -7.911   4.054  0.00  0.00    -0.082 C 
ATOM     10  C   UNL     1       4.719  -7.628   3.792  0.00  0.00    -0.010 C 
ATOM     11  C   UNL     1       2.631  -7.717   7.363  0.00  0.00    +0.247 C 
ATOM     12  O   UNL     1       1.452  -7.981   7.497  0.00  0.00    -0.270 OA
ATOM     13  H   UNL     1       6.815  -6.662   2.564  0.00  0.00    -0.086 HD
ATOM     14  H   UNL     1       7.989  -7.014   3.663  0.00  0.00    -0.086 HD
ENDROOT
BRANCH  11  15
ATOM     15  C   UNL     1       3.638  -8.367   8.229  0.00  0.00    +0.042 A 
ATOM     16  C   UNL     1       4.896  -7.788   8.397  0.00  0.00    +0.051 A 
ATOM     17  C   UNL     1       5.833  -8.400   9.207  0.00  0.00    +0.127 A 
ATOM     18  C   UNL     1       5.525  -9.586   9.853  0.00  0.00    +0.076 A 
ATOM     19  C   UNL     1       4.278 -10.166   9.690  0.00  0.00    +0.127 A 
ATOM     20  C   UNL     1       3.331  -9.559   8.886  0.00  0.00    +0.051 A 
ATOM     21  F   UNL     1       3.984 -11.323  10.323  0.00  0.00    -0.205 F 
ATOM     22  F   UNL     1       7.053  -7.841   9.370  0.00  0.00    -0.205 F 
ENDBRANCH  11  15
BRANCH   1  24
ATOM     23  N   UNL     1       2.704  -4.537   2.191  0.00  0.00    -0.313 N 
ATOM     24  C   UNL     1       2.746  -4.636   3.535  0.00  0.00    +0.218 C 
ATOM     25  O   UNL     1       2.698  -3.636   4.218  0.00  0.00    -0.275 OA
ATOM     26  H   UNL     1       2.743  -5.338   1.645  0.00  0.00    +0.149 HD
BRANCH  23  27
ATOM     27  C   UNL     1       2.600  -3.221   1.557  0.00  0.00    +0.127 C 
BRANCH  27  28
ATOM     28  C   UNL     1       2.571  -3.389   0.036  0.00  0.00    +0.162 C 
BRANCH  28  33
ATOM     29  C   UNL     1       0.613   0.771  -1.978  0.00  0.00    +0.067 C 
ATOM     30  C   UNL     1       1.589  -0.261  -1.475  0.00  0.00    +0.060 A 
ATOM     31  C   UNL     1       2.983  -0.160  -1.516  0.00  0.00    +0.047 A 
ATOM     32  C   UNL     1       3.498  -1.287  -0.971  0.00  0.00    +0.036 A 
ATOM     33  N   UNL     1       2.467  -2.072  -0.598  0.00  0.00    -0.267 N 
ATOM     34  N   UNL     1       1.278  -1.405  -0.920  0.00  0.00    -0.176 NA
ATOM     35  C   UNL     1       4.962  -1.606  -0.809  0.00  0.00    +0.065 C 
ENDBRANCH  28  33
ENDBRANCH  27  28
ENDBRANCH  23  27
ENDBRANCH   1  24
TORSDOF 5
