REMARK  Name = ZINC19634071
REMARK  14 active torsions:
REMARK  status: ('A' for Active; 'I' for Inactive)
REMARK    1  A    between atoms: C_1  and  C_2
REMARK    2  A    between atoms: C_2  and  C_3
REMARK    3  A    between atoms: C_3  and  C_5
REMARK    4  A    between atoms: C_3  and  O_6
REMARK    5  A    between atoms: O_6  and  C_7
REMARK    6  A    between atoms: C_7  and  C_9
REMARK    7  A    between atoms: C_10  and  C_36
REMARK    8  A    between atoms: C_14  and  C_16
REMARK    9  A    between atoms: C_21  and  O_22
REMARK   10  A    between atoms: O_22  and  C_23
REMARK   11  A    between atoms: C_26  and  C_32
REMARK   12  A    between atoms: C_28  and  C_31
REMARK   13  A    between atoms: C_32  and  O_34
REMARK   14  A    between atoms: O_34  and  C_35
REMARK                            x       y       z     vdW  Elec       q    Type
REMARK                         _______ _______ _______ _____ _____    ______ ____
ROOT
ATOM      1  C   UNL     1       1.133   2.059   0.002  0.00  0.00    +0.065 C 
ATOM      2  C   UNL     1      -0.017   1.363   0.009  0.00  0.00    +0.016 C 
ATOM      3  N   UNL     1       0.002  -0.004   0.002  0.00  0.00    -0.321 N 
ATOM      4  C   UNL     1       1.118  -0.684  -0.407  0.00  0.00    +0.016 C 
ATOM      5  C   UNL     1       2.321  -0.073  -0.432  0.00  0.00    +0.025 C 
ATOM      6  C   UNL     1       2.464   1.366  -0.006  0.00  0.00    +0.096 C 
ATOM      7  C   UNL     1       3.475  -0.760  -0.851  0.00  0.00    +0.176 C 
ATOM      8  O   UNL     1       4.540  -0.176  -0.877  0.00  0.00    -0.291 OA
ATOM      9  C   UNL     1       3.414  -2.204  -1.266  0.00  0.00    +0.171 C 
ATOM     10  C   UNL     1       2.258  -2.887  -0.526  0.00  0.00    +0.013 C 
ATOM     11  C   UNL     1       0.968  -2.124  -0.833  0.00  0.00    +0.055 C 
ATOM     12  C   UNL     1       2.526  -2.861   0.980  0.00  0.00    +0.009 C 
ATOM     13  C   UNL     1      -1.334   2.094   0.020  0.00  0.00    +0.061 C 
ATOM     14  H   UNL     1      -0.885  -0.568   0.327  0.00  0.00    +0.152 HD
ENDROOT
BRANCH   6  15
ATOM     15  C   UNL     1       3.055   1.415   1.380  0.00  0.00    +0.006 A 
ATOM     16  C   UNL     1       2.396   0.814   2.435  0.00  0.00    +0.008 A 
ATOM     17  C   UNL     1       2.938   0.859   3.706  0.00  0.00    +0.001 A 
ATOM     18  C   UNL     1       4.141   1.505   3.924  0.00  0.00    +0.004 A 
ATOM     19  C   UNL     1       4.804   2.107   2.873  0.00  0.00    +0.046 A 
ATOM     20  C   UNL     1       4.264   2.060   1.595  0.00  0.00    +0.124 A 
BRANCH  20  21
ATOM     21  O   UNL     1       4.917   2.647   0.558  0.00  0.00    -0.495 OA
ATOM     22  C   UNL     1       6.157   3.293   0.855  0.00  0.00    +0.277 C 
ENDBRANCH  20  21
ENDBRANCH   6  15
BRANCH   1  23
ATOM     23  C   UNL     1       1.088   3.473   0.002  0.00  0.00    +0.338 C 
ATOM     24  O   UNL     1       0.015   4.047   0.009  0.00  0.00    -0.245 OA
BRANCH  23  25
ATOM     25  O   UNL     1       2.234   4.185  -0.005  0.00  0.00    -0.458 OA
BRANCH  25  26
ATOM     26  C   UNL     1       2.114   5.609  -0.005  0.00  0.00    +0.173 C 
ATOM     27  C   UNL     1       2.079   6.117   1.438  0.00  0.00    +0.052 C 
BRANCH  26  29
ATOM     28  C   UNL     1       3.275   5.813  -2.207  0.00  0.00    +0.007 C 
ATOM     29  C   UNL     1       3.311   6.222  -0.734  0.00  0.00    +0.041 C 
ENDBRANCH  26  29
ENDBRANCH  25  26
ENDBRANCH  23  25
ENDBRANCH   1  23
BRANCH   9  30
ATOM     30  C   UNL     1       4.711  -2.886  -0.914  0.00  0.00    +0.318 C 
ATOM     31  O   UNL     1       4.714  -3.822  -0.150  0.00  0.00    -0.250 OA
BRANCH  30  32
ATOM     32  O   UNL     1       5.863  -2.453  -1.449  0.00  0.00    -0.467 OA
ATOM     33  C   UNL     1       7.074  -3.157  -1.065  0.00  0.00    +0.280 C 
ENDBRANCH  30  32
ENDBRANCH   9  30
TORSDOF 8
