REMARK  Name = ZINC33810626
REMARK  12 active torsions:
REMARK  status: ('A' for Active; 'I' for Inactive)
REMARK    1  A    between atoms: C_1  and  C_2
REMARK    2  A    between atoms: C_2  and  O_3
REMARK    3  A    between atoms: O_3  and  C_4
REMARK    4  A    between atoms: C_7  and  C_12
REMARK    5  A    between atoms: C_9  and  O_10
REMARK    6  A    between atoms: O_10  and  C_11
REMARK    7  A    between atoms: C_17  and  S_21
REMARK    8  A    between atoms: S_21  and  C_22
REMARK    9  A    between atoms: C_22  and  C_23
REMARK   10  A    between atoms: C_26  and  C_29
REMARK   11  A    between atoms: C_36  and  C_38
REMARK   12  A    between atoms: C_36  and  C_39
REMARK                            x       y       z     vdW  Elec       q    Type
REMARK                         _______ _______ _______ _____ _____    ______ ____
ROOT
ATOM      1  C   UNL     1       2.401   3.829   0.006  0.00  0.00    +0.093 C 
ATOM      2  C   UNL     1       1.133   3.026   0.008  0.00  0.00    +0.069 A 
ATOM      3  C   UNL     1       1.167   1.666  -0.000  0.00  0.00    +0.135 A 
ATOM      4  N   UNL     1      -0.011   0.966   0.007  0.00  0.00    -0.208 NA
ATOM      5  C   UNL     1      -1.201   1.630   0.017  0.00  0.00    +0.171 A 
ATOM      6  N   UNL     1      -1.246   2.946   0.028  0.00  0.00    -0.302 N 
ATOM      7  C   UNL     1      -0.120   3.676   0.020  0.00  0.00    +0.258 A 
ATOM      8  O   UNL     1      -0.179   4.897   0.022  0.00  0.00    -0.267 OA
ATOM      9  N   UNL     1       2.372   1.004  -0.019  0.00  0.00    -0.302 N 
ATOM     10  C   UNL     1       3.513   1.644  -0.420  0.00  0.00    +0.017 C 
ATOM     11  C   UNL     1       3.577   2.993  -0.430  0.00  0.00    +0.024 C 
ATOM     12  C   UNL     1       4.744   3.659  -0.842  0.00  0.00    +0.162 C 
ATOM     13  O   UNL     1       4.763   4.874  -0.859  0.00  0.00    -0.292 OA
ATOM     14  C   UNL     1       5.971   2.896  -1.262  0.00  0.00    +0.086 C 
ATOM     15  C   UNL     1       5.992   1.547  -0.535  0.00  0.00    -0.023 C 
ATOM     16  C   UNL     1       4.691   0.807  -0.852  0.00  0.00    +0.058 C 
ATOM     17  C   UNL     1       6.099   1.777   0.974  0.00  0.00    +0.011 C 
ATOM     18  C   UNL     1       7.186   0.721  -1.016  0.00  0.00    +0.011 C 
ATOM     19  H   UNL     1       2.425  -0.050   0.291  0.00  0.00    +0.153 HD
ATOM     20  H   UNL     1      -2.217   3.463   0.044  0.00  0.00    +0.171 HD
ENDROOT
BRANCH   1  24
ATOM     21  C   UNL     1       3.124   5.305   3.954  0.00  0.00    +0.162 A 
ATOM     22  C   UNL     1       3.084   3.940   3.718  0.00  0.00    +0.050 A 
ATOM     23  C   UNL     1       2.849   3.466   2.441  0.00  0.00    +0.008 A 
ATOM     24  C   UNL     1       2.655   4.351   1.397  0.00  0.00    -0.032 A 
ATOM     25  C   UNL     1       2.699   5.714   1.624  0.00  0.00    +0.054 A 
ATOM     26  C   UNL     1       2.928   6.196   2.903  0.00  0.00    +0.162 A 
BRANCH  26  27
ATOM     27  O   UNL     1       2.966   7.536   3.130  0.00  0.00    -0.491 OA
ATOM     28  C   UNL     1       2.756   8.390   2.004  0.00  0.00    +0.277 C 
ENDBRANCH  26  27
BRANCH  21  29
ATOM     29  O   UNL     1       3.354   5.773   5.210  0.00  0.00    -0.489 OA
BRANCH  29  31
ATOM     30  C   UNL     1       3.790   5.511   7.573  0.00  0.00    +0.048 C 
ATOM     31  C   UNL     1       3.546   4.801   6.240  0.00  0.00    +0.226 C 
ENDBRANCH  29  31
ENDBRANCH  21  29
ENDBRANCH   1  24
BRANCH   5  32
ATOM     32  S   UNL     1      -2.705   0.712   0.021  0.00  0.00    -0.083 S 
BRANCH  32  33
ATOM     33  C   UNL     1      -3.901   2.070   0.033  0.00  0.00    +0.112 C 
BRANCH  33  34
ATOM     34  C   UNL     1      -5.300   1.508   0.038  0.00  0.00    -0.037 A 
ATOM     35  C   UNL     1      -5.949   1.260  -1.157  0.00  0.00    +0.005 A 
ATOM     36  C   UNL     1      -7.230   0.740  -1.152  0.00  0.00    +0.003 A 
ATOM     37  C   UNL     1      -7.865   0.476   0.047  0.00  0.00    -0.050 A 
ATOM     38  C   UNL     1      -7.217   0.728   1.242  0.00  0.00    +0.003 A 
ATOM     39  C   UNL     1      -5.934   1.244   1.237  0.00  0.00    +0.005 A 
ATOM     40  C   UNL     1      -9.263  -0.086   0.052  0.00  0.00    +0.044 C 
ENDBRANCH  33  34
ENDBRANCH  32  33
ENDBRANCH   5  32
TORSDOF 7
