REMARK  Name = ZINC39572158
REMARK  6 active torsions:
REMARK  status: ('A' for Active; 'I' for Inactive)
REMARK    1  A    between atoms: C_1  and  C_2
REMARK    2  A    between atoms: C_12  and  C_14
REMARK    3  A    between atoms: C_14  and  C_16
REMARK    4  A    between atoms: C_14  and  S_17
REMARK    5  A    between atoms: S_17  and  C_18
REMARK    6  A    between atoms: C_21  and  C_24
REMARK                            x       y       z     vdW  Elec       q    Type
REMARK                         _______ _______ _______ _____ _____    ______ ____
ROOT
ATOM      1  C   UNL     1       2.515  -0.746   2.840  0.00  0.00    +0.137 C 
ATOM      2  C   UNL     1       1.987   0.140   3.970  0.00  0.00    +0.029 C 
ENDROOT
BRANCH   1  13
ATOM      3  C   UNL     1       0.041   1.538  -0.051  0.00  0.00    +0.029 C 
ATOM      4  C   UNL     1       0.002   0.010   0.005  0.00  0.00    +0.083 C 
ATOM      5  C   UNL     1      -1.450  -0.482   0.117  0.00  0.00    +0.059 C 
ATOM      6  C   UNL     1      -1.498  -1.230   1.430  0.00  0.00    -0.024 A 
ATOM      7  C   UNL     1      -2.537  -1.889   2.060  0.00  0.00    +0.005 A 
ATOM      8  C   UNL     1      -2.329  -2.508   3.279  0.00  0.00    +0.000 A 
ATOM      9  C   UNL     1      -1.078  -2.466   3.867  0.00  0.00    +0.002 A 
ATOM     10  C   UNL     1      -0.039  -1.810   3.242  0.00  0.00    +0.024 A 
ATOM     11  C   UNL     1      -0.241  -1.183   2.011  0.00  0.00    +0.040 A 
ATOM     12  N   UNL     1       0.668  -0.472   1.218  0.00  0.00    -0.267 N 
ATOM     13  C   UNL     1       1.964  -0.262   1.523  0.00  0.00    +0.233 C 
ATOM     14  O   UNL     1       2.685   0.317   0.739  0.00  0.00    -0.274 OA
ENDBRANCH   1  13
BRANCH   1  15
ATOM     15  S   UNL     1       4.327  -0.663   2.803  0.00  0.00    -0.074 S 
BRANCH  15  16
ATOM     16  C   UNL     1       4.818  -1.390   4.331  0.00  0.00    +0.185 A 
ATOM     17  N   UNL     1       4.012  -1.868   5.253  0.00  0.00    -0.201 NA
ATOM     18  H   UNL     1       6.899  -1.304   4.286  0.00  0.00    +0.191 HD
ATOM     19  C   UNL     1       4.733  -2.343   6.279  0.00  0.00    +0.185 A 
ATOM     20  N   UNL     1       6.009  -2.170   6.019  0.00  0.00    -0.151 NA
ATOM     21  N   UNL     1       6.090  -1.558   4.757  0.00  0.00    -0.253 N 
BRANCH  19  22
ATOM     22  C   UNL     1       4.180  -2.963   7.508  0.00  0.00    +0.056 A 
ATOM     23  C   UNL     1       2.802  -3.095   7.666  0.00  0.00    +0.014 A 
ATOM     24  C   UNL     1       2.292  -3.673   8.811  0.00  0.00    +0.001 A 
ATOM     25  C   UNL     1       3.146  -4.120   9.803  0.00  0.00    +0.003 A 
ATOM     26  C   UNL     1       4.515  -3.991   9.655  0.00  0.00    +0.039 A 
ATOM     27  C   UNL     1       5.038  -3.420   8.509  0.00  0.00    +0.134 A 
ATOM     28  F   UNL     1       6.375  -3.300   8.362  0.00  0.00    -0.205 F 
ENDBRANCH  19  22
ENDBRANCH  15  16
ENDBRANCH   1  15
TORSDOF 4
