REMARK  Name = ZINC36642610
REMARK  10 active torsions:
REMARK  status: ('A' for Active; 'I' for Inactive)
REMARK    1  A    between atoms: C_1  and  C_2
REMARK    2  A    between atoms: C_2  and  N_3
REMARK    3  A    between atoms: N_3  and  C_4
REMARK    4  A    between atoms: N_3  and  C_6
REMARK    5  A    between atoms: C_4  and  C_5
REMARK    6  A    between atoms: C_6  and  C_7
REMARK    7  A    between atoms: C_7  and  N_8
REMARK    8  A    between atoms: C_19  and  C_21
REMARK    9  A    between atoms: C_24  and  N_30
REMARK   10  A    between atoms: C_25  and  N_27
REMARK                            x       y       z     vdW  Elec       q    Type
REMARK                         _______ _______ _______ _____ _____    ______ ____
ROOT
ATOM      1  N   UNL     1      -3.207  -3.956   0.190  0.00  0.00    -0.248 N 
ATOM      2  C   UNL     1      -3.343  -4.529   1.444  0.00  0.00    +0.168 A 
ATOM      3  N   UNL     1      -3.929  -4.041   2.512  0.00  0.00    -0.221 NA
ATOM      4  C   UNL     1      -3.987  -4.718   3.680  0.00  0.00    +0.115 A 
ATOM      5  C   UNL     1      -4.584  -4.309   4.898  0.00  0.00    +0.150 A 
ATOM      6  C   UNL     1      -4.553  -5.125   6.001  0.00  0.00    +0.040 A 
ATOM      7  C   UNL     1      -3.941  -6.370   5.965  0.00  0.00    +0.004 A 
ATOM      8  C   UNL     1      -3.350  -6.800   4.792  0.00  0.00    +0.017 A 
ATOM      9  C   UNL     1      -3.375  -5.991   3.682  0.00  0.00    +0.044 A 
ATOM     10  S   UNL     1      -2.773  -6.123   2.016  0.00  0.00    -0.052 S 
ATOM     11  F   UNL     1      -5.189  -3.104   4.975  0.00  0.00    -0.203 F 
ATOM     12  C   UNL     1      -2.662  -4.665  -0.819  0.00  0.00    +0.252 C 
ATOM     13  O   UNL     1      -2.371  -5.834  -0.653  0.00  0.00    -0.270 OA
ENDROOT
BRANCH  12  14
ATOM     14  C   UNL     1      -2.419  -4.022  -2.123  0.00  0.00    +0.040 A 
ATOM     15  C   UNL     1      -2.219  -2.640  -2.198  0.00  0.00    +0.015 A 
ATOM     16  C   UNL     1      -1.992  -2.044  -3.417  0.00  0.00    +0.026 A 
ATOM     17  C   UNL     1      -1.963  -2.815  -4.576  0.00  0.00    +0.060 A 
ATOM     18  C   UNL     1      -2.162  -4.191  -4.505  0.00  0.00    +0.148 A 
ATOM     19  C   UNL     1      -2.383  -4.794  -3.288  0.00  0.00    +0.047 A 
BRANCH  17  20
ATOM     20  N   UNL     1      -1.734  -2.209  -5.806  0.00  0.00    -0.328 N 
ATOM     21  C   UNL     1      -2.855  -1.705  -6.612  0.00  0.00    +0.105 C 
ATOM     22  C   UNL     1      -2.591  -0.237  -6.961  0.00  0.00    +0.019 C 
ATOM     23  C   UNL     1      -1.224  -0.116  -7.639  0.00  0.00    +0.003 C 
ATOM     24  C   UNL     1      -0.132  -0.589  -6.677  0.00  0.00    +0.019 C 
ATOM     25  C   UNL     1      -0.367  -2.055  -6.323  0.00  0.00    +0.105 C 
ENDBRANCH  17  20
BRANCH  18  26
ATOM     26  N   UNL     1      -2.130  -5.007  -5.740  0.00  0.00    +0.058 N 
ATOM     27  O   UNL     1      -2.303  -6.202  -5.680  0.00  0.00    -0.126 OA
ATOM     28  O   UNL     1      -1.931  -4.478  -6.809  0.00  0.00    -0.126 OA
ENDBRANCH  18  26
ENDBRANCH  12  14
BRANCH   1  29
ATOM     29  C   UNL     1      -3.655  -2.581  -0.039  0.00  0.00    +0.097 C 
BRANCH  29  30
ATOM     30  C   UNL     1      -2.697  -1.610   0.654  0.00  0.00    -0.059 C 
BRANCH  30  31
ATOM     31  N   UNL     1      -3.074  -0.229   0.322  0.00  0.00    +0.380 N 
ATOM     32  H   UNL     1      -3.076  -0.113  -0.680  0.00  0.00    -0.082 HD
BRANCH  31  34
ATOM     33  C   UNL     1      -4.859   1.446   0.398  0.00  0.00    -0.017 C 
ATOM     34  C   UNL     1      -4.416   0.053   0.850  0.00  0.00    -0.082 C 
ENDBRANCH  31  34
BRANCH  31  35
ATOM     35  C   UNL     1      -2.107   0.700   0.921  0.00  0.00    -0.082 C 
ATOM     36  C   UNL     1      -0.732   0.484   0.287  0.00  0.00    -0.017 C 
ENDBRANCH  31  35
ENDBRANCH  30  31
ENDBRANCH  29  30
ENDBRANCH   1  29
TORSDOF 8
