REMARK  Name = ZINC40985585
REMARK  10 active torsions:
REMARK  status: ('A' for Active; 'I' for Inactive)
REMARK    1  A    between atoms: C_1  and  C_2
REMARK    2  A    between atoms: C_2  and  C_3
REMARK    3  A    between atoms: C_3  and  S_4
REMARK    4  A    between atoms: S_4  and  C_5
REMARK    5  A    between atoms: C_8  and  C_12
REMARK    6  A    between atoms: N_14  and  C_15
REMARK    7  A    between atoms: C_15  and  C_16
REMARK    8  A    between atoms: C_16  and  C_18
REMARK    9  A    between atoms: C_16  and  N_25
REMARK   10  A    between atoms: C_21  and  C_24
REMARK                            x       y       z     vdW  Elec       q    Type
REMARK                         _______ _______ _______ _____ _____    ______ ____
ROOT
ATOM      1  C   UNL     1       3.438  -5.051   8.646  0.00  0.00    +0.248 C 
ATOM      2  O   UNL     1       3.575  -5.384   7.484  0.00  0.00    -0.270 OA
ATOM      3  N   UNL     1       3.995  -3.906   9.089  0.00  0.00    -0.312 N 
ATOM      4  H   UNL     1       3.886  -3.641  10.016  0.00  0.00    +0.149 HD
ENDROOT
BRANCH   1   8
ATOM      5  C   UNL     1       1.248  -7.441  11.249  0.00  0.00    +0.190 A 
ATOM      6  N   UNL     1       1.790  -6.317  11.705  0.00  0.00    -0.229 NA
ATOM      7  C   UNL     1       2.491  -5.532  10.911  0.00  0.00    +0.129 A 
ATOM      8  C   UNL     1       2.661  -5.898   9.569  0.00  0.00    +0.092 A 
ATOM      9  C   UNL     1       2.072  -7.093   9.127  0.00  0.00    +0.146 A 
ATOM     10  N   UNL     1       1.389  -7.826   9.987  0.00  0.00    -0.209 NA
ATOM     11 CL   UNL     1       2.245  -7.603   7.476  0.00  0.00    -0.061 Cl
BRANCH   5  12
ATOM     12  S   UNL     1       0.320  -8.452  12.354  0.00  0.00    -0.086 S 
BRANCH  12  13
ATOM     13  C   UNL     1       0.389  -7.558  13.931  0.00  0.00    +0.077 C 
BRANCH  13  15
ATOM     14  C   UNL     1      -0.331  -7.584  16.323  0.00  0.00    +0.004 C 
ATOM     15  C   UNL     1      -0.389  -8.338  14.993  0.00  0.00    +0.008 C 
ENDBRANCH  13  15
ENDBRANCH  12  13
ENDBRANCH   5  12
ENDBRANCH   1   8
BRANCH   3  16
ATOM     16  C   UNL     1       4.767  -3.064   8.172  0.00  0.00    +0.094 C 
BRANCH  16  17
ATOM     17  C   UNL     1       5.195  -1.784   8.893  0.00  0.00    -0.020 C 
BRANCH  17  18
ATOM     18  C   UNL     1       6.157  -2.130  10.001  0.00  0.00    -0.059 A 
ATOM     19  C   UNL     1       7.488  -2.366   9.712  0.00  0.00    +0.002 A 
ATOM     20  C   UNL     1       8.370  -2.683  10.728  0.00  0.00    +0.003 A 
ATOM     21  C   UNL     1       7.921  -2.764  12.033  0.00  0.00    -0.050 A 
ATOM     22  C   UNL     1       6.590  -2.527  12.322  0.00  0.00    +0.003 A 
ATOM     23  C   UNL     1       5.709  -2.206  11.306  0.00  0.00    +0.002 A 
ATOM     24  C   UNL     1       8.882  -3.110  13.140  0.00  0.00    +0.044 C 
ENDBRANCH  17  18
BRANCH  17  25
ATOM     25  N   UNL     1       5.852  -0.881   7.938  0.00  0.00    +0.385 N 
ATOM     26  C   UNL     1       4.895  -0.472   6.879  0.00  0.00    -0.078 C 
ATOM     27  C   UNL     1       5.511   0.840   6.332  0.00  0.00    -0.020 C 
ATOM     28  C   UNL     1       6.076   1.513   7.604  0.00  0.00    -0.020 C 
ATOM     29  C   UNL     1       6.261   0.368   8.617  0.00  0.00    -0.078 C 
ATOM     30  H   UNL     1       6.655  -1.333   7.528  0.00  0.00    -0.081 HD
ENDBRANCH  17  25
ENDBRANCH  16  17
ENDBRANCH   3  16
TORSDOF 8
