REMARK  Name = ZINC06312146
REMARK  13 active torsions:
REMARK  status: ('A' for Active; 'I' for Inactive)
REMARK    1  A    between atoms: C_1  and  C_2
REMARK    2  A    between atoms: C_2  and  N_29
REMARK    3  A    between atoms: C_3  and  C_4
REMARK    4  A    between atoms: C_3  and  C_6
REMARK    5  A    between atoms: C_6  and  C_8
REMARK    6  A    between atoms: C_8  and  O_9
REMARK    7  A    between atoms: O_9  and  C_10
REMARK    8  A    between atoms: C_10  and  C_12
REMARK    9  A    between atoms: C_17  and  N_18
REMARK   10  A    between atoms: N_19  and  C_20
REMARK   11  A    between atoms: C_23  and  N_26
REMARK   12  A    between atoms: N_26  and  C_27
REMARK   13  A    between atoms: N_26  and  C_28
REMARK                            x       y       z     vdW  Elec       q    Type
REMARK                         _______ _______ _______ _____ _____    ______ ____
ROOT
ATOM      1  C   UNL     1       0.656   0.566   7.197  0.00  0.00    +0.086 A 
ATOM      2  C   UNL     1       0.418   1.931   7.042  0.00  0.00    +0.017 A 
ATOM      3  C   UNL     1       0.348   2.750   8.151  0.00  0.00    +0.001 A 
ATOM      4  C   UNL     1       0.513   2.225   9.423  0.00  0.00    +0.002 A 
ATOM      5  C   UNL     1       0.749   0.878   9.599  0.00  0.00    +0.030 A 
ATOM      6  C   UNL     1       0.818   0.031   8.492  0.00  0.00    +0.100 A 
ENDROOT
BRANCH   1   7
ATOM      7  C   UNL     1       0.731  -0.314   6.015  0.00  0.00    +0.342 C 
ATOM      8  O   UNL     1       0.934  -1.504   6.156  0.00  0.00    -0.245 OA
BRANCH   7   9
ATOM      9  O   UNL     1       0.575   0.202   4.780  0.00  0.00    -0.453 OA
BRANCH   9  10
ATOM     10  C   UNL     1       0.660  -0.708   3.682  0.00  0.00    +0.312 C 
BRANCH  10  11
ATOM     11  C   UNL     1       0.463   0.044   2.391  0.00  0.00    +0.212 C 
ATOM     12  O   UNL     1       0.268   1.243   2.409  0.00  0.00    -0.288 OA
BRANCH  11  15
ATOM     13  C   UNL     1      -0.350   1.420   0.029  0.00  0.00    +0.061 C 
ATOM     14  C   UNL     1       0.199   0.017  -0.019  0.00  0.00    +0.019 C 
ATOM     15  C   UNL     1       0.504  -0.647   1.156  0.00  0.00    +0.114 C 
BRANCH  14  16
ATOM     16  N   UNL     1       0.392  -0.591  -1.208  0.00  0.00    -0.360 N 
ATOM     17  H   UNL     1       0.178  -0.126  -2.031  0.00  0.00    +0.142 HD
ATOM     18  H   UNL     1       0.745  -1.494  -1.238  0.00  0.00    +0.142 HD
ENDBRANCH  14  16
BRANCH  15  19
ATOM     19  C   UNL     1       0.862  -2.033   1.122  0.00  0.00    +0.104 C 
ATOM     20  N   UNL     1       1.146  -3.133   1.096  0.00  0.00    -0.191 NA
ENDBRANCH  15  19
ENDBRANCH  11  15
ENDBRANCH  10  11
ENDBRANCH   9  10
ENDBRANCH   7   9
ENDBRANCH   1   7
BRANCH   6  21
ATOM     21  N   UNL     1       1.046  -1.304   8.660  0.00  0.00    -0.148 NA
ATOM     22  N   UNL     1       1.194  -1.788   9.847  0.00  0.00    -0.149 NA
BRANCH  22  23
ATOM     23  C   UNL     1       1.422  -3.121  10.015  0.00  0.00    +0.086 A 
ATOM     24  C   UNL     1       1.501  -3.966   8.901  0.00  0.00    +0.031 A 
ATOM     25  C   UNL     1       1.731  -5.306   9.075  0.00  0.00    +0.025 A 
ATOM     26  C   UNL     1       1.884  -5.828  10.357  0.00  0.00    +0.029 A 
ATOM     27  C   UNL     1       1.806  -4.992  11.467  0.00  0.00    +0.025 A 
ATOM     28  C   UNL     1       1.582  -3.649  11.302  0.00  0.00    +0.031 A 
BRANCH  26  29
ATOM     29  N   UNL     1       2.116  -7.189  10.529  0.00  0.00    -0.336 N 
ATOM     30  C   UNL     1       2.038  -8.096   9.381  0.00  0.00    +0.129 C 
ATOM     31  C   UNL     1       2.439  -7.715  11.857  0.00  0.00    +0.129 C 
ENDBRANCH  26  29
ENDBRANCH  22  23
ENDBRANCH   6  21
TORSDOF 10
