REMARK  Name = ZINC02927197
REMARK  6 active torsions:
REMARK  status: ('A' for Active; 'I' for Inactive)
REMARK    1  A    between atoms: C_1  and  C_2
REMARK    2  A    between atoms: C_3  and  N_9
REMARK    3  A    between atoms: C_13  and  C_33
REMARK    4  A    between atoms: C_19  and  S_20
REMARK    5  A    between atoms: S_20  and  C_21
REMARK    6  A    between atoms: C_21  and  C_22
REMARK                            x       y       z     vdW  Elec       q    Type
REMARK                         _______ _______ _______ _____ _____    ______ ____
ROOT
ATOM      1  N   UNL     1       3.624  -0.650  -0.035  0.00  0.00    -0.274 N 
ATOM      2  C   UNL     1       4.218  -0.988  -1.241  0.00  0.00    +0.124 A 
ATOM      3  N   UNL     1       3.659  -0.683  -2.386  0.00  0.00    -0.384 N 
ATOM      4  C   UNL     1       5.504  -1.697  -1.183  0.00  0.00    +0.082 A 
ATOM      5  C   UNL     1       6.396  -2.194  -2.149  0.00  0.00    +0.072 A 
ATOM      6  N   UNL     1       7.401  -2.754  -1.531  0.00  0.00    -0.177 NA
ATOM      7  N   UNL     1       7.214  -2.649  -0.147  0.00  0.00    -0.260 N 
ATOM      8  H   UNL     1       7.963  -3.066   0.542  0.00  0.00    +0.191 HD
ATOM      9  C   UNL     1       6.041  -1.996   0.076  0.00  0.00    +0.162 A 
ATOM     10  N   UNL     1       5.380  -1.627   1.185  0.00  0.00    -0.204 NA
ATOM     11  C   UNL     1       4.236  -0.991   1.140  0.00  0.00    +0.177 A 
ATOM     12  C   UNL     1       6.222  -2.098  -3.643  0.00  0.00    +0.068 C 
ATOM     13  H   UNL     1       4.151  -0.962  -3.330  0.00  0.00    +0.157 HD
ATOM     14  H   UNL     1       2.699  -0.148  -2.404  0.00  0.00    +0.157 HD
ENDROOT
BRANCH   1  17
ATOM     15  C   UNL     1       1.228  -2.187  -0.022  0.00  0.00    +0.047 C 
ATOM     16  C   UNL     1       1.208  -0.680  -0.013  0.00  0.00    -0.008 A 
ATOM     17  C   UNL     1       2.400   0.032  -0.021  0.00  0.00    +0.055 A 
ATOM     18  C   UNL     1       2.377   1.420  -0.013  0.00  0.00    +0.026 A 
ATOM     19  C   UNL     1       1.169   2.090   0.002  0.00  0.00    +0.003 A 
ATOM     20  C   UNL     1      -0.017   1.380   0.010  0.00  0.00    +0.020 A 
ATOM     21  C   UNL     1       0.002  -0.004   0.002  0.00  0.00    +0.046 A 
ATOM     22 CL   UNL     1      -1.490  -0.892   0.011  0.00  0.00    -0.083 Cl
ENDBRANCH   1  17
BRANCH  11  23
ATOM     23  S   UNL     1       3.453  -0.554   2.657  0.00  0.00    -0.081 S 
BRANCH  23  24
ATOM     24  C   UNL     1       4.654  -1.223   3.834  0.00  0.00    +0.133 C 
BRANCH  24  25
ATOM     25  C   UNL     1       4.180  -0.959   5.240  0.00  0.00    +0.059 A 
ATOM     26  C   UNL     1       3.648  -1.987   5.994  0.00  0.00    +0.094 A 
ATOM     27  C   UNL     1       3.220  -1.718   7.299  0.00  0.00    +0.259 A 
ATOM     28  O   UNL     1       2.749  -2.606   7.992  0.00  0.00    -0.267 OA
ATOM     29  N   UNL     1       3.330  -0.461   7.777  0.00  0.00    -0.268 N 
ATOM     30  C   UNL     1       2.912  -0.182   9.043  0.00  0.00    +0.096 A 
ATOM     31  C   UNL     1       3.013   1.070   9.544  0.00  0.00    +0.018 A 
ATOM     32  C   UNL     1       3.551   2.101   8.761  0.00  0.00    +0.005 A 
ATOM     33  C   UNL     1       3.971   1.833   7.493  0.00  0.00    +0.047 A 
ATOM     34  C   UNL     1       3.858   0.524   6.989  0.00  0.00    +0.140 A 
ATOM     35  N   UNL     1       4.269   0.260   5.750  0.00  0.00    -0.233 NA
ENDBRANCH  24  25
ENDBRANCH  23  24
ENDBRANCH  11  23
TORSDOF 4
