REMARK  Name = ZINC38665893
REMARK  12 active torsions:
REMARK  status: ('A' for Active; 'I' for Inactive)
REMARK    1  A    between atoms: C_1  and  C_2
REMARK    2  A    between atoms: C_5  and  N_9
REMARK    3  A    between atoms: C_7  and  C_8
REMARK    4  A    between atoms: C_11  and  C_16
REMARK    5  A    between atoms: N_18  and  C_19
REMARK    6  A    between atoms: C_19  and  C_20
REMARK    7  A    between atoms: C_20  and  C_22
REMARK    8  A    between atoms: C_20  and  N_31
REMARK    9  A    between atoms: C_25  and  N_28
REMARK   10  A    between atoms: N_28  and  C_29
REMARK   11  A    between atoms: N_28  and  C_30
REMARK   12  A    between atoms: N_34  and  C_37
REMARK                            x       y       z     vdW  Elec       q    Type
REMARK                         _______ _______ _______ _____ _____    ______ ____
ROOT
ATOM      1  C   UNL     1       3.990  -9.107   0.165  0.00  0.00    +0.104 C 
ENDROOT
BRANCH   1   2
ATOM      2  C   UNL     1       5.444  -9.452  -0.031  0.00  0.00    -0.029 A 
ATOM      3  C   UNL     1       5.888  -9.894  -1.264  0.00  0.00    +0.007 A 
ATOM      4  C   UNL     1       7.220 -10.211  -1.447  0.00  0.00    +0.023 A 
ATOM      5  C   UNL     1       8.113 -10.086  -0.391  0.00  0.00    +0.029 A 
ATOM      6  C   UNL     1       7.664  -9.642   0.846  0.00  0.00    +0.023 A 
ATOM      7  C   UNL     1       6.332  -9.322   1.021  0.00  0.00    +0.007 A 
BRANCH   5   8
ATOM      8  N   UNL     1       9.461 -10.407  -0.573  0.00  0.00    -0.336 N 
ATOM      9  C   UNL     1       9.957 -10.754  -1.907  0.00  0.00    +0.129 C 
ATOM     10  C   UNL     1      10.377 -10.395   0.570  0.00  0.00    +0.129 C 
ENDBRANCH   5   8
ENDBRANCH   1   2
BRANCH   1  11
ATOM     11  N   UNL     1       3.155 -10.090  -0.537  0.00  0.00    -0.291 NA
ATOM     12  C   UNL     1       1.728  -9.783  -0.371  0.00  0.00    +0.104 C 
ATOM     13  C   UNL     1       0.900 -10.717  -1.260  0.00  0.00    +0.120 C 
ATOM     14  N   UNL     1       1.277 -12.106  -0.957  0.00  0.00    -0.327 N 
ATOM     15  C   UNL     1       2.704 -12.459  -0.969  0.00  0.00    +0.120 C 
ATOM     16  C   UNL     1       3.461 -11.456  -0.091  0.00  0.00    +0.104 C 
BRANCH  14  17
ATOM     17  C   UNL     1       0.304 -13.065  -0.664  0.00  0.00    +0.030 A 
ATOM     18  C   UNL     1      -1.044 -12.747  -0.781  0.00  0.00    +0.023 A 
ATOM     19  C   UNL     1      -2.003 -13.698  -0.492  0.00  0.00    +0.002 A 
ATOM     20  C   UNL     1      -1.623 -14.964  -0.086  0.00  0.00    +0.000 A 
ATOM     21  C   UNL     1      -0.283 -15.283   0.032  0.00  0.00    +0.002 A 
ATOM     22  C   UNL     1       0.682 -14.339  -0.262  0.00  0.00    +0.023 A 
ENDBRANCH  14  17
ENDBRANCH   1  11
BRANCH   1  23
ATOM     23  C   UNL     1       3.717  -7.711  -0.398  0.00  0.00    +0.127 C 
BRANCH  23  26
ATOM     24  C   UNL     1       4.344  -5.408   0.092  0.00  0.00    +0.218 C 
ATOM     25  O   UNL     1       3.558  -5.044  -0.757  0.00  0.00    -0.275 OA
ATOM     26  N   UNL     1       4.499  -6.722   0.348  0.00  0.00    -0.313 N 
ATOM     27  H   UNL     1       5.128  -7.013   1.027  0.00  0.00    +0.149 HD
BRANCH  24  30
ATOM     28  N   UNL     1       5.785  -2.637  -0.647  0.00  0.00    -0.271 N 
ATOM     29  C   UNL     1       4.807  -2.956   0.400  0.00  0.00    +0.127 C 
ATOM     30  C   UNL     1       5.148  -4.391   0.860  0.00  0.00    +0.101 C 
ATOM     31  C   UNL     1       6.650  -4.488   0.504  0.00  0.00    +0.110 C 
ATOM     32  C   UNL     1       6.830  -3.482  -0.612  0.00  0.00    +0.221 C 
ATOM     33  O   UNL     1       7.781  -3.442  -1.363  0.00  0.00    -0.275 OA
BRANCH  28  38
ATOM     34  C   UNL     1       5.217   1.598  -4.378  0.00  0.00    +0.044 C 
ATOM     35  C   UNL     1       5.368   0.473  -3.387  0.00  0.00    -0.047 A 
ATOM     36  C   UNL     1       6.537  -0.266  -3.354  0.00  0.00    +0.005 A 
ATOM     37  C   UNL     1       6.678  -1.297  -2.447  0.00  0.00    +0.024 A 
ATOM     38  C   UNL     1       5.646  -1.592  -1.567  0.00  0.00    +0.037 A 
ATOM     39  C   UNL     1       4.473  -0.849  -1.602  0.00  0.00    +0.027 A 
ATOM     40  C   UNL     1       4.340   0.185  -2.508  0.00  0.00    -0.046 A 
ATOM     41  C   UNL     1       3.071   0.996  -2.543  0.00  0.00    +0.044 C 
ENDBRANCH  28  38
ENDBRANCH  24  30
ENDBRANCH  23  26
ENDBRANCH   1  23
TORSDOF 8
