REMARK  Name = ZINC67577235
REMARK  8 active torsions:
REMARK  status: ('A' for Active; 'I' for Inactive)
REMARK    1  A    between atoms: C_1  and  C_2
REMARK    2  A    between atoms: N_5  and  C_8
REMARK    3  A    between atoms: C_8  and  C_9
REMARK    4  A    between atoms: C_9  and  C_11
REMARK    5  A    between atoms: C_9  and  O_27
REMARK    6  A    between atoms: C_11  and  N_12
REMARK    7  A    between atoms: C_19  and  C_21
REMARK    8  A    between atoms: C_21  and  C_22
REMARK                            x       y       z     vdW  Elec       q    Type
REMARK                         _______ _______ _______ _____ _____    ______ ____
ROOT
ATOM      1  N   UNL     1       0.630  -6.349   4.007  0.00  0.00    -0.297 N 
ATOM      2  C   UNL     1       0.786  -7.662   4.270  0.00  0.00    +0.305 C 
ATOM      3  O   UNL     1       0.440  -8.491   3.452  0.00  0.00    -0.252 OA
ATOM      4  N   UNL     1       1.328  -8.054   5.441  0.00  0.00    -0.247 N 
ATOM      5  C   UNL     1       1.490  -9.408   5.712  0.00  0.00    +0.189 A 
ATOM      6  N   UNL     1       1.186 -10.449   4.962  0.00  0.00    -0.126 NA
ATOM      7  N   UNL     1       1.395 -11.634   5.348  0.00  0.00    -0.145 NA
ATOM      8  C   UNL     1       1.931 -11.837   6.534  0.00  0.00    +0.104 A 
ATOM      9  S   UNL     1       2.133 -10.148   7.084  0.00  0.00    -0.035 S 
ATOM     10  H   UNL     1       0.906  -5.687   4.660  0.00  0.00    +0.150 HD
ATOM     11  H   UNL     1       1.605  -7.392   6.093  0.00  0.00    +0.158 HD
ENDROOT
BRANCH   1  12
ATOM     12  C   UNL     1       0.041  -5.922   2.735  0.00  0.00    +0.135 C 
BRANCH  12  13
ATOM     13  C   UNL     1      -0.023  -4.394   2.690  0.00  0.00    +0.115 C 
BRANCH  13  14
ATOM     14  O   UNL     1       1.303  -3.862   2.691  0.00  0.00    -0.392 OA
ATOM     15  H   UNL     1       1.841  -4.147   1.940  0.00  0.00    +0.210 HD
ENDBRANCH  13  14
BRANCH  13  16
ATOM     16  C   UNL     1      -0.750  -3.952   1.419  0.00  0.00    -0.046 C 
BRANCH  16  21
ATOM     17  C   UNL     1      -2.158   1.567   1.124  0.00  0.00    +0.007 C 
ATOM     18  C   UNL     1      -2.222   0.038   1.151  0.00  0.00    -0.018 C 
ATOM     19  C   UNL     1      -1.674  -0.474   2.486  0.00  0.00    -0.016 C 
ATOM     20  C   UNL     1      -1.667  -2.005   2.474  0.00  0.00    -0.078 C 
ATOM     21  N   UNL     1      -0.817  -2.485   1.378  0.00  0.00    +0.381 N 
ATOM     22  C   UNL     1      -1.376  -2.057   0.090  0.00  0.00    -0.078 C 
ATOM     23  C   UNL     1      -1.372  -0.529   0.010  0.00  0.00    -0.016 C 
ATOM     24  H   UNL     1       0.112  -2.105   1.483  0.00  0.00    -0.082 HD
ENDBRANCH  16  21
ENDBRANCH  13  16
ENDBRANCH  12  13
ENDBRANCH   1  12
BRANCH   8  25
ATOM     25  C   UNL     1       2.280 -13.128   7.229  0.00  0.00    +0.068 C 
BRANCH  25  26
ATOM     26  C   UNL     1       3.715 -13.525   6.876  0.00  0.00    -0.005 C 
ATOM     27  C   UNL     1       3.806 -13.908   5.384  0.00  0.00    +0.004 C 
ATOM     28  C   UNL     1       4.811 -15.086   5.355  0.00  0.00    +0.000 C 
ATOM     29  C   UNL     1       4.455 -15.871   6.642  0.00  0.00    +0.000 C 
ATOM     30  C   UNL     1       4.128 -14.773   7.676  0.00  0.00    +0.004 C 
ENDBRANCH  25  26
ENDBRANCH   8  25
TORSDOF 7
