REMARK  Name = ZINC09531647
REMARK  7 active torsions:
REMARK  status: ('A' for Active; 'I' for Inactive)
REMARK    1  A    between atoms: C_1  and  N_2
REMARK    2  A    between atoms: C_3  and  C_22
REMARK    3  A    between atoms: C_6  and  S_7
REMARK    4  A    between atoms: S_7  and  C_8
REMARK    5  A    between atoms: C_8  and  C_9
REMARK    6  A    between atoms: N_11  and  N_12
REMARK    7  A    between atoms: C_13  and  C_15
REMARK                            x       y       z     vdW  Elec       q    Type
REMARK                         _______ _______ _______ _____ _____    ______ ____
ROOT
ATOM      1  C   UNL     1       0.353  -0.215   0.683  0.00  0.00    +0.174 C 
ENDROOT
BRANCH   1   2
ATOM      2  C   UNL     1       0.488   1.255   0.985  0.00  0.00    +0.239 C 
ATOM      3  O   UNL     1      -0.504   1.943   1.105  0.00  0.00    -0.273 OA
ATOM      4  N   UNL     1       1.710   1.807   1.115  0.00  0.00    -0.233 N 
ATOM      5  H   UNL     1       2.503   1.258   1.015  0.00  0.00    +0.173 HD
BRANCH   4   6
ATOM      6  N   UNL     1       1.835   3.174   1.396  0.00  0.00    -0.230 N 
ATOM      7  C   UNL     1       3.058   3.726   1.526  0.00  0.00    +0.260 C 
ATOM      8  O   UNL     1       4.052   3.038   1.401  0.00  0.00    -0.269 OA
ATOM      9  H   UNL     1       1.042   3.723   1.496  0.00  0.00    +0.173 HD
BRANCH   7  10
ATOM     10  C   UNL     1       3.190   5.168   1.822  0.00  0.00    +0.038 A 
ATOM     11  C   UNL     1       2.049   5.962   1.961  0.00  0.00    +0.016 A 
ATOM     12  C   UNL     1       2.178   7.304   2.244  0.00  0.00    +0.039 A 
ATOM     13  C   UNL     1       3.437   7.870   2.377  0.00  0.00    +0.123 A 
ATOM     14  C   UNL     1       4.573   7.087   2.234  0.00  0.00    +0.039 A 
ATOM     15  C   UNL     1       4.455   5.742   1.958  0.00  0.00    +0.016 A 
ATOM     16  F   UNL     1       3.558   9.188   2.647  0.00  0.00    -0.205 F 
ENDBRANCH   7  10
ENDBRANCH   4   6
ENDBRANCH   1   2
BRANCH   1  17
ATOM     17  S   UNL     1      -1.400  -0.650   0.569  0.00  0.00    -0.077 S 
BRANCH  17  23
ATOM     18  C   UNL     1      -3.734  -2.937   0.069  0.00  0.00    +0.153 C 
ATOM     19  N   UNL     1      -2.301  -3.242   0.027  0.00  0.00    -0.305 N 
ATOM     20  C   UNL     1      -1.718  -4.464  -0.214  0.00  0.00    +0.165 A 
ATOM     21  N   UNL     1      -0.419  -4.289  -0.160  0.00  0.00    -0.128 NA
ATOM     22  N   UNL     1      -0.152  -3.057   0.090  0.00  0.00    -0.122 NA
ATOM     23  C   UNL     1      -1.267  -2.372   0.220  0.00  0.00    +0.192 A 
BRANCH  20  24
ATOM     24  C   UNL     1      -2.423  -5.736  -0.484  0.00  0.00    +0.019 A 
ATOM     25  C   UNL     1      -1.767  -6.954  -0.297  0.00  0.00    +0.013 A 
ATOM     26  C   UNL     1      -2.431  -8.137  -0.544  0.00  0.00    +0.021 A 
ATOM     27  C   UNL     1      -3.742  -8.118  -0.989  0.00  0.00    +0.041 A 
ATOM     28  C   UNL     1      -4.396  -6.913  -1.183  0.00  0.00    +0.021 A 
ATOM     29  C   UNL     1      -3.744  -5.723  -0.933  0.00  0.00    +0.013 A 
ATOM     30 CL   UNL     1      -4.569  -9.611  -1.307  0.00  0.00    -0.084 Cl
ENDBRANCH  20  24
ENDBRANCH  17  23
ENDBRANCH   1  17
TORSDOF 6
