REMARK  Name = ZINC65959212
REMARK  11 active torsions:
REMARK  status: ('A' for Active; 'I' for Inactive)
REMARK    1  A    between atoms: C_1  and  C_2
REMARK    2  A    between atoms: C_9  and  C_13
REMARK    3  A    between atoms: C_13  and  N_14
REMARK    4  A    between atoms: N_14  and  C_15
REMARK    5  A    between atoms: N_14  and  C_24
REMARK    6  A    between atoms: C_15  and  C_16
REMARK    7  A    between atoms: C_16  and  C_17
REMARK    8  A    between atoms: C_17  and  C_18
REMARK    9  A    between atoms: C_24  and  C_25
REMARK   10  A    between atoms: C_25  and  O_26
REMARK   11  A    between atoms: O_26  and  C_27
REMARK                            x       y       z     vdW  Elec       q    Type
REMARK                         _______ _______ _______ _____ _____    ______ ____
ROOT
ATOM      1  C   UNL     1       0.042   0.142   4.922  0.00  0.00    +0.137 C 
ENDROOT
BRANCH   1  10
ATOM      2  C   UNL     1      -0.272   1.691   0.168  0.00  0.00    +0.047 C 
ATOM      3  C   UNL     1      -0.332   0.186   0.121  0.00  0.00    -0.009 A 
ATOM      4  C   UNL     1      -0.444  -0.461  -1.073  0.00  0.00    +0.008 A 
ATOM      5  C   UNL     1      -0.500  -1.862  -1.098  0.00  0.00    +0.019 A 
ATOM      6  C   UNL     1      -0.442  -2.565   0.055  0.00  0.00    +0.096 A 
ATOM      7  N   UNL     1      -0.330  -1.928   1.254  0.00  0.00    -0.269 N 
ATOM      8  C   UNL     1      -0.268  -0.563   1.310  0.00  0.00    +0.121 A 
ATOM      9  N   UNL     1      -0.153   0.067   2.478  0.00  0.00    -0.343 N 
ATOM     10  C   UNL     1      -0.089  -0.602   3.619  0.00  0.00    +0.037 A 
ATOM     11  C   UNL     1      -0.141  -1.982   3.615  0.00  0.00    +0.093 A 
ATOM     12  C   UNL     1      -0.275  -2.651   2.392  0.00  0.00    +0.258 A 
ATOM     13  O   UNL     1      -0.325  -3.871   2.355  0.00  0.00    -0.267 OA
ATOM     14  H   UNL     1      -0.115   1.036   2.493  0.00  0.00    +0.167 HD
ENDBRANCH   1  10
BRANCH   1  15
ATOM     15  N   UNL     1       1.365   0.777   4.993  0.00  0.00    -0.295 NA
BRANCH  15  16
ATOM     16  C   UNL     1       1.671   1.206   6.364  0.00  0.00    +0.085 C 
BRANCH  16  17
ATOM     17  C   UNL     1       3.095   1.761   6.420  0.00  0.00    +0.020 C 
BRANCH  17  18
ATOM     18  C   UNL     1       3.462   2.081   7.870  0.00  0.00    +0.036 C 
BRANCH  18  19
ATOM     19  C   UNL     1       4.865   2.628   7.925  0.00  0.00    -0.047 A 
ATOM     20  C   UNL     1       5.936   1.768   8.081  0.00  0.00    +0.003 A 
ATOM     21  C   UNL     1       7.224   2.270   8.131  0.00  0.00    +0.000 A 
ATOM     22  C   UNL     1       7.439   3.631   8.024  0.00  0.00    +0.000 A 
ATOM     23  C   UNL     1       6.368   4.491   7.867  0.00  0.00    +0.000 A 
ATOM     24  C   UNL     1       5.081   3.989   7.813  0.00  0.00    +0.003 A 
ENDBRANCH  18  19
ENDBRANCH  17  18
ENDBRANCH  16  17
ENDBRANCH  15  16
BRANCH  15  25
ATOM     25  C   UNL     1       1.460   1.904   4.055  0.00  0.00    +0.113 C 
BRANCH  25  26
ATOM     26  C   UNL     1       0.302   2.873   4.304  0.00  0.00    +0.174 C 
BRANCH  26  27
ATOM     27  O   UNL     1       0.459   3.482   5.588  0.00  0.00    -0.382 OA
ATOM     28  C   UNL     1      -0.576   4.410   5.920  0.00  0.00    +0.194 C 
ENDBRANCH  26  27
ENDBRANCH  25  26
ENDBRANCH  15  25
ENDBRANCH   1  15
TORSDOF 9
