REMARK  Name = ZINC09109157
REMARK  12 active torsions:
REMARK  status: ('A' for Active; 'I' for Inactive)
REMARK    1  A    between atoms: C_1  and  C_2
REMARK    2  A    between atoms: C_7  and  N_8
REMARK    3  A    between atoms: C_9  and  C_11
REMARK    4  A    between atoms: C_12  and  C_37
REMARK    5  A    between atoms: C_14  and  S_25
REMARK    6  A    between atoms: C_15  and  C_23
REMARK    7  A    between atoms: C_16  and  C_18
REMARK    8  A    between atoms: S_25  and  C_26
REMARK    9  A    between atoms: C_26  and  C_27
REMARK   10  A    between atoms: C_27  and  C_29
REMARK   11  A    between atoms: C_32  and  O_35
REMARK   12  A    between atoms: O_35  and  C_36
REMARK                            x       y       z     vdW  Elec       q    Type
REMARK                         _______ _______ _______ _____ _____    ______ ____
ROOT
ATOM      1  C   UNL     1       1.236   1.900   0.048  0.00  0.00    +0.047 C 
ATOM      2  C   UNL     1       2.418   1.278   0.186  0.00  0.00    +0.015 C 
ATOM      3  N   UNL     1       3.589   1.986   0.202  0.00  0.00    -0.312 N 
ATOM      4  C   UNL     1       3.574   3.340   0.452  0.00  0.00    +0.080 C 
ATOM      5  C   UNL     1       2.422   4.052   0.326  0.00  0.00    +0.072 C 
ATOM      6  C   UNL     1       1.140   3.392  -0.093  0.00  0.00    +0.134 C 
ATOM      7  C   UNL     1       2.456  -0.222   0.321  0.00  0.00    +0.061 C 
ATOM      8  H   UNL     1       4.544   1.473   0.016  0.00  0.00    +0.152 HD
ENDROOT
BRANCH   6   9
ATOM      9  C   UNL     1       0.853   3.736  -1.532  0.00  0.00    +0.118 A 
ATOM     10  C   UNL     1      -0.225   4.403  -1.981  0.00  0.00    +0.045 A 
ATOM     11  C   UNL     1      -0.089   4.504  -3.385  0.00  0.00    +0.041 A 
ATOM     12  C   UNL     1       1.065   3.893  -3.709  0.00  0.00    +0.195 A 
ATOM     13  O   UNL     1       1.634   3.435  -2.582  0.00  0.00    -0.467 OA
ENDBRANCH   6   9
BRANCH   1  15
ATOM     14  N   UNL     1      -0.325   0.479  -1.081  0.00  0.00    -0.281 N 
ATOM     15  C   UNL     1       0.049   1.129   0.039  0.00  0.00    +0.247 C 
ATOM     16  O   UNL     1      -0.632   1.048   1.046  0.00  0.00    -0.270 OA
ATOM     17  H   UNL     1       0.327   0.492  -1.967  0.00  0.00    +0.155 HD
BRANCH  14  24
ATOM     18  C   UNL     1      -1.768   0.427  -3.533  0.00  0.00    +0.045 C 
ATOM     19  C   UNL     1      -2.278  -0.262  -2.293  0.00  0.00    -0.029 A 
ATOM     20  C   UNL     1      -3.478  -0.944  -2.325  0.00  0.00    +0.005 A 
ATOM     21  C   UNL     1      -3.947  -1.575  -1.188  0.00  0.00    +0.000 A 
ATOM     22  C   UNL     1      -3.215  -1.527  -0.015  0.00  0.00    +0.002 A 
ATOM     23  C   UNL     1      -2.012  -0.851   0.022  0.00  0.00    +0.023 A 
ATOM     24  C   UNL     1      -1.541  -0.211  -1.117  0.00  0.00    +0.037 A 
ENDBRANCH  14  24
ENDBRANCH   1  15
BRANCH   5  25
ATOM     25  C   UNL     1       2.432   5.458   0.600  0.00  0.00    +0.098 C 
ATOM     26  N   UNL     1       2.439   6.573   0.817  0.00  0.00    -0.191 NA
ENDBRANCH   5  25
BRANCH   4  27
ATOM     27  S   UNL     1       5.059   4.157   0.935  0.00  0.00    -0.101 S 
BRANCH  27  28
ATOM     28  C   UNL     1       6.204   2.755   0.931  0.00  0.00    +0.155 C 
BRANCH  28  29
ATOM     29  C   UNL     1       7.579   3.229   1.327  0.00  0.00    +0.173 C 
ATOM     30  O   UNL     1       7.766   4.399   1.586  0.00  0.00    -0.291 OA
BRANCH  29  31
ATOM     31  C   UNL     1       8.692   2.274   1.398  0.00  0.00    +0.018 A 
ATOM     32  C   UNL     1       8.478   0.922   1.105  0.00  0.00    +0.015 A 
ATOM     33  C   UNL     1       9.522   0.035   1.167  0.00  0.00    +0.046 A 
ATOM     34  C   UNL     1      10.790   0.475   1.532  0.00  0.00    +0.120 A 
ATOM     35  C   UNL     1      11.007   1.816   1.831  0.00  0.00    +0.046 A 
ATOM     36  C   UNL     1       9.971   2.712   1.766  0.00  0.00    +0.015 A 
BRANCH  34  37
ATOM     37  O   UNL     1      11.819  -0.407   1.597  0.00  0.00    -0.495 OA
ATOM     38  C   UNL     1      11.527  -1.769   1.278  0.00  0.00    +0.277 C 
ENDBRANCH  34  37
ENDBRANCH  29  31
ENDBRANCH  28  29
ENDBRANCH  27  28
ENDBRANCH   4  27
TORSDOF 9
