REMARK  Name = ZINC60155709
REMARK  14 active torsions:
REMARK  status: ('A' for Active; 'I' for Inactive)
REMARK    1  A    between atoms: C_1  and  C_2
REMARK    2  A    between atoms: C_2  and  O_3
REMARK    3  A    between atoms: O_3  and  C_4
REMARK    4  A    between atoms: C_4  and  C_6
REMARK    5  A    between atoms: C_9  and  S_11
REMARK    6  A    between atoms: S_11  and  N_14
REMARK    7  A    between atoms: C_18  and  C_20
REMARK    8  A    between atoms: N_22  and  C_23
REMARK    9  A    between atoms: C_23  and  C_24
REMARK   10  A    between atoms: C_24  and  C_26
REMARK   11  A    between atoms: C_24  and  N_33
REMARK   12  A    between atoms: C_29  and  C_32
REMARK   13  A    between atoms: N_33  and  C_34
REMARK   14  A    between atoms: N_33  and  C_35
REMARK                            x       y       z     vdW  Elec       q    Type
REMARK                         _______ _______ _______ _____ _____    ______ ____
ROOT
ATOM      1  N   UNL     1      -7.433  -1.846   1.676  0.00  0.00    -0.162 NA
ATOM      2  C   UNL     1      -7.872  -2.999   2.484  0.00  0.00    +0.110 C 
ATOM      3  C   UNL     1      -7.413  -2.671   3.926  0.00  0.00    +0.019 C 
ATOM      4  C   UNL     1      -7.649  -1.139   3.988  0.00  0.00    +0.031 C 
ATOM      5  C   UNL     1      -7.293  -0.678   2.558  0.00  0.00    +0.165 C 
ENDROOT
BRANCH   5   6
ATOM      6  C   UNL     1      -5.874  -0.173   2.519  0.00  0.00    +0.232 C 
ATOM      7  O   UNL     1      -5.051  -0.729   1.822  0.00  0.00    -0.274 OA
ATOM      8  N   UNL     1      -5.519   0.898   3.257  0.00  0.00    -0.315 N 
ATOM      9  H   UNL     1      -6.177   1.343   3.814  0.00  0.00    +0.149 HD
BRANCH   8  10
ATOM     10  C   UNL     1      -4.140   1.389   3.218  0.00  0.00    +0.093 C 
BRANCH  10  11
ATOM     11  C   UNL     1      -4.027   2.658   4.065  0.00  0.00    -0.021 C 
BRANCH  11  12
ATOM     12  C   UNL     1      -4.287   2.322   5.511  0.00  0.00    -0.059 A 
ATOM     13  C   UNL     1      -3.285   1.765   6.283  0.00  0.00    +0.002 A 
ATOM     14  C   UNL     1      -3.524   1.457   7.609  0.00  0.00    +0.003 A 
ATOM     15  C   UNL     1      -4.766   1.705   8.163  0.00  0.00    -0.050 A 
ATOM     16  C   UNL     1      -5.768   2.263   7.391  0.00  0.00    +0.003 A 
ATOM     17  C   UNL     1      -5.527   2.576   6.067  0.00  0.00    +0.002 A 
ATOM     18  C   UNL     1      -5.027   1.368   9.608  0.00  0.00    +0.044 C 
ENDBRANCH  11  12
BRANCH  11  19
ATOM     19  N   UNL     1      -2.676   3.219   3.929  0.00  0.00    +0.382 N 
ATOM     20  C   UNL     1      -2.425   3.557   2.521  0.00  0.00    -0.096 C 
ATOM     21  C   UNL     1      -2.564   4.432   4.751  0.00  0.00    -0.096 C 
ATOM     22  H   UNL     1      -1.997   2.540   4.238  0.00  0.00    -0.082 HD
ENDBRANCH  11  19
ENDBRANCH  10  11
ENDBRANCH   8  10
ENDBRANCH   5   6
BRANCH   1  23
ATOM     23  S   UNL     1      -7.138  -1.866   0.047  0.00  0.00    +0.095 S 
ATOM     24  O   UNL     1      -7.286  -0.528  -0.409  0.00  0.00    -0.150 OA
ATOM     25  O   UNL     1      -7.895  -2.942  -0.490  0.00  0.00    -0.150 OA
BRANCH  23  29
ATOM     26  C   UNL     1      -3.268  -2.093  -0.404  0.00  0.00    +0.214 A 
ATOM     27  C   UNL     1      -3.561  -3.426  -0.454  0.00  0.00    +0.059 A 
ATOM     28  C   UNL     1      -4.951  -3.539  -0.303  0.00  0.00    +0.072 A 
ATOM     29  C   UNL     1      -5.441  -2.287  -0.171  0.00  0.00    +0.259 A 
ATOM     30  O   UNL     1      -4.423  -1.418  -0.227  0.00  0.00    -0.430 OA
BRANCH  26  31
ATOM     31  C   UNL     1      -1.933  -1.500  -0.518  0.00  0.00    +0.375 C 
ATOM     32  O   UNL     1      -0.962  -2.214  -0.677  0.00  0.00    -0.241 OA
BRANCH  31  33
ATOM     33  O   UNL     1      -1.782  -0.161  -0.446  0.00  0.00    -0.459 OA
BRANCH  33  35
ATOM     34  C   UNL     1      -0.479   1.875  -0.460  0.00  0.00    +0.048 C 
ATOM     35  C   UNL     1      -0.452   0.348  -0.565  0.00  0.00    +0.229 C 
ENDBRANCH  33  35
ENDBRANCH  31  33
ENDBRANCH  26  31
ENDBRANCH  23  29
ENDBRANCH   1  23
TORSDOF 10
