REMARK  Name = ZINC39864860
REMARK  6 active torsions:
REMARK  status: ('A' for Active; 'I' for Inactive)
REMARK    1  A    between atoms: C_1  and  C_2
REMARK    2  A    between atoms: C_2  and  N_3
REMARK    3  A    between atoms: C_7  and  C_8
REMARK    4  A    between atoms: C_7  and  C_9
REMARK    5  A    between atoms: C_12  and  N_15
REMARK    6  A    between atoms: N_18  and  C_19
REMARK                            x       y       z     vdW  Elec       q    Type
REMARK                         _______ _______ _______ _____ _____    ______ ____
ROOT
ATOM      1  N   UNL     1       0.711  -0.489   1.189  0.00  0.00    -0.246 N 
ATOM      2  C   UNL     1       2.017  -0.685   1.137  0.00  0.00    +0.259 C 
ATOM      3  O   UNL     1       2.653  -0.470   0.120  0.00  0.00    -0.269 OA
ATOM      4  C   UNL     1       2.670  -1.174   2.365  0.00  0.00    +0.081 C 
ATOM      5  C   UNL     1       3.979  -1.456   2.592  0.00  0.00    -0.024 C 
ATOM      6  C   UNL     1       4.991  -1.276   1.489  0.00  0.00    +0.045 C 
ATOM      7  S   UNL     1       1.276  -1.294   3.476  0.00  0.00    -0.048 S 
ATOM      8  C   UNL     1       0.010  -0.732   2.349  0.00  0.00    +0.171 C 
ATOM      9  N   UNL     1      -1.280  -0.587   2.572  0.00  0.00    -0.199 NA
ENDROOT
BRANCH   5  10
ATOM     10  C   UNL     1       4.409  -1.937   3.910  0.00  0.00    -0.021 A 
ATOM     11  C   UNL     1       4.293  -1.106   5.033  0.00  0.00    +0.010 A 
ATOM     12  C   UNL     1       4.696  -1.560   6.263  0.00  0.00    +0.023 A 
ATOM     13  C   UNL     1       5.218  -2.843   6.397  0.00  0.00    +0.025 A 
ATOM     14  C   UNL     1       5.335  -3.672   5.284  0.00  0.00    +0.023 A 
ATOM     15  C   UNL     1       4.931  -3.229   4.051  0.00  0.00    +0.010 A 
BRANCH  13  16
ATOM     16  N   UNL     1       5.626  -3.299   7.647  0.00  0.00    -0.358 N 
ATOM     17  H   UNL     1       5.545  -2.723   8.424  0.00  0.00    +0.142 HD
ATOM     18  H   UNL     1       5.990  -4.193   7.743  0.00  0.00    +0.142 HD
ENDBRANCH  13  16
ENDBRANCH   5  10
BRANCH   9  19
ATOM     19  C   UNL     1      -1.795  -0.879   3.794  0.00  0.00    +0.195 A 
ATOM     20  N   UNL     1      -1.177  -1.314   4.888  0.00  0.00    -0.230 NA
ATOM     21  C   UNL     1      -1.845  -1.547   5.998  0.00  0.00    +0.121 A 
ATOM     22  C   UNL     1      -3.185  -1.343   6.037  0.00  0.00    +0.068 A 
ATOM     23  S   UNL     1      -3.485  -0.776   4.368  0.00  0.00    -0.056 S 
ENDBRANCH   9  19
BRANCH   1  25
ATOM     24  C   UNL     1      -0.019   1.526   0.010  0.00  0.00    +0.025 C 
ATOM     25  C   UNL     1       0.002  -0.004   0.002  0.00  0.00    +0.112 C 
ENDBRANCH   1  25
TORSDOF 4
