REMARK  Name = ZINC02484924
REMARK  7 active torsions:
REMARK  status: ('A' for Active; 'I' for Inactive)
REMARK    1  A    between atoms: C_1  and  C_2
REMARK    2  A    between atoms: C_8  and  O_25
REMARK    3  A    between atoms: C_10  and  C_23
REMARK    4  A    between atoms: C_10  and  C_24
REMARK    5  A    between atoms: C_11  and  C_14
REMARK    6  A    between atoms: O_25  and  C_26
REMARK    7  A    between atoms: C_26  and  C_28
REMARK                            x       y       z     vdW  Elec       q    Type
REMARK                         _______ _______ _______ _____ _____    ______ ____
ROOT
ATOM      1  C   UNL     1      -6.035   6.407  -0.810  0.00  0.00    +0.044 C 
ATOM      2  C   UNL     1      -5.354   5.141  -0.359  0.00  0.00    -0.050 A 
ATOM      3  C   UNL     1      -5.426   4.753   0.966  0.00  0.00    +0.005 A 
ATOM      4  C   UNL     1      -4.804   3.592   1.379  0.00  0.00    +0.023 A 
ATOM      5  C   UNL     1      -4.106   2.813   0.462  0.00  0.00    +0.034 A 
ATOM      6  C   UNL     1      -4.031   3.204  -0.866  0.00  0.00    +0.014 A 
ATOM      7  C   UNL     1      -4.659   4.370  -1.271  0.00  0.00    +0.012 A 
ATOM      8  C   UNL     1      -3.280   2.389  -1.885  0.00  0.00    +0.216 C 
ATOM      9  C   UNL     1      -3.104   0.951  -1.397  0.00  0.00    +0.029 C 
ATOM     10  C   UNL     1      -2.513   0.977   0.019  0.00  0.00    +0.110 C 
ATOM     11  N   UNL     1      -3.486   1.637   0.901  0.00  0.00    -0.336 N 
ATOM     12  C   UNL     1      -2.155   0.203  -2.335  0.00  0.00    +0.017 C 
ATOM     13  C   UNL     1      -4.463   0.248  -1.372  0.00  0.00    +0.017 C 
ATOM     14  H   UNL     1      -3.695   1.262   1.771  0.00  0.00    +0.147 HD
ENDROOT
BRANCH  10  15
ATOM     15  C   UNL     1      -1.219   1.750   0.017  0.00  0.00    -0.023 A 
ATOM     16  C   UNL     1      -1.242   3.133   0.032  0.00  0.00    +0.009 A 
ATOM     17  C   UNL     1      -0.058   3.846   0.024  0.00  0.00    +0.050 A 
ATOM     18  C   UNL     1       1.155   3.177   0.008  0.00  0.00    +0.166 A 
ATOM     19  C   UNL     1       1.178   1.784   0.000  0.00  0.00    +0.167 A 
ATOM     20  C   UNL     1      -0.013   1.076   0.008  0.00  0.00    +0.055 A 
ATOM     21  O   UNL     1       2.478   1.369  -0.015  0.00  0.00    -0.453 OA
ATOM     22  C   UNL     1       3.243   2.517  -0.428  0.00  0.00    +0.466 C 
ATOM     23  O   UNL     1       2.441   3.634  -0.002  0.00  0.00    -0.453 OA
ENDBRANCH  10  15
BRANCH   8  24
ATOM     24  O   UNL     1      -1.974   2.983  -2.106  0.00  0.00    -0.456 OA
BRANCH  24  25
ATOM     25  C   UNL     1      -1.885   3.923  -3.060  0.00  0.00    +0.305 C 
ATOM     26  O   UNL     1      -2.866   4.239  -3.690  0.00  0.00    -0.251 OA
ATOM     27  C   UNL     1      -0.561   4.585  -3.345  0.00  0.00    +0.136 C 
ENDBRANCH  24  25
ENDBRANCH   8  24
TORSDOF 3
