REMARK  Name = ZINC37023703
REMARK  9 active torsions:
REMARK  status: ('A' for Active; 'I' for Inactive)
REMARK    1  A    between atoms: C_1  and  C_2
REMARK    2  A    between atoms: C_5  and  O_9
REMARK    3  A    between atoms: C_7  and  C_8
REMARK    4  A    between atoms: O_9  and  C_10
REMARK    5  A    between atoms: C_10  and  C_11
REMARK    6  A    between atoms: C_11  and  C_12
REMARK    7  A    between atoms: C_12  and  S_13
REMARK    8  A    between atoms: S_13  and  C_14
REMARK    9  A    between atoms: C_20  and  N_22
REMARK                            x       y       z     vdW  Elec       q    Type
REMARK                         _______ _______ _______ _____ _____    ______ ____
ROOT
ATOM      1  C   UNL     1       0.081  -6.976  -2.472  0.00  0.00    +0.080 C 
ENDROOT
BRANCH   1   2
ATOM      2  C   UNL     1       0.079  -6.289  -1.105  0.00  0.00    +0.052 C 
BRANCH   2   3
ATOM      3  C   UNL     1       0.058  -4.771  -1.298  0.00  0.00    +0.230 C 
BRANCH   3   4
ATOM      4  O   UNL     1       0.057  -4.129  -0.021  0.00  0.00    -0.492 OA
BRANCH   4   9
ATOM      5  C   UNL     1      -0.018   1.503   0.010  0.00  0.00    +0.044 C 
ATOM      6  C   UNL     1       0.002  -0.004   0.002  0.00  0.00    -0.047 A 
ATOM      7  C   UNL     1       0.006  -0.688  -1.200  0.00  0.00    +0.007 A 
ATOM      8  C   UNL     1       0.024  -2.069  -1.210  0.00  0.00    +0.046 A 
ATOM      9  C   UNL     1       0.039  -2.770  -0.013  0.00  0.00    +0.121 A 
ATOM     10  C   UNL     1       0.036  -2.082   1.191  0.00  0.00    +0.049 A 
ATOM     11  C   UNL     1       0.023  -0.701   1.196  0.00  0.00    -0.044 A 
ATOM     12  C   UNL     1       0.025   0.048   2.504  0.00  0.00    +0.044 C 
ENDBRANCH   4   9
ENDBRANCH   3   4
ENDBRANCH   2   3
ENDBRANCH   1   2
BRANCH   1  13
ATOM     13  S   UNL     1       0.105  -8.775  -2.245  0.00  0.00    -0.088 S 
BRANCH  13  14
ATOM     14  C   UNL     1       0.105  -9.413  -3.887  0.00  0.00    +0.171 A 
ATOM     15  N   UNL     1       0.116 -10.761  -4.080  0.00  0.00    -0.302 N 
ATOM     16  H   UNL     1       0.123 -11.359  -3.316  0.00  0.00    +0.171 HD
ATOM     17  C   UNL     1       0.116 -11.267  -5.330  0.00  0.00    +0.254 A 
ATOM     18  O   UNL     1       0.126 -12.475  -5.512  0.00  0.00    -0.268 OA
ATOM     19  C   UNL     1       0.105 -10.385  -6.416  0.00  0.00    +0.113 A 
ATOM     20  C   UNL     1       0.094  -9.020  -6.166  0.00  0.00    +0.124 A 
ATOM     21  N   UNL     1       0.089  -8.576  -4.904  0.00  0.00    -0.209 NA
BRANCH  20  22
ATOM     22  N   UNL     1       0.083  -8.124  -7.216  0.00  0.00    -0.343 N 
ATOM     23  H   UNL     1       0.083  -8.448  -8.130  0.00  0.00    +0.144 HD
ATOM     24  H   UNL     1       0.075  -7.170  -7.040  0.00  0.00    +0.144 HD
ENDBRANCH  20  22
ENDBRANCH  13  14
ENDBRANCH   1  13
TORSDOF 7
