REMARK  Name = ZINC32738104
REMARK  6 active torsions:
REMARK  status: ('A' for Active; 'I' for Inactive)
REMARK    1  A    between atoms: C_1  and  C_2
REMARK    2  A    between atoms: N_11  and  C_15
REMARK    3  A    between atoms: C_15  and  C_16
REMARK    4  A    between atoms: N_18  and  C_19
REMARK    5  A    between atoms: C_21  and  C_30
REMARK    6  A    between atoms: C_24  and  N_25
REMARK                            x       y       z     vdW  Elec       q    Type
REMARK                         _______ _______ _______ _____ _____    ______ ____
ROOT
ATOM      1  C   UNL     1      -1.023   0.501   5.560  0.00  0.00    +0.235 C 
ATOM      2  O   UNL     1      -1.453   1.615   5.348  0.00  0.00    -0.274 OA
ATOM      3  N   UNL     1      -0.878   0.064   6.827  0.00  0.00    -0.283 N 
ATOM      4  H   UNL     1      -0.576  -0.976   7.018  0.00  0.00    +0.155 HD
ENDROOT
BRANCH   3   5
ATOM      5  C   UNL     1      -1.113   0.934   7.900  0.00  0.00    +0.055 A 
ATOM      6  C   UNL     1      -0.985   2.304   7.725  0.00  0.00    +0.037 A 
ATOM      7  C   UNL     1      -1.222   3.161   8.783  0.00  0.00    +0.057 A 
ATOM      8  C   UNL     1      -1.577   2.657  10.021  0.00  0.00    +0.014 A 
ATOM      9  C   UNL     1      -1.703   1.293  10.206  0.00  0.00    +0.025 A 
ATOM     10  C   UNL     1      -1.472   0.425   9.148  0.00  0.00    +0.051 A 
BRANCH  10  11
ATOM     11  N   UNL     1      -1.597  -0.956   9.332  0.00  0.00    -0.328 N 
ATOM     12  C   UNL     1      -2.153  -1.265  10.675  0.00  0.00    +0.105 C 
ATOM     13  C   UNL     1      -2.702  -2.704  10.508  0.00  0.00    +0.020 C 
ATOM     14  C   UNL     1      -3.276  -2.691   9.072  0.00  0.00    +0.020 C 
ATOM     15  C   UNL     1      -2.548  -1.536   8.359  0.00  0.00    +0.105 C 
ENDBRANCH  10  11
BRANCH   7  16
ATOM     16  C   UNL     1      -1.088   4.650   8.589  0.00  0.00    +0.417 C 
ATOM     17  F   UNL     1      -1.369   5.304   9.793  0.00  0.00    -0.166 F 
ATOM     18  F   UNL     1       0.218   4.952   8.188  0.00  0.00    -0.166 F 
ATOM     19  F   UNL     1      -1.987   5.075   7.606  0.00  0.00    -0.166 F 
ENDBRANCH   7  16
ENDBRANCH   3   5
BRANCH   1  20
ATOM     20  C   UNL     1      -0.651  -0.394   4.407  0.00  0.00    +0.214 C 
BRANCH  20  30
ATOM     21  C   UNL     1      -1.526   3.557   2.538  0.00  0.00    +0.010 C 
ATOM     22  C   UNL     1      -0.762   3.106   1.291  0.00  0.00    +0.018 C 
ATOM     23  C   UNL     1      -1.492   3.599   0.040  0.00  0.00    +0.006 C 
ATOM     24  C   UNL     1      -0.738   3.130  -1.207  0.00  0.00    +0.000 C 
ATOM     25  C   UNL     1      -0.687   1.601  -1.227  0.00  0.00    +0.003 C 
ATOM     26  C   UNL     1       0.046   1.099   0.019  0.00  0.00    +0.035 C 
ATOM     27  C   UNL     1      -0.681   1.583   1.269  0.00  0.00    +0.115 C 
ATOM     28  C   UNL     1       0.012   1.075   2.512  0.00  0.00    +0.247 C 
ATOM     29  O   UNL     1       1.148   1.308   2.866  0.00  0.00    -0.273 OA
ATOM     30  N   UNL     1      -0.899   0.307   3.144  0.00  0.00    -0.215 N 
ATOM     31  C   UNL     1      -2.057   0.264   2.475  0.00  0.00    +0.310 C 
ATOM     32  O   UNL     1      -3.030  -0.363   2.846  0.00  0.00    -0.252 OA
ATOM     33  N   UNL     1      -2.024   0.994   1.344  0.00  0.00    -0.285 N 
ATOM     34  H   UNL     1      -2.760   1.200   0.552  0.00  0.00    +0.151 HD
ENDBRANCH  20  30
ENDBRANCH   1  20
TORSDOF 5
