REMARK  Name = ZINC65712977
REMARK  10 active torsions:
REMARK  status: ('A' for Active; 'I' for Inactive)
REMARK    1  A    between atoms: C_1  and  C_2
REMARK    2  A    between atoms: C_5  and  C_27
REMARK    3  A    between atoms: C_7  and  N_8
REMARK    4  A    between atoms: C_9  and  C_11
REMARK    5  A    between atoms: N_13  and  C_14
REMARK    6  A    between atoms: C_14  and  C_15
REMARK    7  A    between atoms: C_21  and  C_26
REMARK    8  A    between atoms: C_22  and  C_25
REMARK    9  A    between atoms: C_27  and  O_29
REMARK   10  A    between atoms: O_29  and  C_30
REMARK                            x       y       z     vdW  Elec       q    Type
REMARK                         _______ _______ _______ _____ _____    ______ ____
ROOT
ATOM      1  C   UNL     1      -0.166   0.061   4.869  0.00  0.00    +0.300 C 
ATOM      2  O   UNL     1      -0.182   1.275   4.870  0.00  0.00    -0.265 OA
ATOM      3  N   UNL     1      -0.248  -0.614   6.033  0.00  0.00    -0.303 N 
ATOM      4  H   UNL     1      -0.235  -1.584   6.033  0.00  0.00    +0.149 HD
ENDROOT
BRANCH   1   6
ATOM      5  N   UNL     1       0.025  -0.009   2.416  0.00  0.00    -0.277 N 
ATOM      6  C   UNL     1      -0.056  -0.684   3.580  0.00  0.00    +0.303 C 
ATOM      7  O   UNL     1      -0.040  -1.897   3.579  0.00  0.00    -0.265 OA
ATOM      8  H   UNL     1       0.079   0.960   2.420  0.00  0.00    +0.155 HD
BRANCH   5  15
ATOM      9  C   UNL     1      -1.267   1.183   0.184  0.00  0.00    +0.045 C 
ATOM     10  C   UNL     1      -0.587  -0.158   0.086  0.00  0.00    -0.029 A 
ATOM     11  C   UNL     1      -0.577  -0.839  -1.117  0.00  0.00    +0.006 A 
ATOM     12  C   UNL     1       0.043  -2.067  -1.215  0.00  0.00    +0.015 A 
ATOM     13  C   UNL     1       0.664  -2.628  -0.097  0.00  0.00    +0.061 A 
ATOM     14  C   UNL     1       0.654  -1.941   1.117  0.00  0.00    +0.038 A 
ATOM     15  C   UNL     1       0.033  -0.704   1.204  0.00  0.00    +0.038 A 
BRANCH  13  16
ATOM     16  C   UNL     1       1.328  -3.944  -0.198  0.00  0.00    +0.339 C 
ATOM     17  O   UNL     1       1.867  -4.429   0.776  0.00  0.00    -0.245 OA
BRANCH  16  18
ATOM     18  O   UNL     1       1.335  -4.605  -1.372  0.00  0.00    -0.464 OA
ATOM     19  C   UNL     1       1.996  -5.872  -1.398  0.00  0.00    +0.280 C 
ENDBRANCH  16  18
ENDBRANCH  13  16
ENDBRANCH   5  15
ENDBRANCH   1   6
BRANCH   3  20
ATOM     20  C   UNL     1      -0.355   0.117   7.298  0.00  0.00    +0.140 C 
BRANCH  20  21
ATOM     21  C   UNL     1      -0.431  -0.864   8.440  0.00  0.00    -0.030 A 
ATOM     22  C   UNL     1      -1.667  -1.332   8.864  0.00  0.00    +0.007 A 
ATOM     23  C   UNL     1      -1.759  -2.228   9.906  0.00  0.00    +0.026 A 
ATOM     24  C   UNL     1      -0.603  -2.671  10.541  0.00  0.00    +0.047 A 
ATOM     25  C   UNL     1       0.647  -2.194  10.107  0.00  0.00    +0.003 A 
ATOM     26  C   UNL     1       0.717  -1.289   9.045  0.00  0.00    +0.015 A 
ATOM     27  C   UNL     1       1.646  -2.838  10.963  0.00  0.00    -0.022 A 
ATOM     28  C   UNL     1       0.979  -3.626  11.820  0.00  0.00    +0.017 A 
ATOM     29  N   UNL     1      -0.366  -3.539  11.583  0.00  0.00    -0.358 N 
ATOM     30  H   UNL     1      -1.051  -4.018  12.076  0.00  0.00    +0.166 HD
ATOM     31  C   UNL     1       1.616  -4.480  12.886  0.00  0.00    +0.063 C 
ATOM     32  C   UNL     1       3.140  -2.652  10.893  0.00  0.00    +0.046 C 
ENDBRANCH  20  21
ENDBRANCH   3  20
TORSDOF 6
