REMARK  Name = ZINC45210653
REMARK  3 active torsions:
REMARK  status: ('A' for Active; 'I' for Inactive)
REMARK    1  A    between atoms: C_1  and  C_2
REMARK    2  A    between atoms: C_7  and  N_10
REMARK    3  A    between atoms: C_11  and  C_13
REMARK                            x       y       z     vdW  Elec       q    Type
REMARK                         _______ _______ _______ _____ _____    ______ ____
ROOT
ATOM      1  N   UNL     1       1.434  -2.520   0.024  0.00  0.00    -0.308 N 
ATOM      2  C   UNL     1       2.034  -3.727   0.018  0.00  0.00    +0.250 C 
ATOM      3  O   UNL     1       2.085  -4.386   1.039  0.00  0.00    -0.270 OA
ATOM      4  H   UNL     1       1.459  -1.962  -0.769  0.00  0.00    +0.149 HD
ENDROOT
BRANCH   2   5
ATOM      5  C   UNL     1       2.626  -4.248  -1.224  0.00  0.00    +0.101 A 
ATOM      6  C   UNL     1       3.141  -5.541  -1.276  0.00  0.00    +0.020 A 
ATOM      7  C   UNL     1       3.695  -6.000  -2.471  0.00  0.00    +0.018 A 
ATOM      8  C   UNL     1       3.728  -5.192  -3.561  0.00  0.00    +0.086 A 
ATOM      9  N   UNL     1       3.229  -3.934  -3.518  0.00  0.00    -0.328 N 
ATOM     10  C   UNL     1       2.678  -3.443  -2.392  0.00  0.00    +0.261 A 
ATOM     11  O   UNL     1       2.229  -2.310  -2.374  0.00  0.00    -0.267 OA
ATOM     12  H   UNL     1       3.266  -3.378  -4.312  0.00  0.00    +0.168 HD
ENDBRANCH   2   5
BRANCH   1  18
ATOM     13  C   UNL     1      -0.080   1.501  -0.008  0.00  0.00    +0.007 C 
ATOM     14  C   UNL     1      -0.042  -0.028  -0.009  0.00  0.00    -0.012 C 
ATOM     15  C   UNL     1      -1.471  -0.575   0.008  0.00  0.00    +0.003 C 
ATOM     16  C   UNL     1      -1.432  -2.104   0.006  0.00  0.00    +0.002 C 
ATOM     17  C   UNL     1      -0.683  -2.597   1.246  0.00  0.00    +0.022 C 
ATOM     18  C   UNL     1       0.746  -2.050   1.229  0.00  0.00    +0.073 C 
ATOM     19  C   UNL     1       0.708  -0.521   1.231  0.00  0.00    +0.025 C 
ENDBRANCH   1  18
TORSDOF 2
