REMARK  Name = ZINC12042674
REMARK  12 active torsions:
REMARK  status: ('A' for Active; 'I' for Inactive)
REMARK    1  A    between atoms: C_1  and  C_2
REMARK    2  A    between atoms: C_2  and  C_3
REMARK    3  A    between atoms: C_2  and  C_4
REMARK    4  A    between atoms: C_4  and  C_5
REMARK    5  A    between atoms: C_5  and  C_6
REMARK    6  A    between atoms: C_6  and  C_17
REMARK    7  A    between atoms: N_9  and  C_13
REMARK    8  A    between atoms: C_13  and  C_14
REMARK    9  A    between atoms: C_14  and  N_70
REMARK   10  A    between atoms: C_15  and  N_70
REMARK   11  A    between atoms: C_16  and  N_70
REMARK   12  A    between atoms: C_23  and  C_25
REMARK                            x       y       z     vdW  Elec       q    Type
REMARK                         _______ _______ _______ _____ _____    ______ ____
ROOT
ATOM      1  C   UNL     1       1.765   2.378   2.425  0.00  0.00    +0.115 C 
ATOM      2  C   UNL     1       2.436   1.032   2.242  0.00  0.00    +0.247 C 
ATOM      3  O   UNL     1       1.905  -0.017   1.944  0.00  0.00    -0.273 OA
ATOM      4  N   UNL     1       3.746   1.243   2.478  0.00  0.00    -0.226 N 
ATOM      5  C   UNL     1       3.993   2.522   2.781  0.00  0.00    +0.309 C 
ATOM      6  O   UNL     1       5.100   2.955   3.034  0.00  0.00    -0.252 OA
ATOM      7  N   UNL     1       2.876   3.278   2.778  0.00  0.00    -0.285 N 
ATOM      8  H   UNL     1       2.815   4.227   2.969  0.00  0.00    +0.151 HD
ENDROOT
BRANCH   1   9
ATOM      9  C   UNL     1       0.739   2.319   3.559  0.00  0.00    +0.024 C 
ATOM     10  C   UNL     1       0.129   3.706   3.767  0.00  0.00    +0.025 C 
ATOM     11  C   UNL     1      -0.922   3.635   4.880  0.00  0.00    +0.108 C 
ATOM     12  N   UNL     1      -0.301   3.063   6.082  0.00  0.00    -0.301 N 
ATOM     13  C   UNL     1       0.394   1.773   5.972  0.00  0.00    +0.108 C 
ATOM     14  C   UNL     1       1.430   1.865   4.847  0.00  0.00    +0.025 C 
ATOM     15  C   UNL     1      -0.366   3.709   7.263  0.00  0.00    +0.219 C 
ATOM     16  O   UNL     1      -0.865   4.813   7.323  0.00  0.00    -0.275 OA
BRANCH  15  17
ATOM     17  C   UNL     1       0.180   3.060   8.508  0.00  0.00    +0.075 C 
ATOM     18  C   UNL     1      -0.880   2.123   9.124  0.00  0.00    +0.013 C 
ATOM     19  C   UNL     1      -0.697   2.295  10.652  0.00  0.00    +0.001 C 
ATOM     20  C   UNL     1      -0.394   3.808  10.792  0.00  0.00    +0.001 C 
ATOM     21  C   UNL     1       0.489   4.131   9.569  0.00  0.00    +0.013 C 
ENDBRANCH  15  17
ENDBRANCH   1   9
BRANCH   1  22
ATOM     22  C   UNL     1       1.099   2.830   1.123  0.00  0.00    +0.036 C 
BRANCH  22  23
ATOM     23  C   UNL     1       2.145   2.881   0.007  0.00  0.00    +0.005 C 
BRANCH  23  25
ATOM     24  C   UNL     1       0.981   4.770  -1.141  0.00  0.00    +0.007 C 
ATOM     25  C   UNL     1       1.480   3.332  -1.295  0.00  0.00    -0.017 C 
ATOM     26  C   UNL     1       2.495   3.264  -2.437  0.00  0.00    +0.007 C 
ENDBRANCH  23  25
ENDBRANCH  22  23
ENDBRANCH   1  22
BRANCH   4  27
ATOM     27  C   UNL     1       4.773   0.200   2.411  0.00  0.00    +0.099 C 
BRANCH  27  28
ATOM     28  C   UNL     1       5.335   0.128   0.990  0.00  0.00    -0.060 C 
BRANCH  28  31
ATOM     29  C   UNL     1       5.779  -2.248   1.134  0.00  0.00    -0.097 C 
ATOM     30  C   UNL     1       7.092  -0.859  -0.352  0.00  0.00    -0.097 C 
ATOM     31  N   UNL     1       6.384  -0.913   0.944  0.00  0.00    +0.377 N 
ATOM     32  H   UNL     1       7.057  -0.741   1.700  0.00  0.00    -0.083 HD
ENDBRANCH  28  31
ENDBRANCH  27  28
ENDBRANCH   4  27
TORSDOF 8
