REMARK  Name = ZINC39681164
REMARK  5 active torsions:
REMARK  status: ('A' for Active; 'I' for Inactive)
REMARK    1  A    between atoms: C_1  and  C_2
REMARK    2  A    between atoms: C_2  and  C_4
REMARK    3  A    between atoms: C_2  and  N_10
REMARK    4  A    between atoms: C_11  and  C_13
REMARK    5  A    between atoms: C_24  and  C_26
REMARK                            x       y       z     vdW  Elec       q    Type
REMARK                         _______ _______ _______ _____ _____    ______ ____
ROOT
ATOM      1  C   UNL     1      -3.443  -1.176   1.197  0.00  0.00    +0.100 C 
ATOM      2  C   UNL     1      -4.400  -0.152   0.547  0.00  0.00    +0.121 C 
ATOM      3  N   UNL     1      -5.639  -0.233   1.355  0.00  0.00    -0.295 N 
ATOM      4  C   UNL     1      -5.160  -0.382   2.750  0.00  0.00    +0.115 C 
ATOM      5  C   UNL     1      -3.945  -1.324   2.643  0.00  0.00    -0.004 C 
ATOM      6  C   UNL     1      -2.859  -0.896   3.625  0.00  0.00    -0.010 C 
ATOM      7  C   UNL     1      -3.360  -1.107   5.057  0.00  0.00    -0.082 C 
ATOM      8  N   UNL     1      -3.698  -2.522   5.255  0.00  0.00    +0.379 N 
ATOM      9  C   UNL     1      -4.807  -2.900   4.371  0.00  0.00    -0.082 C 
ATOM     10  C   UNL     1      -4.367  -2.765   2.911  0.00  0.00    -0.010 C 
ATOM     11  C   UNL     1      -6.914  -0.183   0.920  0.00  0.00    +0.265 C 
ATOM     12  O   UNL     1      -7.829  -0.178   1.720  0.00  0.00    -0.268 OA
ATOM     13  H   UNL     1      -2.893  -3.092   5.045  0.00  0.00    -0.086 HD
ATOM     14  H   UNL     1      -3.970  -2.669   6.216  0.00  0.00    -0.086 HD
ENDROOT
BRANCH  11  15
ATOM     15  C   UNL     1      -7.200  -0.132  -0.534  0.00  0.00    +0.126 A 
ATOM     16  C   UNL     1      -8.524   0.034  -0.967  0.00  0.00    +0.033 A 
ATOM     17  C   UNL     1      -8.800   0.083  -2.303  0.00  0.00    +0.012 A 
ATOM     18  C   UNL     1      -7.730  -0.038  -3.209  0.00  0.00    +0.000 A 
ATOM     19  C   UNL     1      -7.941   0.003  -4.596  0.00  0.00    +0.010 A 
ATOM     20  C   UNL     1      -6.882  -0.117  -5.443  0.00  0.00    +0.001 A 
ATOM     21  C   UNL     1      -5.588  -0.280  -4.952  0.00  0.00    +0.002 A 
ATOM     22  C   UNL     1      -5.344  -0.325  -3.615  0.00  0.00    +0.028 A 
ATOM     23  C   UNL     1      -6.413  -0.205  -2.706  0.00  0.00    +0.072 A 
ATOM     24  N   UNL     1      -6.203  -0.240  -1.390  0.00  0.00    -0.242 NA
ENDBRANCH  11  15
BRANCH   1  26
ATOM     25  N   UNL     1      -0.994  -1.511   1.299  0.00  0.00    -0.308 N 
ATOM     26  C   UNL     1      -2.029  -0.655   1.183  0.00  0.00    +0.219 C 
ATOM     27  O   UNL     1      -1.822   0.534   1.066  0.00  0.00    -0.275 OA
ATOM     28  H   UNL     1      -1.159  -2.462   1.393  0.00  0.00    +0.149 HD
BRANCH  25  30
ATOM     29  C   UNL     1       0.856  -0.857  -0.161  0.00  0.00    +0.033 C 
ATOM     30  C   UNL     1       0.381  -1.004   1.286  0.00  0.00    +0.100 C 
BRANCH  30  31
ATOM     31  C   UNL     1       1.279  -1.970   2.014  0.00  0.00    -0.025 A 
ATOM     32  C   UNL     1       1.121  -3.339   1.861  0.00  0.00    +0.025 A 
ATOM     33  C   UNL     1       1.964  -4.195   2.545  0.00  0.00    +0.111 A 
ATOM     34  N   UNL     1       2.909  -3.722   3.335  0.00  0.00    -0.263 NA
ATOM     35  C   UNL     1       3.088  -2.427   3.504  0.00  0.00    +0.111 A 
ATOM     36  C   UNL     1       2.287  -1.511   2.848  0.00  0.00    +0.025 A 
ENDBRANCH  30  31
ENDBRANCH  25  30
ENDBRANCH   1  26
TORSDOF 4
