REMARK  Name = ZINC12272277
REMARK  4 active torsions:
REMARK  status: ('A' for Active; 'I' for Inactive)
REMARK    1  A    between atoms: C_4  and  C_7
REMARK    2  A    between atoms: C_7  and  C_9
REMARK    3  A    between atoms: C_7  and  N_14
REMARK    4  A    between atoms: C_15  and  C_17
REMARK                            x       y       z     vdW  Elec       q    Type
REMARK                         _______ _______ _______ _____ _____    ______ ____
ROOT
ATOM      1  C   UNL     1       1.180   2.090   0.002  0.00  0.00    +0.039 A 
ATOM      2  C   UNL     1      -0.017   1.362   0.009  0.00  0.00    +0.014 A 
ATOM      3  C   UNL     1       0.002  -0.004   0.002  0.00  0.00    +0.016 A 
ATOM      4  C   UNL     1       1.221  -0.681   0.003  0.00  0.00    +0.065 A 
ATOM      5  C   UNL     1       2.437   0.035   0.019  0.00  0.00    +0.079 A 
ATOM      6  C   UNL     1       2.406   1.436   0.006  0.00  0.00    +0.041 A 
ATOM      7  N   UNL     1       3.592  -0.657   0.077  0.00  0.00    -0.233 NA
ATOM      8  C   UNL     1       3.632  -1.963   0.198  0.00  0.00    +0.113 A 
ATOM      9  N   UNL     1       2.520  -2.727   0.137  0.00  0.00    -0.296 N 
ATOM     10  C   UNL     1       1.302  -2.150  -0.011  0.00  0.00    +0.262 A 
ATOM     11  O   UNL     1       0.299  -2.832  -0.133  0.00  0.00    -0.267 OA
ATOM     12  C   UNL     1       2.537  -4.202   0.189  0.00  0.00    +0.126 C 
ATOM     13  C   UNL     1       2.771  -4.654   1.638  0.00  0.00    +0.022 C 
ATOM     14  C   UNL     1       4.266  -4.752   1.933  0.00  0.00    +0.002 C 
ATOM     15  C   UNL     1       5.175  -5.001   0.735  0.00  0.00    +0.000 C 
ATOM     16  C   UNL     1       5.253  -3.845  -0.259  0.00  0.00    +0.008 C 
ATOM     17  C   UNL     1       4.997  -2.521   0.475  0.00  0.00    +0.074 C 
ENDROOT
BRANCH   1  19
ATOM     18  N   UNL     1      -0.047   4.214  -0.011  0.00  0.00    -0.300 N 
ATOM     19  C   UNL     1       1.138   3.573  -0.009  0.00  0.00    +0.245 C 
ATOM     20  O   UNL     1       2.173   4.210  -0.015  0.00  0.00    -0.270 OA
ATOM     21  H   UNL     1      -0.873   3.706  -0.006  0.00  0.00    +0.150 HD
BRANCH  18  22
ATOM     22  C   UNL     1      -0.088   5.679  -0.021  0.00  0.00    +0.140 C 
BRANCH  22  26
ATOM     23  C   UNL     1      -3.780   6.987  -1.726  0.00  0.00    +0.000 A 
ATOM     24  C   UNL     1      -2.606   7.653  -2.026  0.00  0.00    +0.000 A 
ATOM     25  C   UNL     1      -1.411   7.229  -1.474  0.00  0.00    +0.006 A 
ATOM     26  C   UNL     1      -1.391   6.140  -0.623  0.00  0.00    -0.022 A 
ATOM     27  C   UNL     1      -2.564   5.472  -0.327  0.00  0.00    +0.006 A 
ATOM     28  C   UNL     1      -3.759   5.898  -0.875  0.00  0.00    +0.000 A 
ENDBRANCH  22  26
BRANCH  22  29
ATOM     29  C   UNL     1       0.024   6.194   1.390  0.00  0.00    +0.014 A 
ATOM     30  C   UNL     1       0.717   7.263   1.856  0.00  0.00    +0.013 A 
ATOM     31  C   UNL     1       0.674   7.551   3.207  0.00  0.00    +0.008 A 
ATOM     32  C   UNL     1      -0.059   6.758   4.026  0.00  0.00    +0.045 A 
ATOM     33  S   UNL     1      -0.726   5.562   2.881  0.00  0.00    -0.099 S 
ENDBRANCH  22  29
ENDBRANCH  18  22
ENDBRANCH   1  19
TORSDOF 4
