REMARK  Name = ZINC39568849
REMARK  23 active torsions:
REMARK  status: ('A' for Active; 'I' for Inactive)
REMARK    1  A    between atoms: C_1  and  C_2
REMARK    2  A    between atoms: C_2  and  O_3
REMARK    3  A    between atoms: O_3  and  C_4
REMARK    4  A    between atoms: C_4  and  C_6
REMARK    5  A    between atoms: C_6  and  C_8
REMARK    6  A    between atoms: C_6  and  N_38
REMARK    7  A    between atoms: C_8  and  C_9
REMARK    8  A    between atoms: C_15  and  N_24
REMARK    9  A    between atoms: C_18  and  C_19
REMARK   10  A    between atoms: C_19  and  C_20
REMARK   11  A    between atoms: C_19  and  C_21
REMARK   12  A    between atoms: C_19  and  C_22
REMARK   13  A    between atoms: N_24  and  C_25
REMARK   14  A    between atoms: N_24  and  C_26
REMARK   15  A    between atoms: C_26  and  C_28
REMARK   16  A    between atoms: C_26  and  C_31
REMARK   17  A    between atoms: C_28  and  C_29
REMARK   18  A    between atoms: C_28  and  C_30
REMARK   19  A    between atoms: C_31  and  O_33
REMARK   20  A    between atoms: O_33  and  C_34
REMARK   21  A    between atoms: C_34  and  C_35
REMARK   22  A    between atoms: C_34  and  C_36
REMARK   23  A    between atoms: C_34  and  C_37
REMARK                            x       y       z     vdW  Elec       q    Type
REMARK                         _______ _______ _______ _____ _____    ______ ____
ROOT
ATOM      1  C   UNL     1       2.587  -1.746   3.528  0.00  0.00    -0.038 C 
ATOM      2  C   UNL     1       2.442  -2.996   3.984  0.00  0.00    +0.111 C 
ATOM      3  N   UNL     1       3.001  -3.169   5.196  0.00  0.00    -0.259 NA
ATOM      4  C   UNL     1       3.695  -2.148   5.576  0.00  0.00    +0.058 C 
ATOM      5  C   UNL     1       3.313  -1.013   4.625  0.00  0.00    +0.109 C 
ATOM      6  C   UNL     1       4.603  -0.383   4.180  0.00  0.00    +0.020 C 
ATOM      7  C   UNL     1       5.658  -0.393   5.031  0.00  0.00    +0.020 C 
ATOM      8  C   UNL     1       5.623  -1.019   6.287  0.00  0.00    +0.008 C 
ATOM      9  C   UNL     1       4.633  -1.924   6.594  0.00  0.00    -0.016 C 
ENDROOT
BRANCH   9  10
ATOM     10  C   UNL     1       4.571  -2.635   7.921  0.00  0.00    +0.010 C 
ATOM     11  C   UNL     1       5.730  -2.170   8.804  0.00  0.00    +0.020 C 
ATOM     12  C   UNL     1       3.243  -2.312   8.611  0.00  0.00    +0.020 C 
BRANCH  10  13
ATOM     13  C   UNL     1       4.672  -4.122   7.699  0.00  0.00    -0.024 C 
ATOM     14  C   UNL     1       5.656  -4.799   8.238  0.00  0.00    +0.005 C 
ENDBRANCH  10  13
ENDBRANCH   9  10
BRANCH   6  15
ATOM     15  N   UNL     1       4.711   0.190   2.939  0.00  0.00    -0.322 N 
ATOM     16  C   UNL     1       3.706   1.157   2.489  0.00  0.00    +0.130 C 
BRANCH  15  17
ATOM     17  C   UNL     1       5.830  -0.165   2.063  0.00  0.00    +0.185 C 
BRANCH  17  18
ATOM     18  C   UNL     1       5.300  -0.908   0.835  0.00  0.00    +0.014 C 
ATOM     19  C   UNL     1       6.438  -1.111  -0.168  0.00  0.00    +0.009 C 
ATOM     20  C   UNL     1       4.748  -2.270   1.261  0.00  0.00    +0.009 C 
ENDBRANCH  17  18
BRANCH  17  21
ATOM     21  C   UNL     1       6.541   1.089   1.623  0.00  0.00    +0.329 C 
ATOM     22  O   UNL     1       6.153   2.168   2.003  0.00  0.00    -0.249 OA
BRANCH  21  23
ATOM     23  O   UNL     1       7.606   1.007   0.810  0.00  0.00    -0.458 OA
BRANCH  23  24
ATOM     24  C   UNL     1       8.231   2.235   0.434  0.00  0.00    +0.105 C 
ATOM     25  C   UNL     1       8.726   2.961   1.687  0.00  0.00    +0.055 C 
ATOM     26  C   UNL     1       9.417   1.943  -0.488  0.00  0.00    +0.055 C 
ATOM     27  C   UNL     1       7.220   3.118  -0.301  0.00  0.00    +0.055 C 
ENDBRANCH  23  24
ENDBRANCH  21  23
ENDBRANCH  17  21
ENDBRANCH  15  17
ENDBRANCH   6  15
BRANCH   1  28
ATOM     28  C   UNL     1       2.130  -1.194   2.203  0.00  0.00    +0.028 C 
BRANCH  28  29
ATOM     29  C   UNL     1       0.783  -0.490   2.382  0.00  0.00    +0.040 C 
BRANCH  29  30
ATOM     30  N   UNL     1      -0.237  -1.475   2.765  0.00  0.00    +0.387 N 
ATOM     31  H   UNL     1       0.030  -1.915   3.633  0.00  0.00    -0.089 HD
ATOM     32  H   UNL     1      -1.125  -1.011   2.883  0.00  0.00    -0.089 HD
ATOM     33  H   UNL     1      -0.317  -2.175   2.043  0.00  0.00    -0.089 HD
ENDBRANCH  29  30
BRANCH  29  34
ATOM     34  C   UNL     1       0.384   0.168   1.086  0.00  0.00    +0.293 C 
ATOM     35  O   UNL     1      -0.416  -0.369   0.357  0.00  0.00    -0.253 OA
BRANCH  34  36
ATOM     36  O   UNL     1       0.918   1.350   0.741  0.00  0.00    -0.466 OA
BRANCH  36  38
ATOM     37  C   UNL     1       1.206   3.252  -0.722  0.00  0.00    +0.048 C 
ATOM     38  C   UNL     1       0.495   1.915  -0.502  0.00  0.00    +0.228 C 
ENDBRANCH  36  38
ENDBRANCH  34  36
ENDBRANCH  29  34
ENDBRANCH  28  29
ENDBRANCH   1  28
TORSDOF 14
