REMARK  Name = ZINC09135672
REMARK  8 active torsions:
REMARK  status: ('A' for Active; 'I' for Inactive)
REMARK    1  A    between atoms: C_1  and  C_2
REMARK    2  A    between atoms: C_4  and  N_12
REMARK    3  A    between atoms: C_13  and  C_15
REMARK    4  A    between atoms: N_17  and  C_18
REMARK    5  A    between atoms: C_18  and  C_19
REMARK    6  A    between atoms: C_19  and  C_21
REMARK    7  A    between atoms: C_19  and  N_68
REMARK    8  A    between atoms: N_30  and  C_31
REMARK                            x       y       z     vdW  Elec       q    Type
REMARK                         _______ _______ _______ _____ _____    ______ ____
ROOT
ATOM      1  C   UNL     1      -5.818   1.320   0.164  0.00  0.00    +0.299 C 
ATOM      2  O   UNL     1      -5.756   1.928   1.212  0.00  0.00    -0.265 OA
ATOM      3  N   UNL     1      -6.884   1.479  -0.646  0.00  0.00    -0.309 N 
ATOM      4  H   UNL     1      -6.934   0.992  -1.484  0.00  0.00    +0.149 HD
ENDROOT
BRANCH   1   6
ATOM      5  N   UNL     1      -3.647   0.236   0.580  0.00  0.00    -0.277 N 
ATOM      6  C   UNL     1      -4.713   0.395  -0.230  0.00  0.00    +0.303 C 
ATOM      7  O   UNL     1      -4.776  -0.214  -1.278  0.00  0.00    -0.265 OA
ATOM      8  H   UNL     1      -3.626   0.673   1.445  0.00  0.00    +0.155 HD
BRANCH   5  12
ATOM      9  C   UNL     1      -1.901  -3.558  -2.006  0.00  0.00    +0.065 C 
ATOM     10  C   UNL     1      -1.679  -2.397  -1.072  0.00  0.00    +0.041 A 
ATOM     11  C   UNL     1      -2.767  -1.621  -0.689  0.00  0.00    +0.047 A 
ATOM     12  C   UNL     1      -2.579  -0.555   0.174  0.00  0.00    +0.045 A 
ATOM     13  C   UNL     1      -1.264  -0.291   0.625  0.00  0.00    +0.022 A 
ATOM     14  C   UNL     1      -0.990   0.774   1.494  0.00  0.00    +0.012 A 
ATOM     15  C   UNL     1       0.290   0.996   1.906  0.00  0.00    +0.001 A 
ATOM     16  C   UNL     1       1.330   0.177   1.473  0.00  0.00    +0.002 A 
ATOM     17  C   UNL     1       1.099  -0.866   0.629  0.00  0.00    +0.028 A 
ATOM     18  C   UNL     1      -0.209  -1.125   0.183  0.00  0.00    +0.073 A 
ATOM     19  N   UNL     1      -0.464  -2.143  -0.647  0.00  0.00    -0.252 NA
ENDBRANCH   5  12
ENDBRANCH   1   6
BRANCH   3  20
ATOM     20  C   UNL     1      -7.968   2.386  -0.260  0.00  0.00    +0.094 C 
BRANCH  20  21
ATOM     21  C   UNL     1      -8.965   2.510  -1.414  0.00  0.00    -0.020 C 
BRANCH  21  22
ATOM     22  C   UNL     1     -10.131   3.360  -0.982  0.00  0.00    -0.059 A 
ATOM     23  C   UNL     1      -9.985   4.730  -0.866  0.00  0.00    +0.004 A 
ATOM     24  C   UNL     1     -11.052   5.505  -0.468  0.00  0.00    +0.023 A 
ATOM     25  C   UNL     1     -12.284   4.916  -0.179  0.00  0.00    +0.033 A 
ATOM     26  C   UNL     1     -12.427   3.545  -0.301  0.00  0.00    -0.026 A 
ATOM     27  C   UNL     1     -11.350   2.772  -0.705  0.00  0.00    +0.007 A 
ATOM     28  C   UNL     1     -13.734   2.849  -0.015  0.00  0.00    +0.038 C 
ATOM     29  C   UNL     1     -14.656   3.787   0.767  0.00  0.00    +0.024 C 
ATOM     30  C   UNL     1     -14.646   5.152   0.068  0.00  0.00    +0.105 C 
ATOM     31  N   UNL     1     -13.321   5.753   0.233  0.00  0.00    -0.333 N 
ATOM     32  C   UNL     1     -13.246   7.055  -0.442  0.00  0.00    +0.129 C 
ENDBRANCH  21  22
BRANCH  21  37
ATOM     33  C   UNL     1      -7.219   2.268  -3.094  0.00  0.00    -0.078 C 
ATOM     34  C   UNL     1      -7.016   2.792  -4.538  0.00  0.00    -0.020 C 
ATOM     35  C   UNL     1      -8.456   3.125  -4.990  0.00  0.00    -0.020 C 
ATOM     36  C   UNL     1      -9.252   3.319  -3.687  0.00  0.00    -0.078 C 
ATOM     37  N   UNL     1      -8.296   3.137  -2.594  0.00  0.00    +0.385 N 
ATOM     38  H   UNL     1      -7.909   4.046  -2.317  0.00  0.00    -0.081 HD
ENDBRANCH  21  37
ENDBRANCH  20  21
ENDBRANCH   3  20
TORSDOF 6
