REMARK  Name = ZINC29910727
REMARK  9 active torsions:
REMARK  status: ('A' for Active; 'I' for Inactive)
REMARK    1  A    between atoms: C_1  and  C_2
REMARK    2  A    between atoms: C_2  and  C_3
REMARK    3  A    between atoms: C_3  and  C_5
REMARK    4  A    between atoms: C_3  and  N_26
REMARK    5  A    between atoms: C_5  and  N_6
REMARK    6  A    between atoms: C_7  and  C_9
REMARK    7  A    between atoms: C_12  and  S_15
REMARK    8  A    between atoms: S_15  and  N_18
REMARK    9  A    between atoms: N_18  and  C_19
REMARK                            x       y       z     vdW  Elec       q    Type
REMARK                         _______ _______ _______ _____ _____    ______ ____
ROOT
ATOM      1  N   UNL     1      -2.746  -1.464   1.940  0.00  0.00    -0.313 N 
ATOM      2  C   UNL     1      -3.280  -0.563   2.788  0.00  0.00    +0.244 C 
ATOM      3  O   UNL     1      -2.633   0.409   3.128  0.00  0.00    -0.270 OA
ATOM      4  H   UNL     1      -3.331  -2.343   1.632  0.00  0.00    +0.149 HD
ENDROOT
BRANCH   2   5
ATOM      5  C   UNL     1      -4.651  -0.756   3.305  0.00  0.00    +0.037 A 
ATOM      6  C   UNL     1      -5.398  -1.867   2.912  0.00  0.00    +0.015 A 
ATOM      7  C   UNL     1      -6.676  -2.045   3.402  0.00  0.00    +0.029 A 
ATOM      8  C   UNL     1      -7.220  -1.118   4.273  0.00  0.00    +0.109 A 
ATOM      9  C   UNL     1      -6.487  -0.011   4.662  0.00  0.00    +0.029 A 
ATOM     10  C   UNL     1      -5.207   0.175   4.184  0.00  0.00    +0.015 A 
BRANCH   8  11
ATOM     11  S   UNL     1      -8.855  -1.348   4.889  0.00  0.00    +0.072 S 
ATOM     12  O   UNL     1      -9.128  -2.740   4.805  0.00  0.00    -0.150 OA
ATOM     13  O   UNL     1      -8.933  -0.630   6.113  0.00  0.00    -0.150 OA
BRANCH  11  14
ATOM     14  N   UNL     1      -9.887  -0.598   3.833  0.00  0.00    -0.213 N 
ATOM     15  H   UNL     1     -10.557   0.197   4.191  0.00  0.00    +0.174 HD
BRANCH  14  16
ATOM     16  C   UNL     1      -9.906  -0.976   2.487  0.00  0.00    +0.083 A 
ATOM     17  C   UNL     1      -9.635  -2.290   2.129  0.00  0.00    +0.027 A 
ATOM     18  C   UNL     1      -9.658  -2.661   0.798  0.00  0.00    +0.002 A 
ATOM     19  C   UNL     1      -9.942  -1.724  -0.178  0.00  0.00    +0.003 A 
ATOM     20  C   UNL     1     -10.208  -0.413   0.173  0.00  0.00    +0.040 A 
ATOM     21  C   UNL     1     -10.191  -0.035   1.503  0.00  0.00    +0.146 A 
ATOM     22  F   UNL     1     -10.450   1.246   1.846  0.00  0.00    -0.204 F 
ENDBRANCH  14  16
ENDBRANCH  11  14
ENDBRANCH   8  11
ENDBRANCH   2   5
BRANCH   1  23
ATOM     23  C   UNL     1      -1.387  -1.272   1.428  0.00  0.00    +0.089 C 
BRANCH  23  24
ATOM     24  C   UNL     1      -1.073  -2.358   0.397  0.00  0.00    -0.051 C 
BRANCH  24  25
ATOM     25  N   UNL     1      -2.103  -2.352  -0.650  0.00  0.00    +0.385 N 
ATOM     26  C   UNL     1      -2.167  -3.653  -1.335  0.00  0.00    -0.073 C 
ATOM     27  C   UNL     1      -3.467  -3.716  -2.137  0.00  0.00    +0.017 C 
ATOM     28  C   UNL     1      -3.609  -2.478  -2.986  0.00  0.00    -0.048 A 
ATOM     29  C   UNL     1      -4.515  -2.495  -4.035  0.00  0.00    +0.004 A 
ATOM     30  C   UNL     1      -4.678  -1.382  -4.834  0.00  0.00    +0.000 A 
ATOM     31  C   UNL     1      -3.934  -0.243  -4.588  0.00  0.00    +0.000 A 
ATOM     32  C   UNL     1      -3.030  -0.225  -3.544  0.00  0.00    +0.002 A 
ATOM     33  C   UNL     1      -2.864  -1.344  -2.741  0.00  0.00    -0.061 A 
ATOM     34  C   UNL     1      -1.860  -1.279  -1.621  0.00  0.00    -0.042 C 
ATOM     35  H   UNL     1      -3.071  -2.163  -0.164  0.00  0.00    -0.081 HD
ENDBRANCH  24  25
BRANCH  24  37
ATOM     36  C   UNL     1       0.640  -3.207  -1.212  0.00  0.00    +0.002 C 
ATOM     37  C   UNL     1       0.295  -2.084  -0.232  0.00  0.00    -0.017 C 
ENDBRANCH  24  37
ENDBRANCH  23  24
ENDBRANCH   1  23
TORSDOF 8
