REMARK  Name = ZINC29787284
REMARK  8 active torsions:
REMARK  status: ('A' for Active; 'I' for Inactive)
REMARK    1  A    between atoms: C_1  and  C_2
REMARK    2  A    between atoms: N_11  and  C_15
REMARK    3  A    between atoms: C_15  and  C_16
REMARK    4  A    between atoms: N_18  and  C_19
REMARK    5  A    between atoms: C_21  and  C_27
REMARK    6  A    between atoms: C_21  and  C_28
REMARK    7  A    between atoms: C_23  and  C_25
REMARK    8  A    between atoms: C_23  and  C_26
REMARK                            x       y       z     vdW  Elec       q    Type
REMARK                         _______ _______ _______ _____ _____    ______ ____
ROOT
ATOM      1  C   UNL     1       1.129   5.734   2.469  0.00  0.00    +0.231 C 
ATOM      2  O   UNL     1       0.202   4.983   2.686  0.00  0.00    -0.274 OA
ATOM      3  N   UNL     1       1.124   6.977   2.990  0.00  0.00    -0.311 N 
ATOM      4  H   UNL     1       1.965   7.659   2.793  0.00  0.00    +0.149 HD
ENDROOT
BRANCH   3   5
ATOM      5  C   UNL     1      -0.002   7.421   3.820  0.00  0.00    +0.070 C 
ATOM      6  C   UNL     1      -1.108   7.968   2.918  0.00  0.00    +0.009 C 
ATOM      7  C   UNL     1      -2.285   8.459   3.757  0.00  0.00    -0.072 C 
ATOM      8  N   UNL     1      -1.883   9.332   4.840  0.00  0.00    +0.386 N 
ATOM      9  C   UNL     1      -0.692   9.039   5.609  0.00  0.00    -0.072 C 
ATOM     10  C   UNL     1       0.467   8.543   4.747  0.00  0.00    +0.009 C 
ATOM     11  C   UNL     1      -0.983   8.016   6.714  0.00  0.00    -0.010 C 
ATOM     12  C   UNL     1      -0.232  10.341   6.301  0.00  0.00    -0.010 C 
ATOM     13  C   UNL     1      -3.079   7.256   4.281  0.00  0.00    -0.010 C 
ATOM     14  C   UNL     1      -3.224   9.253   2.821  0.00  0.00    -0.010 C 
ATOM     15  H   UNL     1      -1.701  10.343   4.447  0.00  0.00    -0.084 HD
ATOM     16  H   UNL     1      -2.681   9.370   5.595  0.00  0.00    -0.084 HD
ENDBRANCH   3   5
BRANCH   1  17
ATOM     17  C   UNL     1       2.285   5.279   1.616  0.00  0.00    +0.213 C 
BRANCH  17  27
ATOM     18  C   UNL     1      -0.736   2.019   1.269  0.00  0.00    +0.010 C 
ATOM     19  C   UNL     1      -0.019   1.526   0.010  0.00  0.00    +0.018 C 
ATOM     20  C   UNL     1       0.002  -0.004   0.002  0.00  0.00    +0.006 C 
ATOM     21  C   UNL     1       0.737  -0.496  -1.246  0.00  0.00    +0.000 C 
ATOM     22  C   UNL     1       2.176   0.024  -1.230  0.00  0.00    +0.003 C 
ATOM     23  C   UNL     1       2.164   1.555  -1.227  0.00  0.00    +0.035 C 
ATOM     24  C   UNL     1       1.411   2.057  -0.000  0.00  0.00    +0.115 C 
ATOM     25  C   UNL     1       1.412   3.568   0.035  0.00  0.00    +0.247 C 
ATOM     26  O   UNL     1       0.936   4.322  -0.786  0.00  0.00    -0.273 OA
ATOM     27  N   UNL     1       2.053   3.901   1.175  0.00  0.00    -0.215 N 
ATOM     28  C   UNL     1       2.451   2.817   1.851  0.00  0.00    +0.310 C 
ATOM     29  O   UNL     1       3.050   2.862   2.908  0.00  0.00    -0.252 OA
ATOM     30  N   UNL     1       2.113   1.671   1.230  0.00  0.00    -0.285 N 
ATOM     31  H   UNL     1       2.261   0.607   1.468  0.00  0.00    +0.151 HD
ENDBRANCH  17  27
ENDBRANCH   1  17
TORSDOF 3
