REMARK  Name = ZINC38619325
REMARK  9 active torsions:
REMARK  status: ('A' for Active; 'I' for Inactive)
REMARK    1  A    between atoms: C_1  and  O_2
REMARK    2  A    between atoms: O_2  and  C_3
REMARK    3  A    between atoms: C_6  and  N_9
REMARK    4  A    between atoms: N_12  and  C_15
REMARK    5  A    between atoms: C_15  and  C_17
REMARK    6  A    between atoms: C_15  and  C_32
REMARK    7  A    between atoms: C_17  and  N_18
REMARK    8  A    between atoms: N_18  and  S_19
REMARK    9  A    between atoms: S_19  and  C_22
REMARK                            x       y       z     vdW  Elec       q    Type
REMARK                         _______ _______ _______ _____ _____    ______ ____
ROOT
ATOM      1  C   UNL     1      -8.199  -4.285   1.742  0.00  0.00    +0.015 C 
ENDROOT
BRANCH   1   5
ATOM      2  N   UNL     1      -5.746  -4.329  -1.647  0.00  0.00    -0.333 N 
ATOM      3  C   UNL     1      -5.077  -4.251  -0.339  0.00  0.00    +0.086 C 
ATOM      4  C   UNL     1      -6.064  -4.710   0.739  0.00  0.00    -0.059 C 
ATOM      5  N   UNL     1      -7.298  -3.921   0.641  0.00  0.00    +0.389 N 
ATOM      6  C   UNL     1      -7.962  -4.187  -0.641  0.00  0.00    -0.059 C 
ATOM      7  C   UNL     1      -7.066  -3.697  -1.789  0.00  0.00    +0.086 C 
ATOM      8  H   UNL     1      -7.073  -2.939   0.705  0.00  0.00    -0.081 HD
BRANCH   2  12
ATOM      9  C   UNL     1      -3.943  -6.273  -4.863  0.00  0.00    +0.120 A 
ATOM     10  C   UNL     1      -5.240  -5.796  -4.981  0.00  0.00    +0.047 A 
ATOM     11  C   UNL     1      -5.838  -5.152  -3.915  0.00  0.00    +0.027 A 
ATOM     12  C   UNL     1      -5.141  -4.982  -2.727  0.00  0.00    +0.030 A 
ATOM     13  C   UNL     1      -3.842  -5.460  -2.610  0.00  0.00    +0.027 A 
ATOM     14  C   UNL     1      -3.247  -6.109  -3.675  0.00  0.00    +0.047 A 
BRANCH   9  16
ATOM     15  C   UNL     1      -4.128  -7.041  -7.106  0.00  0.00    +0.277 C 
ATOM     16  O   UNL     1      -3.354  -6.907  -5.913  0.00  0.00    -0.495 OA
ENDBRANCH   9  16
ENDBRANCH   2  12
ENDBRANCH   1   5
BRANCH   1  17
ATOM     17  C   UNL     1      -8.467  -5.767   1.703  0.00  0.00    +0.093 A 
ATOM     18  C   UNL     1      -8.419  -6.604   2.755  0.00  0.00    +0.043 A 
ATOM     19  C   UNL     1      -8.736  -7.893   2.268  0.00  0.00    +0.041 A 
ATOM     20  C   UNL     1      -8.957  -7.767   0.948  0.00  0.00    +0.195 A 
ATOM     21  O   UNL     1      -8.799  -6.477   0.612  0.00  0.00    -0.469 OA
ENDBRANCH   1  17
BRANCH   1  22
ATOM     22  C   UNL     1      -9.518  -3.524   1.595  0.00  0.00    +0.098 C 
BRANCH  22  23
ATOM     23  N   UNL     1      -9.247  -2.087   1.518  0.00  0.00    -0.191 NA
ATOM     24  H   UNL     1      -8.386  -1.740   1.800  0.00  0.00    +0.148 HD
BRANCH  23  25
ATOM     25  S   UNL     1     -10.411  -1.054   0.951  0.00  0.00    +0.060 S 
ATOM     26  O   UNL     1      -9.862   0.255   1.025  0.00  0.00    -0.153 OA
ATOM     27  O   UNL     1     -10.891  -1.611  -0.264  0.00  0.00    -0.153 OA
BRANCH  25  28
ATOM     28  C   UNL     1     -11.752  -1.103   2.093  0.00  0.00    +0.131 A 
ATOM     29  C   UNL     1     -12.084   0.009   2.805  0.00  0.00    +0.031 A 
ATOM     30  C   UNL     1     -13.140  -0.008   3.713  0.00  0.00    +0.003 A 
ATOM     31  C   UNL     1     -13.872  -1.139   3.913  0.00  0.00    +0.010 A 
ATOM     32  C   UNL     1     -13.559  -2.304   3.195  0.00  0.00    +0.002 A 
ATOM     33  C   UNL     1     -12.488  -2.288   2.267  0.00  0.00    +0.097 A 
ATOM     34  N   UNL     1     -12.188  -3.393   1.578  0.00  0.00    -0.253 NA
ATOM     35  C   UNL     1     -12.870  -4.501   1.736  0.00  0.00    +0.111 A 
ATOM     36  C   UNL     1     -13.938  -4.583   2.628  0.00  0.00    +0.020 A 
ATOM     37  C   UNL     1     -14.290  -3.494   3.372  0.00  0.00    +0.011 A 
ENDBRANCH  25  28
ENDBRANCH  23  25
ENDBRANCH  22  23
ENDBRANCH   1  22
TORSDOF 8
