REMARK  Name = ZINC63425676
REMARK  9 active torsions:
REMARK  status: ('A' for Active; 'I' for Inactive)
REMARK    1  A    between atoms: C_1  and  O_2
REMARK    2  A    between atoms: O_2  and  C_3
REMARK    3  A    between atoms: C_3  and  C_5
REMARK    4  A    between atoms: C_5  and  C_7
REMARK    5  A    between atoms: C_5  and  N_17
REMARK    6  A    between atoms: C_7  and  C_8
REMARK    7  A    between atoms: N_17  and  C_18
REMARK    8  A    between atoms: N_25  and  C_28
REMARK    9  A    between atoms: C_28  and  C_29
REMARK                            x       y       z     vdW  Elec       q    Type
REMARK                         _______ _______ _______ _____ _____    ______ ____
ROOT
ATOM      1  N   UNL     1       1.381  -2.581   2.283  0.00  0.00    -0.336 N 
ATOM      2  H   UNL     1       2.271  -2.957   2.194  0.00  0.00    +0.146 HD
ENDROOT
BRANCH   1   3
ATOM      3  C   UNL     1       0.741  -2.637   3.468  0.00  0.00    +0.086 C 
ATOM      4  C   UNL     1       1.395  -3.124   4.584  0.00  0.00    +0.113 C 
ATOM      5  C   UNL     1       2.837  -3.426   4.560  0.00  0.00    +0.256 C 
ATOM      6  O   UNL     1       3.495  -3.253   3.551  0.00  0.00    -0.270 OA
ATOM      7  N   UNL     1       3.408  -3.899   5.687  0.00  0.00    -0.263 N 
ATOM      8  C   UNL     1       2.695  -4.094   6.805  0.00  0.00    +0.146 C 
ATOM      9  S   UNL     1       3.505  -4.697   8.188  0.00  0.00    -0.018 S 
ATOM     10  N   UNL     1       1.382  -3.841   6.899  0.00  0.00    -0.245 N 
ATOM     11  C   UNL     1       0.681  -3.359   5.852  0.00  0.00    +0.259 C 
ATOM     12  O   UNL     1      -0.510  -3.129   5.951  0.00  0.00    -0.269 OA
ATOM     13  H   UNL     1       4.357  -4.103   5.688  0.00  0.00    +0.157 HD
BRANCH  10  14
ATOM     14  C   UNL     1       0.695  -4.089   8.168  0.00  0.00    +0.150 C 
BRANCH  14  15
ATOM     15  C   UNL     1       0.744  -2.845   9.017  0.00  0.00    -0.030 A 
ATOM     16  C   UNL     1       1.798  -2.643   9.888  0.00  0.00    +0.005 A 
ATOM     17  C   UNL     1       1.844  -1.502  10.666  0.00  0.00    +0.000 A 
ATOM     18  C   UNL     1       0.834  -0.562  10.575  0.00  0.00    +0.000 A 
ATOM     19  C   UNL     1      -0.220  -0.763   9.703  0.00  0.00    +0.000 A 
ATOM     20  C   UNL     1      -0.263  -1.903   8.921  0.00  0.00    +0.005 A 
ENDBRANCH  14  15
ENDBRANCH  10  14
ENDBRANCH   1   3
BRANCH   1  21
ATOM     21  C   UNL     1       0.733  -1.951   1.129  0.00  0.00    +0.184 C 
BRANCH  21  22
ATOM     22  C   UNL     1       0.976  -0.464   1.167  0.00  0.00    +0.328 C 
ATOM     23  O   UNL     1       1.623   0.020   2.065  0.00  0.00    -0.249 OA
BRANCH  22  25
ATOM     24  C   UNL     1       0.741   1.722   0.301  0.00  0.00    +0.280 C 
ATOM     25  O   UNL     1       0.472   0.322   0.203  0.00  0.00    -0.467 OA
ENDBRANCH  22  25
ENDBRANCH  21  22
BRANCH  21  26
ATOM     26  C   UNL     1       1.315  -2.530  -0.161  0.00  0.00    +0.066 C 
BRANCH  26  27
ATOM     27  C   UNL     1       0.966  -3.994  -0.258  0.00  0.00    -0.039 C 
ATOM     28  C   UNL     1      -0.081  -4.538  -0.918  0.00  0.00    -0.001 A 
ATOM     29  C   UNL     1      -1.168  -3.954  -1.713  0.00  0.00    +0.010 A 
ATOM     30  C   UNL     1      -2.092  -4.773  -2.263  0.00  0.00    +0.001 A 
ATOM     31  C   UNL     1      -2.039  -6.164  -2.092  0.00  0.00    +0.002 A 
ATOM     32  C   UNL     1      -1.072  -6.774  -1.375  0.00  0.00    +0.026 A 
ATOM     33  C   UNL     1      -0.047  -6.009  -0.753  0.00  0.00    +0.043 A 
ATOM     34  N   UNL     1       0.981  -6.360  -0.020  0.00  0.00    -0.380 N 
ATOM     35  C   UNL     1       1.720  -5.150   0.359  0.00  0.00    +0.144 C 
ATOM     36  H   UNL     1       1.216  -7.268   0.228  0.00  0.00    +0.160 HD
ENDBRANCH  26  27
ENDBRANCH  21  26
ENDBRANCH   1  21
TORSDOF 8
