REMARK  Name = ZINC35729136
REMARK  15 active torsions:
REMARK  status: ('A' for Active; 'I' for Inactive)
REMARK    1  A    between atoms: C_1  and  C_2
REMARK    2  A    between atoms: C_2  and  C_3
REMARK    3  A    between atoms: C_3  and  C_5
REMARK    4  A    between atoms: C_3  and  C_6
REMARK    5  A    between atoms: C_6  and  C_8
REMARK    6  A    between atoms: C_6  and  N_25
REMARK    7  A    between atoms: C_14  and  C_16
REMARK    8  A    between atoms: C_19  and  N_22
REMARK    9  A    between atoms: N_22  and  C_23
REMARK   10  A    between atoms: N_22  and  C_24
REMARK   11  A    between atoms: N_25  and  S_26
REMARK   12  A    between atoms: S_26  and  C_29
REMARK   13  A    between atoms: C_30  and  C_37
REMARK   14  A    between atoms: C_32  and  C_36
REMARK   15  A    between atoms: C_34  and  C_35
REMARK                            x       y       z     vdW  Elec       q    Type
REMARK                         _______ _______ _______ _____ _____    ______ ____
ROOT
ATOM      1  C   UNL     1       1.147  -1.211   0.200  0.00  0.00    +0.165 C 
ENDROOT
BRANCH   1   2
ATOM      2  C   UNL     1       0.940   0.061   0.982  0.00  0.00    +0.238 C 
ATOM      3  O   UNL     1       1.679   1.006   0.809  0.00  0.00    -0.274 OA
ATOM      4  N   UNL     1      -0.067   0.147   1.875  0.00  0.00    -0.262 N 
ATOM      5  C   UNL     1      -0.325   1.353   2.516  0.00  0.00    +0.188 A 
ATOM      6  N   UNL     1       0.281   2.527   2.399  0.00  0.00    -0.125 NA
ATOM      7  N   UNL     1      -0.084   3.535   3.064  0.00  0.00    -0.140 NA
ATOM      8  C   UNL     1      -1.096   3.480   3.921  0.00  0.00    +0.134 A 
ATOM      9  S   UNL     1      -1.575   1.765   3.730  0.00  0.00    -0.030 S 
ATOM     10  H   UNL     1      -0.611  -0.632   2.069  0.00  0.00    +0.157 HD
BRANCH   8  11
ATOM     11  C   UNL     1      -1.669   4.535   4.784  0.00  0.00    +0.009 A 
ATOM     12  C   UNL     1      -2.746   4.244   5.623  0.00  0.00    +0.012 A 
ATOM     13  C   UNL     1      -3.277   5.230   6.426  0.00  0.00    +0.024 A 
ATOM     14  C   UNL     1      -2.743   6.513   6.400  0.00  0.00    +0.029 A 
ATOM     15  C   UNL     1      -1.671   6.806   5.564  0.00  0.00    +0.024 A 
ATOM     16  C   UNL     1      -1.131   5.823   4.764  0.00  0.00    +0.012 A 
BRANCH  14  17
ATOM     17  N   UNL     1      -3.284   7.510   7.213  0.00  0.00    -0.336 N 
ATOM     18  C   UNL     1      -4.414   7.203   8.094  0.00  0.00    +0.129 C 
ATOM     19  C   UNL     1      -2.723   8.863   7.187  0.00  0.00    +0.129 C 
ENDBRANCH  14  17
ENDBRANCH   8  11
ENDBRANCH   1   2
BRANCH   1  20
ATOM     20  C   UNL     1       0.248  -1.200  -1.038  0.00  0.00    +0.013 C 
ATOM     21  C   UNL     1      -1.218  -1.270  -0.605  0.00  0.00    +0.009 C 
BRANCH  20  23
ATOM     22  C   UNL     1       1.897   0.073  -2.418  0.00  0.00    +0.004 C 
ATOM     23  C   UNL     1       0.485   0.089  -1.829  0.00  0.00    +0.002 C 
ENDBRANCH  20  23
ENDBRANCH   1  20
BRANCH   1  24
ATOM     24  N   UNL     1       2.548  -1.307  -0.214  0.00  0.00    -0.178 NA
ATOM     25  H   UNL     1       3.046  -0.503  -0.430  0.00  0.00    +0.149 HD
BRANCH  24  26
ATOM     26  S   UNL     1       3.282  -2.788  -0.315  0.00  0.00    +0.060 S 
ATOM     27  O   UNL     1       4.583  -2.562  -0.840  0.00  0.00    -0.153 OA
ATOM     28  O   UNL     1       3.066  -3.434   0.932  0.00  0.00    -0.153 OA
BRANCH  26  29
ATOM     29  C   UNL     1       2.406  -3.723  -1.524  0.00  0.00    +0.111 A 
ATOM     30  C   UNL     1       2.841  -3.736  -2.836  0.00  0.00    -0.024 A 
ATOM     31  C   UNL     1       2.154  -4.469  -3.785  0.00  0.00    +0.008 A 
ATOM     32  C   UNL     1       1.032  -5.190  -3.422  0.00  0.00    -0.050 A 
ATOM     33  C   UNL     1       0.597  -5.178  -2.110  0.00  0.00    +0.008 A 
ATOM     34  C   UNL     1       1.287  -4.448  -1.160  0.00  0.00    -0.024 A 
ATOM     35  C   UNL     1       0.816  -4.439   0.272  0.00  0.00    +0.046 C 
ATOM     36  C   UNL     1       0.282  -5.989  -4.457  0.00  0.00    +0.044 C 
ATOM     37  C   UNL     1       4.065  -2.950  -3.232  0.00  0.00    +0.046 C 
ENDBRANCH  26  29
ENDBRANCH  24  26
ENDBRANCH   1  24
TORSDOF 8
