REMARK  Name = ZINC22018186
REMARK  7 active torsions:
REMARK  status: ('A' for Active; 'I' for Inactive)
REMARK    1  A    between atoms: C_1  and  C_2
REMARK    2  A    between atoms: C_3  and  C_11
REMARK    3  A    between atoms: C_7  and  S_9
REMARK    4  A    between atoms: S_9  and  C_10
REMARK    5  A    between atoms: C_11  and  C_12
REMARK    6  A    between atoms: C_12  and  C_13
REMARK    7  A    between atoms: N_15  and  C_16
REMARK                            x       y       z     vdW  Elec       q    Type
REMARK                         _______ _______ _______ _____ _____    ______ ____
ROOT
ATOM      1  C   UNL     1       4.114   2.334   1.412  0.00  0.00    +0.100 C 
ENDROOT
BRANCH   1   2
ATOM      2  C   UNL     1       5.396   3.126   1.404  0.00  0.00    +0.214 C 
ATOM      3  O   UNL     1       5.854   3.527   0.355  0.00  0.00    -0.276 OA
ATOM      4  N   UNL     1       6.034   3.389   2.562  0.00  0.00    -0.312 N 
ATOM      5  H   UNL     1       5.618   3.025   3.513  0.00  0.00    +0.149 HD
BRANCH   4   6
ATOM      6  C   UNL     1       7.280   4.159   2.554  0.00  0.00    +0.073 C 
ATOM      7  C   UNL     1       8.458   3.219   2.288  0.00  0.00    +0.022 C 
ATOM      8  C   UNL     1       9.685   4.041   1.887  0.00  0.00    +0.002 C 
ATOM      9  C   UNL     1       9.271   5.121   0.885  0.00  0.00    +0.000 C 
ATOM     10  C   UNL     1       9.430   6.500   1.528  0.00  0.00    +0.000 C 
ATOM     11  C   UNL     1       8.280   6.741   2.508  0.00  0.00    +0.000 C 
ATOM     12  C   UNL     1       8.524   5.940   3.788  0.00  0.00    +0.002 C 
ATOM     13  C   UNL     1       7.467   4.840   3.911  0.00  0.00    +0.022 C 
ENDBRANCH   4   6
ENDBRANCH   1   2
BRANCH   1  14
ATOM     14  C   UNL     1       3.601   2.179  -0.021  0.00  0.00    +0.051 C 
BRANCH  14  17
ATOM     15  C   UNL     1       1.053   3.528   0.011  0.00  0.00    +0.066 C 
ATOM     16  C   UNL     1       1.111   2.022   0.002  0.00  0.00    +0.049 A 
ATOM     17  C   UNL     1       2.319   1.387  -0.013  0.00  0.00    +0.040 A 
ATOM     18  C   UNL     1       2.348  -0.019  -0.020  0.00  0.00    +0.277 A 
ATOM     19  O   UNL     1       3.410  -0.619  -0.033  0.00  0.00    -0.265 OA
ATOM     20  N   UNL     1       1.177  -0.692  -0.012  0.00  0.00    -0.183 NA
ATOM     21  C   UNL     1       0.002  -0.004   0.002  0.00  0.00    +0.192 A 
ATOM     22  N   UNL     1      -0.016   1.315   0.009  0.00  0.00    -0.227 NA
BRANCH  21  23
ATOM     23  S   UNL     1      -1.520  -0.891   0.011  0.00  0.00    -0.089 S 
ATOM     24  C   UNL     1      -2.689   0.491   0.030  0.00  0.00    +0.093 C 
ENDBRANCH  21  23
ENDBRANCH  14  17
ENDBRANCH   1  14
TORSDOF 5
