REMARK  Name = ZINC20430886
REMARK  3 active torsions:
REMARK  status: ('A' for Active; 'I' for Inactive)
REMARK    1  A    between atoms: C_4  and  C_10
REMARK    2  A    between atoms: C_6  and  N_7
REMARK    3  A    between atoms: N_12  and  C_13
REMARK                            x       y       z     vdW  Elec       q    Type
REMARK                         _______ _______ _______ _____ _____    ______ ____
ROOT
ATOM      1  C   UNL     1      -2.414  -0.304  -0.091  0.00  0.00    +0.250 C 
ATOM      2  O   UNL     1      -1.355  -0.902  -0.099  0.00  0.00    -0.270 OA
ATOM      3  N   UNL     1      -2.428   1.039   0.019  0.00  0.00    -0.280 N 
ATOM      4  H   UNL     1      -3.384   1.573   0.118  0.00  0.00    +0.155 HD
ENDROOT
BRANCH   3   5
ATOM      5  C   UNL     1      -1.225   1.755   0.006  0.00  0.00    +0.048 A 
ATOM      6  C   UNL     1      -0.102   1.218  -0.611  0.00  0.00    +0.027 A 
ATOM      7  C   UNL     1       1.082   1.929  -0.627  0.00  0.00    +0.040 A 
ATOM      8  C   UNL     1       1.153   3.173  -0.024  0.00  0.00    +0.125 A 
ATOM      9  C   UNL     1       0.037   3.708   0.597  0.00  0.00    +0.055 A 
ATOM     10  C   UNL     1      -1.151   3.001   0.616  0.00  0.00    +0.042 A 
ATOM     11 BR   UNL     1      -2.675   3.733   1.463  0.00  0.00    -0.048 Br
ATOM     12  F   UNL     1       2.312   3.866  -0.042  0.00  0.00    -0.205 F 
ENDBRANCH   3   5
BRANCH   1  16
ATOM     13  C   UNL     1      -6.068  -2.447  -0.407  0.00  0.00    +0.034 A 
ATOM     14  C   UNL     1      -4.866  -3.132  -0.417  0.00  0.00    +0.023 A 
ATOM     15  C   UNL     1      -3.674  -2.442  -0.320  0.00  0.00    +0.053 A 
ATOM     16  C   UNL     1      -3.685  -1.050  -0.201  0.00  0.00    +0.057 A 
ATOM     17  C   UNL     1      -4.902  -0.366  -0.191  0.00  0.00    +0.047 A 
ATOM     18  C   UNL     1      -6.085  -1.068  -0.294  0.00  0.00    +0.127 A 
ATOM     19 CL   UNL     1      -2.166  -3.302  -0.341  0.00  0.00    -0.083 Cl
BRANCH  18  20
ATOM     20  N   UNL     1      -7.376  -0.344  -0.285  0.00  0.00    +0.056 N 
ATOM     21  O   UNL     1      -7.393   0.870  -0.186  0.00  0.00    -0.126 OA
ATOM     22  O   UNL     1      -8.421  -0.962  -0.376  0.00  0.00    -0.126 OA
ENDBRANCH  18  20
ENDBRANCH   1  16
TORSDOF 3
