REMARK  Name = ZINC44785004
REMARK  5 active torsions:
REMARK  status: ('A' for Active; 'I' for Inactive)
REMARK    1  A    between atoms: C_4  and  C_7
REMARK    2  A    between atoms: C_7  and  N_8
REMARK    3  A    between atoms: C_9  and  C_11
REMARK    4  A    between atoms: C_11  and  C_17
REMARK    5  A    between atoms: N_18  and  O_19
REMARK                            x       y       z     vdW  Elec       q    Type
REMARK                         _______ _______ _______ _____ _____    ______ ____
ROOT
ATOM      1  C   UNL     1       3.696  -4.143   3.391  0.00  0.00    +0.109 C 
ATOM      2  C   UNL     1       2.244  -4.610   3.261  0.00  0.00    +0.052 C 
ATOM      3  C   UNL     1       1.471  -4.206   4.520  0.00  0.00    +0.161 C 
ATOM      4  O   UNL     1       2.105  -4.772   5.668  0.00  0.00    -0.380 OA
ATOM      5  C   UNL     1       3.451  -4.334   5.868  0.00  0.00    +0.161 C 
ATOM      6  C   UNL     1       4.303  -4.744   4.663  0.00  0.00    +0.052 C 
ENDROOT
BRANCH   1   7
ATOM      7  C   UNL     1       4.485  -4.602   2.192  0.00  0.00    +0.147 C 
ATOM      8  N   UNL     1       5.747  -4.340   2.110  0.00  0.00    -0.076 NA
ATOM      9  N   UNL     1       3.859  -5.300   1.183  0.00  0.00    -0.343 N 
ATOM     10  H   UNL     1       2.898  -5.430   1.206  0.00  0.00    +0.144 HD
ATOM     11  H   UNL     1       4.380  -5.662   0.449  0.00  0.00    +0.144 HD
BRANCH   8  12
ATOM     12  O   UNL     1       6.365  -3.521   3.086  0.00  0.00    -0.408 OA
ATOM     13  H   UNL     1       7.311  -3.383   2.941  0.00  0.00    +0.328 HD
ENDBRANCH   8  12
ENDBRANCH   1   7
BRANCH   1  15
ATOM     14  N   UNL     1       3.131  -1.894   2.530  0.00  0.00    -0.314 N 
ATOM     15  C   UNL     1       3.737  -2.639   3.476  0.00  0.00    +0.227 C 
ATOM     16  O   UNL     1       4.315  -2.098   4.394  0.00  0.00    -0.275 OA
ATOM     17  H   UNL     1       2.728  -2.324   1.759  0.00  0.00    +0.149 HD
BRANCH  14  18
ATOM     18  C   UNL     1       3.080  -0.436   2.666  0.00  0.00    +0.107 C 
BRANCH  18  22
ATOM     19  C   UNL     1       0.199   1.829   0.364  0.00  0.00    +0.000 C 
ATOM     20  C   UNL     1       1.658   2.288   0.346  0.00  0.00    +0.000 C 
ATOM     21  C   UNL     1       2.396   1.690   1.545  0.00  0.00    +0.005 C 
ATOM     22  C   UNL     1       2.341   0.163   1.467  0.00  0.00    +0.006 C 
ATOM     23  C   UNL     1       0.882  -0.297   1.485  0.00  0.00    +0.005 C 
ATOM     24  C   UNL     1       0.144   0.302   0.286  0.00  0.00    +0.000 C 
ENDBRANCH  18  22
ENDBRANCH  14  18
ENDBRANCH   1  15
TORSDOF 5
