REMARK  Name = ZINC20276429
REMARK  6 active torsions:
REMARK  status: ('A' for Active; 'I' for Inactive)
REMARK    1  A    between atoms: C_1  and  C_2
REMARK    2  A    between atoms: C_2  and  C_3
REMARK    3  A    between atoms: C_2  and  C_4
REMARK    4  A    between atoms: N_8  and  C_17
REMARK    5  A    between atoms: C_11  and  N_16
REMARK    6  A    between atoms: C_17  and  C_18
REMARK                            x       y       z     vdW  Elec       q    Type
REMARK                         _______ _______ _______ _____ _____    ______ ____
ROOT
ATOM      1  C   UNL     1       1.014   7.293  -3.403  0.00  0.00    +0.262 C 
ATOM      2  C   UNL     1       1.055   6.753  -1.996  0.00  0.00    +0.261 C 
ATOM      3  O   UNL     1       2.120   6.543  -1.456  0.00  0.00    -0.271 OA
ATOM      4  N   UNL     1      -0.100   6.500  -1.342  0.00  0.00    -0.261 N 
ATOM      5  C   UNL     1      -1.317   6.724  -2.000  0.00  0.00    +0.080 A 
ATOM      6  C   UNL     1      -2.502   6.793  -1.287  0.00  0.00    +0.050 A 
ATOM      7  C   UNL     1      -3.698   7.016  -1.958  0.00  0.00    +0.027 A 
ATOM      8  C   UNL     1      -3.703   7.167  -3.338  0.00  0.00    +0.026 A 
ATOM      9  C   UNL     1      -2.519   7.098  -4.050  0.00  0.00    +0.049 A 
ATOM     10  C   UNL     1      -1.326   6.878  -3.385  0.00  0.00    +0.143 A 
ATOM     11  O   UNL     1      -0.153   6.809  -4.073  0.00  0.00    -0.477 OA
ENDROOT
BRANCH   1  13
ATOM     12  C   UNL     1       0.938   9.377  -4.779  0.00  0.00    +0.011 C 
ATOM     13  C   UNL     1       0.975   8.822  -3.354  0.00  0.00    +0.033 C 
ATOM     14  C   UNL     1      -0.274   9.277  -2.596  0.00  0.00    +0.011 C 
ENDBRANCH   1  13
BRANCH   7  15
ATOM     15  N   UNL     1      -4.898   7.087  -1.242  0.00  0.00    -0.358 N 
ATOM     16  H   UNL     1      -5.846   7.263  -1.773  0.00  0.00    +0.142 HD
ATOM     17  H   UNL     1      -4.895   6.966  -0.149  0.00  0.00    +0.142 HD
ENDBRANCH   7  15
BRANCH   4  18
ATOM     18  C   UNL     1      -0.079   6.003   0.036  0.00  0.00    +0.149 C 
BRANCH  18  19
ATOM     19  C   UNL     1      -0.059   4.497   0.027  0.00  0.00    -0.030 A 
ATOM     20  C   UNL     1       1.148   3.822   0.012  0.00  0.00    +0.006 A 
ATOM     21  C   UNL     1       1.167   2.440   0.004  0.00  0.00    +0.020 A 
ATOM     22  C   UNL     1      -0.021   1.732   0.012  0.00  0.00    +0.041 A 
ATOM     23  C   UNL     1      -1.229   2.407   0.021  0.00  0.00    +0.020 A 
ATOM     24  C   UNL     1      -1.247   3.789   0.035  0.00  0.00    +0.006 A 
ATOM     25 CL   UNL     1       0.002  -0.004   0.002  0.00  0.00    -0.084 Cl
ENDBRANCH  18  19
ENDBRANCH   4  18
TORSDOF 4
