REMARK  Name = ZINC09311701
REMARK  5 active torsions:
REMARK  status: ('A' for Active; 'I' for Inactive)
REMARK    1  A    between atoms: C_3  and  N_24
REMARK    2  A    between atoms: C_6  and  C_7
REMARK    3  A    between atoms: C_7  and  O_8
REMARK    4  A    between atoms: O_8  and  C_9
REMARK    5  A    between atoms: C_12  and  C_16
REMARK                            x       y       z     vdW  Elec       q    Type
REMARK                         _______ _______ _______ _____ _____    ______ ____
ROOT
ATOM      1  C   UNL     1       1.637  -0.598  -0.713  0.00  0.00    +0.135 A 
ATOM      2  C   UNL     1       0.366  -0.037  -0.687  0.00  0.00    +0.047 A 
ATOM      3  C   UNL     1       0.209   1.311  -0.453  0.00  0.00    +0.011 A 
ATOM      4  C   UNL     1       1.335   2.117  -0.240  0.00  0.00    -0.022 A 
ATOM      5  C   UNL     1       2.613   1.548  -0.268  0.00  0.00    +0.027 A 
ATOM      6  C   UNL     1       2.758   0.198  -0.503  0.00  0.00    +0.060 A 
ATOM      7 BR   UNL     1       4.484  -0.574  -0.540  0.00  0.00    -0.046 Br
ENDROOT
BRANCH   4   8
ATOM      8  C   UNL     1       1.174   3.555   0.009  0.00  0.00    +0.036 C 
ATOM      9  C   UNL     1       2.136   4.240   0.678  0.00  0.00    +0.098 C 
ATOM     10  C   UNL     1       2.226   5.695   0.872  0.00  0.00    +0.266 C 
ATOM     11  O   UNL     1       1.447   6.536   0.464  0.00  0.00    -0.268 OA
ATOM     12  N   UNL     1       3.343   5.909   1.596  0.00  0.00    -0.235 N 
ATOM     13  C   UNL     1       3.948   4.740   1.857  0.00  0.00    +0.311 C 
ATOM     14  O   UNL     1       4.981   4.624   2.488  0.00  0.00    -0.252 OA
ATOM     15  N   UNL     1       3.261   3.712   1.326  0.00  0.00    -0.265 N 
ATOM     16  H   UNL     1       3.664   6.778   1.883  0.00  0.00    +0.159 HD
ATOM     17  H   UNL     1       3.502   2.774   1.382  0.00  0.00    +0.157 HD
ENDBRANCH   4   8
BRANCH   1  18
ATOM     18  O   UNL     1       1.785  -1.928  -0.944  0.00  0.00    -0.486 OA
BRANCH  18  19
ATOM     19  C   UNL     1       0.593  -2.687  -1.152  0.00  0.00    +0.264 C 
BRANCH  19  25
ATOM     20  C   UNL     1       1.180  -4.582  -2.678  0.00  0.00    +0.009 A 
ATOM     21  C   UNL     1       1.514  -5.905  -2.897  0.00  0.00    +0.033 A 
ATOM     22  C   UNL     1       1.609  -6.780  -1.831  0.00  0.00    +0.126 A 
ATOM     23  C   UNL     1       1.376  -6.330  -0.544  0.00  0.00    +0.033 A 
ATOM     24  C   UNL     1       1.047  -5.005  -0.325  0.00  0.00    +0.009 A 
ATOM     25  C   UNL     1       0.952  -4.131  -1.391  0.00  0.00    -0.010 A 
BRANCH  22  26
ATOM     26  N   UNL     1       1.962  -8.198  -2.066  0.00  0.00    +0.056 N 
ATOM     27  O   UNL     1       2.046  -8.969  -1.126  0.00  0.00    -0.126 OA
ATOM     28  O   UNL     1       2.167  -8.595  -3.199  0.00  0.00    -0.126 OA
ENDBRANCH  22  26
ENDBRANCH  19  25
ENDBRANCH  18  19
ENDBRANCH   1  18
TORSDOF 5
