REMARK  Name = ZINC35744356
REMARK  11 active torsions:
REMARK  status: ('A' for Active; 'I' for Inactive)
REMARK    1  A    between atoms: C_4  and  C_7
REMARK    2  A    between atoms: C_7  and  O_8
REMARK    3  A    between atoms: O_8  and  C_9
REMARK    4  A    between atoms: C_9  and  C_10
REMARK    5  A    between atoms: C_10  and  C_12
REMARK    6  A    between atoms: C_10  and  O_35
REMARK    7  A    between atoms: C_12  and  N_13
REMARK    8  A    between atoms: N_13  and  C_14
REMARK    9  A    between atoms: N_13  and  C_20
REMARK   10  A    between atoms: C_14  and  C_15
REMARK   11  A    between atoms: C_20  and  C_21
REMARK                            x       y       z     vdW  Elec       q    Type
REMARK                         _______ _______ _______ _____ _____    ______ ____
ROOT
ATOM      1  N   UNL     1       7.361  -2.660   4.424  0.00  0.00    +0.391 N 
ATOM      2  H   UNL     1       6.720  -3.249   4.935  0.00  0.00    -0.080 HD
ENDROOT
BRANCH   1   3
ATOM      3  C   UNL     1       6.993  -2.655   3.002  0.00  0.00    -0.044 C 
BRANCH   3   4
ATOM      4  C   UNL     1       6.868  -4.096   2.502  0.00  0.00    +0.124 C 
BRANCH   4   5
ATOM      5  O   UNL     1       8.159  -4.707   2.482  0.00  0.00    -0.391 OA
ATOM      6  H   UNL     1       8.797  -4.260   1.908  0.00  0.00    +0.210 HD
ENDBRANCH   4   5
BRANCH   4   7
ATOM      7  C   UNL     1       6.281  -4.096   1.089  0.00  0.00    +0.189 C 
BRANCH   7   8
ATOM      8  O   UNL     1       6.056  -5.442   0.667  0.00  0.00    -0.373 OA
BRANCH   8   9
ATOM      9  C   UNL     1       5.506  -5.555  -0.648  0.00  0.00    +0.195 C 
BRANCH   9  13
ATOM     10  C   UNL     1       4.952  -9.680  -1.612  0.00  0.00    +0.000 A 
ATOM     11  C   UNL     1       3.937  -8.971  -0.996  0.00  0.00    +0.000 A 
ATOM     12  C   UNL     1       4.116  -7.637  -0.684  0.00  0.00    +0.006 A 
ATOM     13  C   UNL     1       5.311  -7.011  -0.987  0.00  0.00    -0.022 A 
ATOM     14  C   UNL     1       6.327  -7.719  -1.602  0.00  0.00    +0.006 A 
ATOM     15  C   UNL     1       6.146  -9.054  -1.915  0.00  0.00    +0.000 A 
ENDBRANCH   9  13
ENDBRANCH   8   9
ENDBRANCH   7   8
ENDBRANCH   4   7
ENDBRANCH   3   4
ENDBRANCH   1   3
BRANCH   1  16
ATOM     16  C   UNL     1       7.295  -1.291   4.952  0.00  0.00    -0.002 C 
BRANCH  16  17
ATOM     17  C   UNL     1       5.867  -0.812   4.931  0.00  0.00    +0.089 A 
ATOM     18  C   UNL     1       5.002  -0.873   5.960  0.00  0.00    +0.042 A 
ATOM     19  C   UNL     1       3.784  -0.318   5.504  0.00  0.00    +0.041 A 
ATOM     20  C   UNL     1       3.978   0.049   4.224  0.00  0.00    +0.195 A 
ATOM     21  O   UNL     1       5.242  -0.248   3.884  0.00  0.00    -0.470 OA
ENDBRANCH  16  17
ENDBRANCH   1  16
BRANCH   1  22
ATOM     22  C   UNL     1       8.727  -3.179   4.574  0.00  0.00    -0.003 C 
BRANCH  22  23
ATOM     23  C   UNL     1       9.053  -3.320   6.039  0.00  0.00    +0.094 A 
ATOM     24  N   UNL     1      10.275  -3.780   6.408  0.00  0.00    -0.312 N 
ATOM     25  H   UNL     1      10.923  -4.012   5.724  0.00  0.00    +0.170 HD
ATOM     26  C   UNL     1      10.607  -3.922   7.705  0.00  0.00    +0.260 A 
ATOM     27  O   UNL     1      11.709  -4.337   8.022  0.00  0.00    -0.267 OA
ATOM     28  C   UNL     1       9.642  -3.577   8.706  0.00  0.00    +0.075 A 
ATOM     29  C   UNL     1       9.785  -3.650  10.168  0.00  0.00    -0.023 A 
ATOM     30  C   UNL     1       8.726  -3.267  10.901  0.00  0.00    -0.004 A 
ATOM     31  S   UNL     1       7.492  -2.789   9.713  0.00  0.00    -0.073 S 
ATOM     32  C   UNL     1       8.409  -3.111   8.230  0.00  0.00    +0.116 A 
ATOM     33  N   UNL     1       8.155  -2.992   6.929  0.00  0.00    -0.229 NA
ATOM     34  C   UNL     1       8.985  -3.389  12.379  0.00  0.00    +0.043 C 
ATOM     35  C   UNL     1      10.216  -4.316  12.482  0.00  0.00    +0.010 C 
ATOM     36  C   UNL     1      10.903  -4.075  11.123  0.00  0.00    +0.037 C 
ENDBRANCH  22  23
ENDBRANCH   1  22
TORSDOF 11
