REMARK  Name = ZINC54744564
REMARK  5 active torsions:
REMARK  status: ('A' for Active; 'I' for Inactive)
REMARK    1  A    between atoms: C_1  and  C_2
REMARK    2  A    between atoms: C_5  and  N_9
REMARK    3  A    between atoms: C_10  and  C_14
REMARK    4  A    between atoms: C_14  and  N_15
REMARK    5  A    between atoms: N_15  and  C_16
REMARK                            x       y       z     vdW  Elec       q    Type
REMARK                         _______ _______ _______ _____ _____    ______ ____
ROOT
ATOM      1  N   UNL     1       0.134  -4.512  -0.023  0.00  0.00    -0.197 N 
ATOM      2  C   UNL     1       0.196  -5.226   1.122  0.00  0.00    +0.140 A 
ATOM      3  N   UNL     1       0.153  -6.490   0.793  0.00  0.00    -0.115 NA
ATOM      4  N   UNL     1       0.068  -6.625  -0.481  0.00  0.00    -0.023 NA
ATOM      5  N   UNL     1       0.045  -5.468  -1.050  0.00  0.00    -0.039 NA
ENDROOT
BRANCH   1  10
ATOM      6  C   UNL     1       0.195   1.140  -0.567  0.00  0.00    +0.044 C 
ATOM      7  C   UNL     1       0.179  -0.360  -0.423  0.00  0.00    -0.048 A 
ATOM      8  C   UNL     1      -0.919  -1.083  -0.852  0.00  0.00    +0.020 A 
ATOM      9  C   UNL     1      -0.937  -2.459  -0.721  0.00  0.00    +0.045 A 
ATOM     10  C   UNL     1       0.149  -3.115  -0.158  0.00  0.00    +0.097 A 
ATOM     11  C   UNL     1       1.250  -2.386   0.272  0.00  0.00    +0.045 A 
ATOM     12  C   UNL     1       1.264  -1.011   0.134  0.00  0.00    +0.020 A 
ATOM     13 BR   UNL     1       2.732  -3.275   1.040  0.00  0.00    -0.048 Br
ATOM     14 BR   UNL     1      -2.440  -3.446  -1.307  0.00  0.00    -0.048 Br
ENDBRANCH   1  10
BRANCH   2  15
ATOM     15  C   UNL     1       0.296  -4.668   2.518  0.00  0.00    -0.003 C 
BRANCH  15  16
ATOM     16  N   UNL     1      -1.046  -4.584   3.109  0.00  0.00    +0.382 N 
ATOM     17  C   UNL     1      -0.946  -4.065   4.480  0.00  0.00    -0.100 C 
ATOM     18  H   UNL     1      -1.619  -3.964   2.556  0.00  0.00    -0.086 HD
ATOM     19  H   UNL     1      -1.464  -5.502   3.127  0.00  0.00    -0.086 HD
ENDBRANCH  15  16
ENDBRANCH   2  15
TORSDOF 3
