REMARK  Name = ZINC19861669
REMARK  4 active torsions:
REMARK  status: ('A' for Active; 'I' for Inactive)
REMARK    1  A    between atoms: C_1  and  O_2
REMARK    2  A    between atoms: O_2  and  C_3
REMARK    3  A    between atoms: C_3  and  C_5
REMARK    4  A    between atoms: C_31  and  O_33
REMARK                            x       y       z     vdW  Elec       q    Type
REMARK                         _______ _______ _______ _____ _____    ______ ____
ROOT
ATOM      1  C   UNL     1      -0.041   1.043   2.514  0.00  0.00    +0.129 C 
ATOM      2  C   UNL     1      -0.735   1.582   1.263  0.00  0.00    +0.006 C 
ATOM      3  C   UNL     1      -0.013   1.086   0.008  0.00  0.00    -0.005 C 
ATOM      4  C   UNL     1      -0.758   1.595  -1.228  0.00  0.00    -0.020 C 
ATOM      5  C   UNL     1      -0.081   1.096  -2.479  0.00  0.00    +0.006 A 
ATOM      6  C   UNL     1      -0.765   0.607  -3.539  0.00  0.00    -0.022 A 
ATOM      7  C   UNL     1       0.208   0.232  -4.540  0.00  0.00    +0.003 A 
ATOM      8  C   UNL     1       0.093  -0.317  -5.821  0.00  0.00    +0.010 A 
ATOM      9  C   UNL     1       1.260  -0.549  -6.505  0.00  0.00    +0.001 A 
ATOM     10  C   UNL     1       2.501  -0.256  -5.965  0.00  0.00    +0.002 A 
ATOM     11  C   UNL     1       2.646   0.289  -4.701  0.00  0.00    +0.026 A 
ATOM     12  C   UNL     1       1.478   0.535  -3.982  0.00  0.00    +0.047 A 
ATOM     13  N   UNL     1       1.262   1.054  -2.737  0.00  0.00    -0.359 N 
ATOM     14  H   UNL     1       1.979   1.412  -1.983  0.00  0.00    +0.166 HD
ATOM     15  C   UNL     1      -2.269   0.509  -3.585  0.00  0.00    +0.019 C 
ATOM     16  C   UNL     1      -2.842   1.383  -2.461  0.00  0.00    -0.073 C 
ATOM     17  N   UNL     1      -2.139   1.090  -1.207  0.00  0.00    +0.386 N 
ATOM     18  C   UNL     1      -2.870   1.595  -0.039  0.00  0.00    -0.073 C 
ATOM     19  C   UNL     1      -2.188   1.093   1.234  0.00  0.00    -0.010 C 
ATOM     20  C   UNL     1      -2.919   1.627   2.467  0.00  0.00    +0.061 C 
ATOM     21  C   UNL     1      -2.225   1.096   3.734  0.00  0.00    +0.047 C 
ATOM     22  C   UNL     1      -0.768   1.563   3.757  0.00  0.00    +0.130 C 
ATOM     23 BR   UNL     1      -4.788   1.019   2.436  0.00  0.00    -0.088 Br
ATOM     24  H   UNL     1      -2.092  -0.005  -1.118  0.00  0.00    -0.081 HD
ENDROOT
BRANCH   1  25
ATOM     25  C   UNL     1       1.391   1.512   2.537  0.00  0.00    +0.313 C 
ATOM     26  O   UNL     1       1.814   2.206   1.643  0.00  0.00    -0.250 OA
BRANCH  25  28
ATOM     27  C   UNL     1       3.564   1.645   3.506  0.00  0.00    +0.280 C 
ATOM     28  O   UNL     1       2.197   1.157   3.550  0.00  0.00    -0.468 OA
ENDBRANCH  25  28
ENDBRANCH   1  25
BRANCH  22  29
ATOM     29  O   UNL     1      -0.728   2.991   3.769  0.00  0.00    -0.391 OA
ATOM     30  H   UNL     1      -1.202   3.548   4.591  0.00  0.00    +0.210 HD
ENDBRANCH  22  29
TORSDOF 3
