REMARK  Name = ZINC10002069
REMARK  14 active torsions:
REMARK  status: ('A' for Active; 'I' for Inactive)
REMARK    1  A    between atoms: C_1  and  C_2
REMARK    2  A    between atoms: C_2  and  N_3
REMARK    3  A    between atoms: C_4  and  C_21
REMARK    4  A    between atoms: C_7  and  S_8
REMARK    5  A    between atoms: S_8  and  C_9
REMARK    6  A    between atoms: C_9  and  C_10
REMARK    7  A    between atoms: N_12  and  C_13
REMARK    8  A    between atoms: C_15  and  C_20
REMARK    9  A    between atoms: C_18  and  C_19
REMARK   10  A    between atoms: C_21  and  C_23
REMARK   11  A    between atoms: C_21  and  N_26
REMARK   12  A    between atoms: C_23  and  C_24
REMARK   13  A    between atoms: C_23  and  C_25
REMARK   14  A    between atoms: C_27  and  C_29
REMARK                            x       y       z     vdW  Elec       q    Type
REMARK                         _______ _______ _______ _____ _____    ______ ____
ROOT
ATOM      1  N   UNL     1      -1.126   4.311  -1.060  0.00  0.00    -0.305 N 
ATOM      2  C   UNL     1      -1.507   3.820   0.158  0.00  0.00    +0.155 A 
ATOM      3  N   UNL     1      -2.804   3.920   0.228  0.00  0.00    -0.132 NA
ATOM      4  N   UNL     1      -3.266   4.433  -0.856  0.00  0.00    -0.122 NA
ATOM      5  C   UNL     1      -2.280   4.690  -1.684  0.00  0.00    +0.192 A 
ENDROOT
BRANCH   1   7
ATOM      6  C   UNL     1       0.536   3.187  -2.458  0.00  0.00    +0.027 C 
ATOM      7  C   UNL     1       0.237   4.409  -1.588  0.00  0.00    +0.122 C 
ENDBRANCH   1   7
BRANCH   5   8
ATOM      8  S   UNL     1      -2.420   5.396  -3.292  0.00  0.00    -0.077 S 
BRANCH   8   9
ATOM      9  C   UNL     1      -4.214   5.615  -3.385  0.00  0.00    +0.173 C 
BRANCH   9  10
ATOM     10  C   UNL     1      -4.578   6.223  -4.714  0.00  0.00    +0.227 C 
ATOM     11  O   UNL     1      -3.710   6.483  -5.520  0.00  0.00    -0.275 OA
ATOM     12  N   UNL     1      -5.868   6.478  -5.008  0.00  0.00    -0.285 N 
ATOM     13  H   UNL     1      -6.569   6.203  -4.396  0.00  0.00    +0.155 HD
BRANCH  12  14
ATOM     14  C   UNL     1      -6.198   7.141  -6.196  0.00  0.00    +0.037 A 
ATOM     15  C   UNL     1      -5.265   7.962  -6.816  0.00  0.00    +0.027 A 
ATOM     16  C   UNL     1      -5.592   8.610  -7.991  0.00  0.00    -0.049 A 
ATOM     17  C   UNL     1      -6.849   8.450  -8.545  0.00  0.00    +0.004 A 
ATOM     18  C   UNL     1      -7.781   7.637  -7.927  0.00  0.00    +0.005 A 
ATOM     19  C   UNL     1      -7.459   6.982  -6.755  0.00  0.00    -0.029 A 
ATOM     20  C   UNL     1      -8.475   6.095  -6.082  0.00  0.00    +0.045 C 
ATOM     21  C   UNL     1      -4.579   9.498  -8.667  0.00  0.00    +0.044 C 
ENDBRANCH  12  14
ENDBRANCH   9  10
ENDBRANCH   8   9
ENDBRANCH   5   8
BRANCH   2  22
ATOM     22  C   UNL     1      -0.594   3.271   1.224  0.00  0.00    +0.144 C 
BRANCH  22  23
ATOM     23  N   UNL     1      -0.944   3.861   2.518  0.00  0.00    -0.301 N 
ATOM     24  C   UNL     1      -0.019   3.942   3.495  0.00  0.00    +0.245 C 
ATOM     25  O   UNL     1       1.107   3.524   3.301  0.00  0.00    -0.270 OA
ATOM     26  H   UNL     1      -1.842   4.195   2.672  0.00  0.00    +0.150 HD
BRANCH  24  27
ATOM     27  C   UNL     1      -0.371   4.537   4.799  0.00  0.00    +0.040 A 
ATOM     28  C   UNL     1      -1.662   5.022   5.021  0.00  0.00    +0.017 A 
ATOM     29  C   UNL     1      -1.991   5.572   6.240  0.00  0.00    +0.050 A 
ATOM     30  C   UNL     1      -1.040   5.657   7.248  0.00  0.00    +0.166 A 
ATOM     31  C   UNL     1       0.253   5.178   7.031  0.00  0.00    +0.167 A 
ATOM     32  C   UNL     1       0.587   4.621   5.812  0.00  0.00    +0.062 A 
ATOM     33  O   UNL     1       0.987   5.377   8.165  0.00  0.00    -0.453 OA
ATOM     34  C   UNL     1       0.252   6.348   8.932  0.00  0.00    +0.466 C 
ATOM     35  O   UNL     1      -1.113   6.153   8.516  0.00  0.00    -0.453 OA
ENDBRANCH  24  27
ENDBRANCH  22  23
BRANCH  22  36
ATOM     36  C   UNL     1      -0.753   1.751   1.297  0.00  0.00    +0.011 C 
ATOM     37  C   UNL     1      -0.256   1.123  -0.006  0.00  0.00    +0.009 C 
ATOM     38  C   UNL     1      -2.228   1.401   1.503  0.00  0.00    +0.009 C 
ENDBRANCH  22  36
ENDBRANCH   2  22
TORSDOF 9
