REMARK  Name = ZINC03167365
REMARK  13 active torsions:
REMARK  status: ('A' for Active; 'I' for Inactive)
REMARK    1  A    between atoms: C_1  and  C_2
REMARK    2  A    between atoms: C_2  and  N_3
REMARK    3  A    between atoms: N_3  and  C_4
REMARK    4  A    between atoms: N_3  and  C_6
REMARK    5  A    between atoms: N_3  and  C_28
REMARK    6  A    between atoms: C_4  and  C_5
REMARK    7  A    between atoms: C_6  and  C_7
REMARK    8  A    between atoms: C_7  and  N_8
REMARK    9  A    between atoms: N_8  and  P_9
REMARK   10  A    between atoms: C_12  and  C_22
REMARK   11  A    between atoms: C_14  and  C_16
REMARK   12  A    between atoms: C_28  and  C_29
REMARK   13  A    between atoms: C_32  and  N_35
REMARK                            x       y       z     vdW  Elec       q    Type
REMARK                         _______ _______ _______ _____ _____    ______ ____
ROOT
ATOM      1  N   UNL     1      -2.165  -0.035  -3.573  0.00  0.00    -0.262 NA
ATOM      2  H   UNL     1      -2.085   0.894  -3.839  0.00  0.00    +0.130 HD
ENDROOT
BRANCH   1   3
ATOM      3  P   UNL     1      -3.093  -1.063  -4.451  0.00  0.00    +0.199 P 
ATOM      4  O   UNL     1      -4.144  -1.661  -3.597  0.00  0.00    -0.295 OA
ATOM      5  C   UNL     1      -2.057  -2.373  -5.196  0.00  0.00    +0.106 C 
ATOM      6  C   UNL     1      -2.253  -2.605  -6.498  0.00  0.00    +0.140 C 
ATOM      7  O   UNL     1      -3.147  -1.964  -7.255  0.00  0.00    -0.454 OA
ATOM      8  C   UNL     1      -3.742  -0.786  -7.054  0.00  0.00    +0.140 C 
ATOM      9  C   UNL     1      -3.849  -0.184  -5.864  0.00  0.00    +0.106 C 
BRANCH   8  10
ATOM     10  C   UNL     1      -4.324  -0.099  -8.229  0.00  0.00    +0.017 A 
ATOM     11  C   UNL     1      -4.953   1.137  -8.076  0.00  0.00    +0.011 A 
ATOM     12  C   UNL     1      -5.493   1.773  -9.175  0.00  0.00    +0.001 A 
ATOM     13  C   UNL     1      -5.413   1.187 -10.426  0.00  0.00    +0.000 A 
ATOM     14  C   UNL     1      -4.790  -0.038 -10.583  0.00  0.00    +0.001 A 
ATOM     15  C   UNL     1      -4.242  -0.681  -9.493  0.00  0.00    +0.011 A 
ENDBRANCH   8  10
BRANCH   6  16
ATOM     16  C   UNL     1      -1.423  -3.646  -7.146  0.00  0.00    +0.017 A 
ATOM     17  C   UNL     1      -0.477  -4.351  -6.401  0.00  0.00    +0.011 A 
ATOM     18  C   UNL     1       0.294  -5.320  -7.010  0.00  0.00    +0.001 A 
ATOM     19  C   UNL     1       0.131  -5.592  -8.356  0.00  0.00    +0.000 A 
ATOM     20  C   UNL     1      -0.805  -4.897  -9.100  0.00  0.00    +0.001 A 
ATOM     21  C   UNL     1      -1.586  -3.929  -8.501  0.00  0.00    +0.011 A 
ENDBRANCH   6  16
ENDBRANCH   1   3
BRANCH   1  22
ATOM     22  C   UNL     1      -1.456  -0.521  -2.386  0.00  0.00    +0.070 C 
BRANCH  22  23
ATOM     23  C   UNL     1      -0.021   0.009  -2.397  0.00  0.00    -0.059 C 
BRANCH  23  24
ATOM     24  N   UNL     1       0.690  -0.478  -1.207  0.00  0.00    +0.383 N 
BRANCH  24  26
ATOM     25  C   UNL     1      -0.019   1.526   0.010  0.00  0.00    -0.016 C 
ATOM     26  C   UNL     1       0.002  -0.004   0.002  0.00  0.00    -0.078 C 
ENDBRANCH  24  26
BRANCH  24  27
ATOM     27  C   UNL     1       0.710  -1.947  -1.215  0.00  0.00    -0.078 C 
ATOM     28  C   UNL     1       1.426  -2.440  -2.474  0.00  0.00    -0.016 C 
ENDBRANCH  24  27
BRANCH  24  29
ATOM     29  C   UNL     1       2.068   0.031  -1.217  0.00  0.00    -0.039 C 
BRANCH  29  30
ATOM     30  C   UNL     1       2.797  -0.469   0.004  0.00  0.00    -0.063 A 
ATOM     31  C   UNL     1       2.773   0.269   1.173  0.00  0.00    +0.004 A 
ATOM     32  C   UNL     1       3.442  -0.189   2.293  0.00  0.00    +0.033 A 
ATOM     33  C   UNL     1       4.133  -1.385   2.244  0.00  0.00    +0.126 A 
ATOM     34  C   UNL     1       4.156  -2.123   1.075  0.00  0.00    +0.033 A 
ATOM     35  C   UNL     1       3.484  -1.667  -0.043  0.00  0.00    +0.004 A 
BRANCH  33  36
ATOM     36  N   UNL     1       4.850  -1.875   3.443  0.00  0.00    +0.056 N 
ATOM     37  O   UNL     1       4.831  -1.229   4.465  0.00  0.00    -0.126 OA
ATOM     38  O   UNL     1       5.455  -2.920   3.400  0.00  0.00    -0.126 OA
ENDBRANCH  33  36
ENDBRANCH  29  30
ENDBRANCH  24  29
ENDBRANCH  23  24
ENDBRANCH  22  23
ENDBRANCH   1  22
TORSDOF 11
