REMARK  Name = ZINC08428560
REMARK  1 active torsions:
REMARK  status: ('A' for Active; 'I' for Inactive)
REMARK    1  A    between atoms: C_4  and  N_7
REMARK                            x       y       z     vdW  Elec       q    Type
REMARK                         _______ _______ _______ _____ _____    ______ ____
ROOT
ATOM      1  N   UNL     1       1.980   1.904  -1.207  0.00  0.00    -0.234 N 
ATOM      2  C   UNL     1       3.079   2.677  -1.326  0.00  0.00    +0.255 C 
ATOM      3  O   UNL     1       3.446   3.059  -2.421  0.00  0.00    -0.269 OA
ATOM      4  C   UNL     1       3.832   3.054  -0.117  0.00  0.00    +0.058 A 
ATOM      5  C   UNL     1       4.864   3.989  -0.162  0.00  0.00    +0.015 A 
ATOM      6  C   UNL     1       5.538   4.315   0.996  0.00  0.00    +0.001 A 
ATOM      7  C   UNL     1       5.202   3.716   2.200  0.00  0.00    +0.002 A 
ATOM      8  C   UNL     1       4.190   2.776   2.257  0.00  0.00    +0.024 A 
ATOM      9  C   UNL     1       3.505   2.435   1.103  0.00  0.00    +0.041 A 
ATOM     10  N   UNL     1       2.498   1.475   1.107  0.00  0.00    -0.311 N 
ATOM     11  C   UNL     1       1.434   1.570   0.105  0.00  0.00    +0.212 C 
ATOM     12  C   UNL     1       0.400   2.568   0.525  0.00  0.00    +0.027 A 
ATOM     13  C   UNL     1       0.483   3.924   0.759  0.00  0.00    +0.048 A 
ATOM     14  C   UNL     1      -0.688   4.571   1.145  0.00  0.00    +0.124 A 
ATOM     15  C   UNL     1      -1.877   3.881   1.284  0.00  0.00    +0.040 A 
ATOM     16  C   UNL     1      -1.966   2.518   1.050  0.00  0.00    +0.026 A 
ATOM     17  C   UNL     1      -0.798   1.858   0.664  0.00  0.00    +0.041 A 
ATOM     18  N   UNL     1      -0.602   0.520   0.366  0.00  0.00    -0.282 N 
ATOM     19  C   UNL     1       0.679   0.259   0.034  0.00  0.00    +0.264 C 
ATOM     20  O   UNL     1       1.139  -0.822  -0.270  0.00  0.00    -0.271 OA
ATOM     21  F   UNL     1      -0.661   5.900   1.387  0.00  0.00    -0.205 F 
ATOM     22  H   UNL     1       2.501   0.757   1.760  0.00  0.00    +0.149 HD
ATOM     23  H   UNL     1      -1.302  -0.150   0.395  0.00  0.00    +0.155 HD
ENDROOT
BRANCH   1  27
ATOM     24  C   UNL     1       0.114   0.451  -4.636  0.00  0.00    +0.000 A 
ATOM     25  C   UNL     1      -0.363   1.595  -4.023  0.00  0.00    +0.002 A 
ATOM     26  C   UNL     1       0.253   2.080  -2.886  0.00  0.00    +0.023 A 
ATOM     27  C   UNL     1       1.353   1.417  -2.358  0.00  0.00    +0.039 A 
ATOM     28  C   UNL     1       1.833   0.271  -2.980  0.00  0.00    +0.023 A 
ATOM     29  C   UNL     1       1.209  -0.211  -4.114  0.00  0.00    +0.002 A 
ENDBRANCH   1  27
TORSDOF 1
