REMARK  Name = ZINC35458495
REMARK  7 active torsions:
REMARK  status: ('A' for Active; 'I' for Inactive)
REMARK    1  A    between atoms: C_1  and  C_2
REMARK    2  A    between atoms: C_2  and  C_3
REMARK    3  A    between atoms: C_3  and  N_4
REMARK    4  A    between atoms: N_4  and  C_5
REMARK    5  A    between atoms: C_5  and  C_6
REMARK    6  A    between atoms: C_16  and  C_18
REMARK    7  A    between atoms: N_26  and  C_27
REMARK                            x       y       z     vdW  Elec       q    Type
REMARK                         _______ _______ _______ _____ _____    ______ ____
ROOT
ATOM      1  C   UNL     1       0.236  -2.847  -3.478  0.00  0.00    +0.234 C 
ATOM      2  O   UNL     1       1.198  -2.439  -4.094  0.00  0.00    -0.274 OA
ATOM      3  N   UNL     1      -0.716  -3.562  -4.112  0.00  0.00    -0.286 N 
ATOM      4  C   UNL     1      -1.894  -4.062  -3.388  0.00  0.00    +0.130 C 
ATOM      5  C   UNL     1      -3.154  -3.398  -3.952  0.00  0.00    +0.140 C 
ATOM      6  N   UNL     1      -3.108  -3.442  -5.418  0.00  0.00    -0.347 N 
ATOM      7  C   UNL     1      -4.155  -3.292  -6.274  0.00  0.00    +0.086 A 
ATOM      8  C   UNL     1      -3.688  -3.390  -7.536  0.00  0.00    +0.019 A 
ATOM      9  C   UNL     1      -2.297  -3.613  -7.456  0.00  0.00    +0.025 A 
ATOM     10  C   UNL     1      -1.973  -3.644  -6.154  0.00  0.00    +0.044 A 
ATOM     11  C   UNL     1      -0.608  -3.861  -5.552  0.00  0.00    +0.153 C 
ENDROOT
BRANCH  11  12
ATOM     12  C   UNL     1      -0.185  -5.294  -5.750  0.00  0.00    -0.021 A 
ATOM     13  C   UNL     1       1.022  -5.581  -6.359  0.00  0.00    +0.006 A 
ATOM     14  C   UNL     1       1.410  -6.895  -6.540  0.00  0.00    +0.000 A 
ATOM     15  C   UNL     1       0.590  -7.923  -6.112  0.00  0.00    +0.000 A 
ATOM     16  C   UNL     1      -0.617  -7.636  -5.502  0.00  0.00    +0.000 A 
ATOM     17  C   UNL     1      -1.002  -6.322  -5.317  0.00  0.00    +0.006 A 
ENDBRANCH  11  12
BRANCH   1  18
ATOM     18  C   UNL     1       0.104  -2.555  -2.006  0.00  0.00    +0.205 C 
BRANCH  18  19
ATOM     19  N   UNL     1       1.256  -1.769  -1.559  0.00  0.00    -0.277 N 
ATOM     20  C   UNL     1       2.362  -2.392  -1.106  0.00  0.00    +0.303 C 
ATOM     21  O   UNL     1       2.403  -3.607  -1.069  0.00  0.00    -0.253 OA
ATOM     22  N   UNL     1       3.422  -1.669  -0.695  0.00  0.00    -0.296 N 
ATOM     23  H   UNL     1       3.390  -0.700  -0.725  0.00  0.00    +0.151 HD
BRANCH  22  24
ATOM     24  C   UNL     1       4.625  -2.346  -0.203  0.00  0.00    +0.074 C 
ATOM     25  C   UNL     1       5.522  -2.717  -1.385  0.00  0.00    +0.022 C 
ATOM     26  C   UNL     1       6.777  -3.424  -0.871  0.00  0.00    +0.002 C 
ATOM     27  C   UNL     1       7.538  -2.491   0.073  0.00  0.00    +0.000 C 
ATOM     28  C   UNL     1       6.641  -2.121   1.256  0.00  0.00    +0.002 C 
ATOM     29  C   UNL     1       5.385  -1.413   0.742  0.00  0.00    +0.022 C 
ENDBRANCH  22  24
BRANCH  19  30
ATOM     30  C   UNL     1       1.207  -0.305  -1.604  0.00  0.00    +0.109 C 
BRANCH  30  32
ATOM     31  C   UNL     1       0.603   1.756  -0.328  0.00  0.00    +0.005 C 
ATOM     32  C   UNL     1       0.654   0.227  -0.281  0.00  0.00    +0.016 C 
ENDBRANCH  30  32
ENDBRANCH  19  30
ENDBRANCH  18  19
ENDBRANCH   1  18
TORSDOF 6
