REMARK  Name = ZINC06443908
REMARK  12 active torsions:
REMARK  status: ('A' for Active; 'I' for Inactive)
REMARK    1  A    between atoms: C_1  and  C_2
REMARK    2  A    between atoms: C_12  and  C_14
REMARK    3  A    between atoms: C_14  and  C_16
REMARK    4  A    between atoms: C_14  and  N_67
REMARK    5  A    between atoms: N_20  and  C_21
REMARK    6  A    between atoms: C_21  and  C_22
REMARK    7  A    between atoms: C_21  and  C_23
REMARK    8  A    between atoms: C_21  and  C_24
REMARK    9  A    between atoms: C_25  and  C_26
REMARK   10  A    between atoms: C_25  and  N_67
REMARK   11  A    between atoms: C_31  and  C_32
REMARK   12  A    between atoms: C_31  and  N_67
REMARK                            x       y       z     vdW  Elec       q    Type
REMARK                         _______ _______ _______ _____ _____    ______ ____
ROOT
ATOM      1  C   UNL     1       2.355   2.671   0.417  0.00  0.00    +0.039 C 
ENDROOT
BRANCH   1  13
ATOM      2  C   UNL     1       4.469   3.890   6.520  0.00  0.00    +0.046 C 
ATOM      3  C   UNL     1       3.147   4.165   5.851  0.00  0.00    -0.026 A 
ATOM      4  C   UNL     1       2.131   4.777   6.553  0.00  0.00    +0.005 A 
ATOM      5  C   UNL     1       0.908   5.037   5.948  0.00  0.00    +0.001 A 
ATOM      6  C   UNL     1       0.690   4.690   4.645  0.00  0.00    +0.010 A 
ATOM      7  C   UNL     1       1.707   4.068   3.913  0.00  0.00    -0.001 A 
ATOM      8  C   UNL     1       2.948   3.803   4.523  0.00  0.00    +0.052 A 
ATOM      9  N   UNL     1       3.947   3.189   3.798  0.00  0.00    -0.322 N 
ATOM     10  H   UNL     1       4.801   3.007   4.220  0.00  0.00    +0.169 HD
ATOM     11  C   UNL     1       3.753   2.838   2.515  0.00  0.00    +0.251 A 
ATOM     12  O   UNL     1       4.659   2.297   1.904  0.00  0.00    -0.268 OA
ATOM     13  C   UNL     1       2.529   3.081   1.857  0.00  0.00    +0.011 A 
ATOM     14  C   UNL     1       1.509   3.687   2.514  0.00  0.00    +0.017 A 
ENDBRANCH   1  13
BRANCH   1  15
ATOM     15  C   UNL     1       2.289   1.168   0.327  0.00  0.00    +0.143 A 
ATOM     16  N   UNL     1       3.236   0.322   0.653  0.00  0.00    -0.115 NA
ATOM     17  N   UNL     1       2.798  -0.869   0.434  0.00  0.00    -0.023 NA
ATOM     18  N   UNL     1       1.596  -0.806  -0.024  0.00  0.00    -0.043 NA
ATOM     19  N   UNL     1       1.247   0.434  -0.104  0.00  0.00    -0.225 N 
BRANCH  19  20
ATOM     20  C   UNL     1      -0.040   0.946  -0.581  0.00  0.00    +0.059 C 
ATOM     21  C   UNL     1      -0.964  -0.227  -0.914  0.00  0.00    +0.036 C 
ATOM     22  C   UNL     1      -0.682   1.807   0.509  0.00  0.00    +0.036 C 
ATOM     23  C   UNL     1       0.181   1.793  -1.835  0.00  0.00    +0.036 C 
ENDBRANCH  19  20
ENDBRANCH   1  15
BRANCH   1  24
ATOM     24  N   UNL     1       3.519   3.154  -0.357  0.00  0.00    +0.394 N 
ATOM     25  H   UNL     1       4.376   2.956   0.172  0.00  0.00    -0.080 HD
BRANCH  24  26
ATOM     26  C   UNL     1       3.413   4.612  -0.572  0.00  0.00    -0.034 C 
BRANCH  26  27
ATOM     27  C   UNL     1       3.882   5.318   0.674  0.00  0.00    -0.027 A 
ATOM     28  C   UNL     1       5.147   5.594   1.073  0.00  0.00    +0.009 A 
ATOM     29  C   UNL     1       5.343   6.264   2.267  0.00  0.00    +0.008 A 
ATOM     30  C   UNL     1       4.264   6.615   3.007  0.00  0.00    +0.045 A 
ATOM     31  S   UNL     1       2.916   6.001   2.011  0.00  0.00    -0.103 S 
ENDBRANCH  26  27
ENDBRANCH  24  26
BRANCH  24  32
ATOM     32  C   UNL     1       3.585   2.454  -1.657  0.00  0.00    -0.045 C 
BRANCH  32  33
ATOM     33  C   UNL     1       4.910   2.804  -2.338  0.00  0.00    +0.102 C 
ATOM     34  C   UNL     1       4.974   2.174  -3.747  0.00  0.00    +0.032 C 
ATOM     35  C   UNL     1       6.450   1.746  -3.902  0.00  0.00    +0.030 C 
ATOM     36  C   UNL     1       7.105   2.168  -2.567  0.00  0.00    +0.160 C 
ATOM     37  O   UNL     1       6.016   2.213  -1.620  0.00  0.00    -0.378 OA
ENDBRANCH  32  33
ENDBRANCH  24  32
ENDBRANCH   1  24
TORSDOF 8
