REMARK  Name = ZINC41022102
REMARK  17 active torsions:
REMARK  status: ('A' for Active; 'I' for Inactive)
REMARK    1  A    between atoms: C_1  and  C_2
REMARK    2  A    between atoms: C_2  and  C_3
REMARK    3  A    between atoms: C_3  and  C_4
REMARK    4  A    between atoms: C_4  and  S_5
REMARK    5  A    between atoms: S_5  and  C_6
REMARK    6  A    between atoms: C_11  and  C_28
REMARK    7  A    between atoms: C_13  and  C_17
REMARK    8  A    between atoms: C_14  and  C_16
REMARK    9  A    between atoms: N_19  and  C_20
REMARK   10  A    between atoms: C_24  and  C_27
REMARK   11  A    between atoms: C_25  and  C_26
REMARK   12  A    between atoms: C_31  and  O_36
REMARK   13  A    between atoms: C_32  and  O_34
REMARK   14  A    between atoms: O_34  and  C_35
REMARK   15  A    between atoms: O_36  and  C_37
REMARK   16  A    between atoms: C_37  and  C_38
REMARK   17  A    between atoms: C_38  and  C_39
REMARK                            x       y       z     vdW  Elec       q    Type
REMARK                         _______ _______ _______ _____ _____    ______ ____
ROOT
ATOM      1  C   UNL     1      -1.642  -4.358   0.904  0.00  0.00    +0.210 A 
ATOM      2  N   UNL     1      -0.615  -5.043   0.380  0.00  0.00    -0.187 NA
ATOM      3  C   UNL     1      -0.943  -6.301   0.265  0.00  0.00    +0.219 A 
ATOM      4  N   UNL     1      -2.213  -6.449   0.717  0.00  0.00    -0.220 N 
ATOM      5  N   UNL     1      -2.639  -5.187   1.131  0.00  0.00    -0.141 NA
ATOM      6  C   UNL     1      -2.922  -7.725   0.733  0.00  0.00    +0.177 C 
ATOM      7  C   UNL     1      -1.949  -8.842   0.466  0.00  0.00    +0.060 C 
ATOM      8  C   UNL     1      -0.701  -8.636   0.022  0.00  0.00    +0.018 C 
ATOM      9  N   UNL     1      -0.208  -7.376  -0.215  0.00  0.00    -0.287 N 
ATOM     10  C   UNL     1       0.191  -9.825  -0.225  0.00  0.00    +0.061 C 
ATOM     11  H   UNL     1       0.622  -7.242  -0.700  0.00  0.00    +0.155 HD
ENDROOT
BRANCH   6  12
ATOM     12  C   UNL     1      -3.987  -7.721  -0.334  0.00  0.00    -0.015 A 
ATOM     13  C   UNL     1      -3.648  -7.444  -1.645  0.00  0.00    +0.010 A 
ATOM     14  C   UNL     1      -4.622  -7.440  -2.627  0.00  0.00    +0.050 A 
ATOM     15  C   UNL     1      -5.939  -7.713  -2.298  0.00  0.00    +0.162 A 
ATOM     16  C   UNL     1      -6.280  -7.992  -0.978  0.00  0.00    +0.162 A 
ATOM     17  C   UNL     1      -5.299  -8.000   0.001  0.00  0.00    +0.055 A 
BRANCH  16  18
ATOM     18  O   UNL     1      -7.572  -8.260  -0.650  0.00  0.00    -0.491 OA
ATOM     19  C   UNL     1      -7.863  -8.453   0.736  0.00  0.00    +0.277 C 
ENDBRANCH  16  18
BRANCH  15  20
ATOM     20  O   UNL     1      -6.898  -7.708  -3.263  0.00  0.00    -0.488 OA
BRANCH  20  21
ATOM     21  C   UNL     1      -6.476  -7.413  -4.596  0.00  0.00    +0.229 C 
BRANCH  21  22
ATOM     22  C   UNL     1      -7.683  -7.454  -5.534  0.00  0.00    +0.038 C 
ATOM     23  C   UNL     1      -7.231  -7.138  -6.961  0.00  0.00    +0.007 C 
ENDBRANCH  21  22
ENDBRANCH  20  21
ENDBRANCH  15  20
ENDBRANCH   6  12
BRANCH   7  24
ATOM     24  C   UNL     1      -2.371 -10.173   0.696  0.00  0.00    +0.248 C 
ATOM     25  O   UNL     1      -2.372 -10.625   1.827  0.00  0.00    -0.270 OA
ATOM     26  N   UNL     1      -2.772 -10.941  -0.337  0.00  0.00    -0.281 N 
ATOM     27  H   UNL     1      -2.842 -10.559  -1.226  0.00  0.00    +0.155 HD
BRANCH  26  28
ATOM     28  C   UNL     1      -3.087 -12.287  -0.127  0.00  0.00    +0.037 A 
ATOM     29  C   UNL     1      -3.822 -12.664   0.990  0.00  0.00    +0.023 A 
ATOM     30  C   UNL     1      -4.131 -13.994   1.194  0.00  0.00    +0.002 A 
ATOM     31  C   UNL     1      -3.709 -14.951   0.289  0.00  0.00    +0.004 A 
ATOM     32  C   UNL     1      -2.977 -14.579  -0.824  0.00  0.00    -0.046 A 
ATOM     33  C   UNL     1      -2.669 -13.249  -1.037  0.00  0.00    -0.026 A 
ATOM     34  C   UNL     1      -1.877 -12.844  -2.253  0.00  0.00    +0.046 C 
ATOM     35  C   UNL     1      -2.519 -15.625  -1.807  0.00  0.00    +0.044 C 
ENDBRANCH  26  28
ENDBRANCH   7  24
BRANCH   1  36
ATOM     36  S   UNL     1      -1.653  -2.629   1.241  0.00  0.00    -0.084 S 
BRANCH  36  37
ATOM     37  C   UNL     1      -0.011  -2.068   0.712  0.00  0.00    +0.077 C 
BRANCH  37  38
ATOM     38  C   UNL     1       0.116  -0.562   0.953  0.00  0.00    +0.011 C 
BRANCH  38  40
ATOM     39  C   UNL     1       1.628   1.416   0.747  0.00  0.00    +0.004 C 
ATOM     40  C   UNL     1       1.501  -0.089   0.506  0.00  0.00    -0.003 C 
ENDBRANCH  38  40
ENDBRANCH  37  38
ENDBRANCH  36  37
ENDBRANCH   1  36
TORSDOF 11
