REMARK  Name = ZINC18200350
REMARK  14 active torsions:
REMARK  status: ('A' for Active; 'I' for Inactive)
REMARK    1  A    between atoms: C_1  and  C_2
REMARK    2  A    between atoms: C_2  and  C_3
REMARK    3  A    between atoms: C_2  and  C_4
REMARK    4  A    between atoms: C_2  and  C_5
REMARK    5  A    between atoms: C_7  and  C_16
REMARK    6  A    between atoms: C_9  and  C_12
REMARK    7  A    between atoms: C_10  and  O_11
REMARK    8  A    between atoms: C_12  and  C_13
REMARK    9  A    between atoms: C_12  and  C_14
REMARK   10  A    between atoms: C_12  and  C_15
REMARK   11  A    between atoms: C_20  and  O_34
REMARK   12  A    between atoms: C_21  and  O_32
REMARK   13  A    between atoms: O_32  and  C_33
REMARK   14  A    between atoms: O_34  and  C_35
REMARK                            x       y       z     vdW  Elec       q    Type
REMARK                         _______ _______ _______ _____ _____    ______ ____
ROOT
ATOM      1  C   UNL     1      -2.729   2.326   2.514  0.00  0.00    +0.086 C 
ATOM      2  C   UNL     1      -4.052   2.989   2.256  0.00  0.00    -0.011 A 
ATOM      3  C   UNL     1      -4.593   3.840   3.204  0.00  0.00    +0.055 A 
ATOM      4  C   UNL     1      -5.814   4.451   2.976  0.00  0.00    +0.162 A 
ATOM      5  C   UNL     1      -6.502   4.213   1.790  0.00  0.00    +0.163 A 
ATOM      6  C   UNL     1      -5.962   3.364   0.839  0.00  0.00    +0.073 A 
ATOM      7  C   UNL     1      -4.736   2.754   1.071  0.00  0.00    +0.039 A 
ATOM      8  N   UNL     1      -4.180   1.906   0.111  0.00  0.00    -0.317 N 
ATOM      9  C   UNL     1      -2.842   1.636   0.121  0.00  0.00    +0.016 C 
ATOM     10  C   UNL     1      -2.104   1.828   1.236  0.00  0.00    +0.024 C 
ATOM     11  C   UNL     1      -0.720   1.573   1.242  0.00  0.00    +0.162 C 
ATOM     12  O   UNL     1      -0.084   1.749   2.263  0.00  0.00    -0.292 OA
ATOM     13  C   UNL     1      -0.013   1.086   0.008  0.00  0.00    +0.080 C 
ATOM     14  C   UNL     1      -0.758   1.595  -1.230  0.00  0.00    +0.014 C 
ATOM     15  C   UNL     1      -2.210   1.121  -1.150  0.00  0.00    +0.051 C 
ATOM     16  H   UNL     1      -4.747   1.508  -0.568  0.00  0.00    +0.152 HD
ENDROOT
BRANCH   1  19
ATOM     17  C   UNL     1      -2.509   0.088   5.545  0.00  0.00    -0.000 A 
ATOM     18  C   UNL     1      -2.321   1.154   4.687  0.00  0.00    +0.012 A 
ATOM     19  C   UNL     1      -2.936   1.162   3.448  0.00  0.00    -0.035 A 
ATOM     20  C   UNL     1      -3.744   0.106   3.068  0.00  0.00    +0.012 A 
ATOM     21  C   UNL     1      -3.930  -0.964   3.921  0.00  0.00    -0.000 A 
ATOM     22  C   UNL     1      -3.315  -0.975   5.164  0.00  0.00    +0.124 A 
BRANCH  17  24
ATOM     23  C   UNL     1      -1.014   1.358   7.063  0.00  0.00    +0.015 C 
ATOM     24  C   UNL     1      -1.839   0.080   6.895  0.00  0.00    -0.009 C 
ATOM     25  C   UNL     1      -2.902   0.011   7.993  0.00  0.00    +0.015 C 
ATOM     26  C   UNL     1      -0.918  -1.138   7.000  0.00  0.00    +0.015 C 
ENDBRANCH  17  24
BRANCH  21  27
ATOM     27  C   UNL     1      -4.806  -2.117   3.503  0.00  0.00    -0.009 C 
ATOM     28  C   UNL     1      -5.357  -1.857   2.100  0.00  0.00    +0.015 C 
ATOM     29  C   UNL     1      -3.984  -3.407   3.498  0.00  0.00    +0.015 C 
ATOM     30  C   UNL     1      -5.968  -2.257   4.489  0.00  0.00    +0.015 C 
ENDBRANCH  21  27
BRANCH  22  31
ATOM     31  O   UNL     1      -3.501  -2.024   6.007  0.00  0.00    -0.506 OA
ATOM     32  H   UNL     1      -4.257  -1.921   6.602  0.00  0.00    +0.292 HD
ENDBRANCH  22  31
ENDBRANCH   1  19
BRANCH   5  33
ATOM     33  O   UNL     1      -7.702   4.812   1.566  0.00  0.00    -0.491 OA
ATOM     34  C   UNL     1      -8.351   4.520   0.327  0.00  0.00    +0.277 C 
ENDBRANCH   5  33
BRANCH   4  35
ATOM     35  O   UNL     1      -6.340   5.287   3.911  0.00  0.00    -0.491 OA
ATOM     36  C   UNL     1      -5.580   5.487   5.105  0.00  0.00    +0.277 C 
ENDBRANCH   4  35
TORSDOF 6
