REMARK  Name = ZINC39761534
REMARK  4 active torsions:
REMARK  status: ('A' for Active; 'I' for Inactive)
REMARK    1  A    between atoms: C_1  and  C_2
REMARK    2  A    between atoms: C_2  and  C_11
REMARK    3  A    between atoms: C_17  and  C_19
REMARK    4  A    between atoms: C_22  and  N_25
REMARK                            x       y       z     vdW  Elec       q    Type
REMARK                         _______ _______ _______ _____ _____    ______ ____
ROOT
ATOM      1  C   UNL     1      -1.401  -0.551  -0.056  0.00  0.00    +0.227 C 
ATOM      2  O   UNL     1      -1.806  -1.276   0.827  0.00  0.00    -0.275 OA
ATOM      3  N   UNL     1      -2.205  -0.234  -1.090  0.00  0.00    -0.238 N 
ATOM      4  C   UNL     1      -3.496  -0.737  -1.143  0.00  0.00    +0.314 A 
ATOM      5  N   UNL     1      -4.059  -1.523  -0.258  0.00  0.00    -0.092 NA
ATOM      6  N   UNL     1      -5.262  -1.792  -0.627  0.00  0.00    -0.106 NA
ATOM      7  C   UNL     1      -5.513  -1.188  -1.764  0.00  0.00    +0.250 A 
ATOM      8  O   UNL     1      -4.402  -0.504  -2.111  0.00  0.00    -0.405 OA
ATOM      9  H   UNL     1      -1.881   0.346  -1.797  0.00  0.00    +0.159 HD
ENDROOT
BRANCH   1  11
ATOM     10  C   UNL     1      -0.019   1.526   0.010  0.00  0.00    +0.021 C 
ATOM     11  C   UNL     1       0.002  -0.004   0.002  0.00  0.00    +0.051 C 
ATOM     12  C   UNL     1       0.845  -0.530  -1.185  0.00  0.00    +0.024 C 
ATOM     13  C   UNL     1       1.997  -1.328  -0.496  0.00  0.00    +0.013 C 
ATOM     14  C   UNL     1       2.244  -0.431   0.772  0.00  0.00    +0.016 C 
ATOM     15  C   UNL     1       0.753  -0.550   1.258  0.00  0.00    +0.027 C 
ATOM     16  C   UNL     1       0.570  -2.070   1.171  0.00  0.00    -0.026 C 
ATOM     17  C   UNL     1       1.290  -2.530   0.141  0.00  0.00    -0.027 C 
ENDBRANCH   1  11
BRANCH   7  18
ATOM     18  C   UNL     1      -6.780  -1.242  -2.522  0.00  0.00    +0.039 A 
ATOM     19  C   UNL     1      -6.905  -0.551  -3.728  0.00  0.00    +0.015 A 
ATOM     20  C   UNL     1      -8.091  -0.606  -4.431  0.00  0.00    +0.033 A 
ATOM     21  C   UNL     1      -9.155  -1.343  -3.942  0.00  0.00    +0.126 A 
ATOM     22  C   UNL     1      -9.038  -2.030  -2.747  0.00  0.00    +0.033 A 
ATOM     23  C   UNL     1      -7.856  -1.989  -2.038  0.00  0.00    +0.015 A 
BRANCH  21  24
ATOM     24  N   UNL     1     -10.425  -1.397  -4.702  0.00  0.00    +0.056 N 
ATOM     25  O   UNL     1     -10.530  -0.797  -5.746  0.00  0.00    -0.126 OA
ATOM     26  O   UNL     1     -11.356  -2.040  -4.277  0.00  0.00    -0.126 OA
ENDBRANCH  21  24
ENDBRANCH   7  18
TORSDOF 3
