REMARK  Name = ZINC01962948
REMARK  16 active torsions:
REMARK  status: ('A' for Active; 'I' for Inactive)
REMARK    1  A    between atoms: C_1  and  C_2
REMARK    2  A    between atoms: C_9  and  N_15
REMARK    3  A    between atoms: C_10  and  C_11
REMARK    4  A    between atoms: C_11  and  O_13
REMARK    5  A    between atoms: O_13  and  C_14
REMARK    6  A    between atoms: C_16  and  C_18
REMARK    7  A    between atoms: C_18  and  O_19
REMARK    8  A    between atoms: O_19  and  C_20
REMARK    9  A    between atoms: C_20  and  C_22
REMARK   10  A    between atoms: C_23  and  C_24
REMARK   11  A    between atoms: C_26  and  O_34
REMARK   12  A    between atoms: C_27  and  O_32
REMARK   13  A    between atoms: C_28  and  O_30
REMARK   14  A    between atoms: O_30  and  C_31
REMARK   15  A    between atoms: O_32  and  C_33
REMARK   16  A    between atoms: O_34  and  C_35
REMARK                            x       y       z     vdW  Elec       q    Type
REMARK                         _______ _______ _______ _____ _____    ______ ____
ROOT
ATOM      1  N   UNL     1      -2.307  -5.916   0.763  0.00  0.00    -0.277 N 
ATOM      2  C   UNL     1      -3.571  -6.203   0.396  0.00  0.00    +0.255 C 
ATOM      3  O   UNL     1      -4.299  -5.323  -0.012  0.00  0.00    -0.272 OA
ATOM      4  H   UNL     1      -1.725  -6.620   1.090  0.00  0.00    +0.155 HD
ENDROOT
BRANCH   1  12
ATOM      5  C   UNL     1      -0.019   1.526   0.010  0.00  0.00    +0.008 C 
ATOM      6  C   UNL     1       0.002  -0.004   0.002  0.00  0.00    -0.009 C 
ATOM      7  C   UNL     1       0.742  -0.514   1.242  0.00  0.00    +0.008 C 
ATOM      8  C   UNL     1       0.984  -2.020   1.121  0.00  0.00    +0.037 C 
ATOM      9  C   UNL     1      -0.341  -2.706   0.809  0.00  0.00    -0.021 A 
ATOM     10  C   UNL     1      -1.390  -2.006   0.327  0.00  0.00    -0.004 A 
ATOM     11  S   UNL     1      -2.678  -3.203   0.124  0.00  0.00    -0.077 S 
ATOM     12  C   UNL     1      -1.837  -4.615   0.672  0.00  0.00    +0.086 A 
ATOM     13  C   UNL     1      -0.579  -4.127   0.999  0.00  0.00    +0.091 A 
ATOM     14  C   UNL     1      -1.437  -0.538   0.031  0.00  0.00    +0.046 C 
BRANCH  13  15
ATOM     15  C   UNL     1       0.468  -5.011   1.515  0.00  0.00    +0.342 C 
ATOM     16  O   UNL     1       0.576  -5.191   2.713  0.00  0.00    -0.245 OA
BRANCH  15  17
ATOM     17  O   UNL     1       1.314  -5.624   0.662  0.00  0.00    -0.464 OA
ATOM     18  C   UNL     1       2.327  -6.486   1.244  0.00  0.00    +0.280 C 
ENDBRANCH  15  17
ENDBRANCH  13  15
ENDBRANCH   1  12
BRANCH   2  19
ATOM     19  C   UNL     1      -4.082  -7.618   0.495  0.00  0.00    +0.328 C 
BRANCH  19  20
ATOM     20  O   UNL     1      -5.439  -7.667   0.052  0.00  0.00    -0.452 OA
BRANCH  20  21
ATOM     21  C   UNL     1      -6.049  -8.870   0.077  0.00  0.00    +0.332 C 
ATOM     22  O   UNL     1      -5.443  -9.851   0.465  0.00  0.00    -0.246 OA
BRANCH  21  23
ATOM     23  C   UNL     1      -7.396  -8.991  -0.348  0.00  0.00    +0.092 C 
ATOM     24  C   UNL     1      -8.007 -10.196  -0.323  0.00  0.00    +0.015 C 
BRANCH  24  25
ATOM     25  C   UNL     1      -9.403 -10.321  -0.764  0.00  0.00    -0.018 A 
ATOM     26  C   UNL     1     -10.104  -9.193  -1.205  0.00  0.00    +0.057 A 
ATOM     27  C   UNL     1     -11.415  -9.316  -1.624  0.00  0.00    +0.166 A 
ATOM     28  C   UNL     1     -12.042 -10.559  -1.597  0.00  0.00    +0.204 A 
ATOM     29  C   UNL     1     -11.350 -11.683  -1.154  0.00  0.00    +0.166 A 
ATOM     30  C   UNL     1     -10.037 -11.569  -0.739  0.00  0.00    +0.057 A 
BRANCH  29  31
ATOM     31  O   UNL     1     -11.967 -12.895  -1.129  0.00  0.00    -0.491 OA
ATOM     32  C   UNL     1     -11.199 -14.005  -0.663  0.00  0.00    +0.277 C 
ENDBRANCH  29  31
BRANCH  28  33
ATOM     33  O   UNL     1     -13.334 -10.675  -2.005  0.00  0.00    -0.488 OA
ATOM     34  C   UNL     1     -14.345 -10.504  -1.010  0.00  0.00    +0.277 C 
ENDBRANCH  28  33
BRANCH  27  35
ATOM     35  O   UNL     1     -12.095  -8.220  -2.057  0.00  0.00    -0.491 OA
ATOM     36  C   UNL     1     -11.389  -6.977  -2.058  0.00  0.00    +0.277 C 
ENDBRANCH  27  35
ENDBRANCH  24  25
ENDBRANCH  21  23
ENDBRANCH  20  21
ENDBRANCH  19  20
ENDBRANCH   2  19
TORSDOF 11
