REMARK  Name = ZINC59037463
REMARK  7 active torsions:
REMARK  status: ('A' for Active; 'I' for Inactive)
REMARK    1  A    between atoms: C_1  and  C_2
REMARK    2  A    between atoms: C_11  and  C_14
REMARK    3  A    between atoms: C_14  and  N_15
REMARK    4  A    between atoms: N_18  and  C_19
REMARK    5  A    between atoms: C_19  and  C_20
REMARK    6  A    between atoms: C_20  and  C_22
REMARK    7  A    between atoms: C_20  and  N_27
REMARK                            x       y       z     vdW  Elec       q    Type
REMARK                         _______ _______ _______ _____ _____    ______ ____
ROOT
ATOM      1  N   UNL     1      -2.092  -7.686   4.358  0.00  0.00    -0.295 N 
ATOM      2  C   UNL     1      -2.541  -8.761   5.037  0.00  0.00    +0.300 C 
ATOM      3  O   UNL     1      -3.103  -8.613   6.105  0.00  0.00    -0.253 OA
ATOM      4  N   UNL     1      -2.369  -9.998   4.531  0.00  0.00    -0.301 N 
ATOM      5  H   UNL     1      -1.644  -7.804   3.506  0.00  0.00    +0.151 HD
ATOM      6  H   UNL     1      -1.921 -10.116   3.679  0.00  0.00    +0.150 HD
ENDROOT
BRANCH   1   7
ATOM      7  C   UNL     1      -2.279  -6.341   4.907  0.00  0.00    +0.142 C 
BRANCH   7  18
ATOM      8  C   UNL     1       2.388  -1.775  -2.007  0.00  0.00    +0.007 C 
ATOM      9  C   UNL     1       1.542  -1.606  -0.744  0.00  0.00    -0.011 C 
ATOM     10  C   UNL     1       2.238  -2.294   0.433  0.00  0.00    +0.022 C 
ATOM     11  C   UNL     1       1.405  -2.093   1.703  0.00  0.00    +0.107 C 
ATOM     12  N   UNL     1       0.037  -2.566   1.451  0.00  0.00    -0.317 N 
ATOM     13  C   UNL     1      -0.691  -2.035   0.290  0.00  0.00    +0.107 C 
ATOM     14  C   UNL     1       0.165  -2.237  -0.964  0.00  0.00    +0.022 C 
ATOM     15  C   UNL     1      -0.557  -3.498   2.294  0.00  0.00    +0.099 A 
ATOM     16  C   UNL     1      -1.893  -3.841   2.110  0.00  0.00    +0.042 A 
ATOM     17  C   UNL     1      -2.471  -4.769   2.957  0.00  0.00    +0.010 A 
ATOM     18  C   UNL     1      -1.691  -5.326   3.962  0.00  0.00    -0.014 A 
ATOM     19  C   UNL     1      -0.372  -4.939   4.087  0.00  0.00    +0.089 A 
ATOM     20  N   UNL     1       0.155  -4.055   3.261  0.00  0.00    -0.349 N 
ATOM     21  H   UNL     1       1.086  -3.804   3.368  0.00  0.00    +0.167 HD
ENDBRANCH   7  18
ENDBRANCH   1   7
BRANCH   4  22
ATOM     22  C   UNL     1      -2.858 -11.165   5.269  0.00  0.00    +0.098 C 
BRANCH  22  23
ATOM     23  C   UNL     1      -2.433 -12.443   4.542  0.00  0.00    +0.016 C 
BRANCH  23  24
ATOM     24  N   UNL     1      -2.826 -13.613   5.339  0.00  0.00    +0.387 N 
ATOM     25  C   UNL     1      -2.441 -14.864   4.635  0.00  0.00    -0.078 C 
ATOM     26  C   UNL     1      -2.387 -15.910   5.777  0.00  0.00    -0.020 C 
ATOM     27  C   UNL     1      -1.799 -15.103   6.957  0.00  0.00    -0.020 C 
ATOM     28  C   UNL     1      -2.089 -13.629   6.621  0.00  0.00    -0.078 C 
ATOM     29  H   UNL     1      -3.820 -13.600   5.509  0.00  0.00    -0.081 HD
ENDBRANCH  23  24
BRANCH  23  30
ATOM     30  C   UNL     1      -3.106 -12.502   3.196  0.00  0.00    +0.093 A 
ATOM     31  C   UNL     1      -2.541 -12.178   2.019  0.00  0.00    +0.043 A 
ATOM     32  C   UNL     1      -3.524 -12.380   1.023  0.00  0.00    +0.041 A 
ATOM     33  C   UNL     1      -4.631 -12.816   1.651  0.00  0.00    +0.195 A 
ATOM     34  O   UNL     1      -4.370 -12.893   2.966  0.00  0.00    -0.469 OA
ENDBRANCH  23  30
ENDBRANCH  22  23
ENDBRANCH   4  22
TORSDOF 6
