REMARK  Name = ZINC13833784
REMARK  2 active torsions:
REMARK  status: ('A' for Active; 'I' for Inactive)
REMARK    1  A    between atoms: C_12  and  C_15
REMARK    2  A    between atoms: N_17  and  C_18
REMARK                            x       y       z     vdW  Elec       q    Type
REMARK                         _______ _______ _______ _____ _____    ______ ____
ROOT
ATOM      1  C   UNL     1      -0.016   1.355   0.009  0.00  0.00    +0.001 A 
ATOM      2  C   UNL     1       1.157   2.098   0.002  0.00  0.00    +0.001 A 
ATOM      3  C   UNL     1       2.374   1.446  -0.013  0.00  0.00    +0.015 A 
ATOM      4  C   UNL     1       2.405   0.067  -0.021  0.00  0.00    +0.020 A 
ATOM      5  C   UNL     1       1.229  -0.710  -0.013  0.00  0.00    -0.007 A 
ATOM      6  C   UNL     1       0.002  -0.004   0.002  0.00  0.00    +0.009 A 
ATOM      7  C   UNL     1       1.432  -2.161  -0.022  0.00  0.00    -0.026 A 
ATOM      8  C   UNL     1       2.707  -2.605  -0.037  0.00  0.00    +0.008 A 
ATOM      9  S   UNL     1       3.705  -1.142  -0.041  0.00  0.00    -0.092 S 
ATOM     10  C   UNL     1       3.154  -4.034  -0.045  0.00  0.00    +0.124 C 
ATOM     11  N   UNL     1       2.003  -4.880   0.321  0.00  0.00    -0.301 NA
ATOM     12  C   UNL     1       0.820  -4.518  -0.472  0.00  0.00    +0.145 C 
ATOM     13  C   UNL     1       0.278  -3.160  -0.018  0.00  0.00    +0.064 C 
ATOM     14  H   UNL     1       2.225  -5.859   0.214  0.00  0.00    +0.123 HD
ENDROOT
BRANCH  12  15
ATOM     15  C   UNL     1      -0.246  -5.566  -0.287  0.00  0.00    +0.231 C 
ATOM     16  O   UNL     1      -0.210  -6.304   0.675  0.00  0.00    -0.274 OA
ATOM     17  N   UNL     1      -1.240  -5.684  -1.190  0.00  0.00    -0.311 N 
ATOM     18  H   UNL     1      -1.269  -5.094  -1.959  0.00  0.00    +0.149 HD
BRANCH  17  19
ATOM     19  C   UNL     1      -2.277  -6.703  -1.009  0.00  0.00    +0.073 C 
ATOM     20  C   UNL     1      -1.746  -8.054  -1.532  0.00  0.00    +0.022 C 
ATOM     21  C   UNL     1      -2.553  -9.159  -0.906  0.00  0.00    +0.002 C 
ATOM     22  C   UNL     1      -3.730  -9.604  -1.794  0.00  0.00    +0.000 C 
ATOM     23  C   UNL     1      -4.463  -8.420  -2.453  0.00  0.00    +0.000 C 
ATOM     24  C   UNL     1      -4.652  -7.263  -1.509  0.00  0.00    +0.002 C 
ATOM     25  C   UNL     1      -3.483  -6.276  -1.702  0.00  0.00    +0.022 C 
ENDBRANCH  17  19
ENDBRANCH  12  15
TORSDOF 2
