REMARK  Name = ZINC40020005
REMARK  19 active torsions:
REMARK  status: ('A' for Active; 'I' for Inactive)
REMARK    1  A    between atoms: C_1  and  C_2
REMARK    2  A    between atoms: C_2  and  C_3
REMARK    3  A    between atoms: C_3  and  C_4
REMARK    4  A    between atoms: C_4  and  N_5
REMARK    5  A    between atoms: N_5  and  C_6
REMARK    6  A    between atoms: N_5  and  C_10
REMARK    7  A    between atoms: C_6  and  C_7
REMARK    8  A    between atoms: C_7  and  C_8
REMARK    9  A    between atoms: C_8  and  C_9
REMARK   10  A    between atoms: C_10  and  C_11
REMARK   11  A    between atoms: C_11  and  C_12
REMARK   12  A    between atoms: C_12  and  N_13
REMARK   13  A    between atoms: C_14  and  C_31
REMARK   14  A    between atoms: C_16  and  C_21
REMARK   15  A    between atoms: C_21  and  C_23
REMARK   16  A    between atoms: C_26  and  C_30
REMARK   17  A    between atoms: C_34  and  N_37
REMARK   18  A    between atoms: N_37  and  C_38
REMARK   19  A    between atoms: N_37  and  C_39
REMARK                            x       y       z     vdW  Elec       q    Type
REMARK                         _______ _______ _______ _____ _____    ______ ____
ROOT
ATOM      1  N   UNL     1       2.340  -6.156  -5.514  0.00  0.00    -0.284 N 
ATOM      2  C   UNL     1       1.746  -6.440  -6.826  0.00  0.00    +0.145 C 
ATOM      3  C   UNL     1       2.844  -7.056  -7.662  0.00  0.00    +0.076 C 
ATOM      4  C   UNL     1       3.947  -7.107  -6.880  0.00  0.00    +0.249 C 
ATOM      5  C   UNL     1       3.628  -6.543  -5.551  0.00  0.00    +0.288 C 
ATOM      6  O   UNL     1       4.413  -6.445  -4.628  0.00  0.00    -0.266 OA
ATOM      7  O   UNL     1       5.152  -7.595  -7.255  0.00  0.00    -0.282 OA
ENDROOT
BRANCH   2   8
ATOM      8  C   UNL     1       0.601  -7.408  -6.677  0.00  0.00    -0.022 A 
ATOM      9  C   UNL     1       0.674  -8.425  -5.743  0.00  0.00    +0.007 A 
ATOM     10  C   UNL     1      -0.374  -9.314  -5.605  0.00  0.00    +0.023 A 
ATOM     11  C   UNL     1      -1.502  -9.186  -6.405  0.00  0.00    +0.029 A 
ATOM     12  C   UNL     1      -1.572  -8.163  -7.342  0.00  0.00    +0.023 A 
ATOM     13  C   UNL     1      -0.523  -7.274  -7.472  0.00  0.00    +0.007 A 
BRANCH  11  14
ATOM     14  N   UNL     1      -2.563 -10.084  -6.268  0.00  0.00    -0.336 N 
ATOM     15  C   UNL     1      -2.545 -11.081  -5.194  0.00  0.00    +0.129 C 
ATOM     16  C   UNL     1      -3.694 -10.028  -7.197  0.00  0.00    +0.129 C 
ENDBRANCH  11  14
ENDBRANCH   2   8
BRANCH   3  17
ATOM     17  C   UNL     1       2.734  -7.510  -9.051  0.00  0.00    +0.195 C 
ATOM     18  O   UNL     1       2.845  -8.692  -9.315  0.00  0.00    -0.287 OA
BRANCH  17  19
ATOM     19  C   UNL     1       2.490  -6.531 -10.132  0.00  0.00    +0.025 A 
ATOM     20  C   UNL     1       2.485  -5.162  -9.851  0.00  0.00    +0.012 A 
ATOM     21  C   UNL     1       2.257  -4.254 -10.863  0.00  0.00    +0.007 A 
ATOM     22  C   UNL     1       2.032  -4.694 -12.155  0.00  0.00    -0.015 A 
ATOM     23  C   UNL     1       2.034  -6.050 -12.442  0.00  0.00    +0.127 A 
ATOM     24  C   UNL     1       2.268  -6.970 -11.438  0.00  0.00    +0.050 A 
ATOM     25  F   UNL     1       1.814  -6.472 -13.706  0.00  0.00    -0.205 F 
ATOM     26  C   UNL     1       1.783  -3.694 -13.255  0.00  0.00    +0.047 C 
ENDBRANCH  17  19
ENDBRANCH   3  17
BRANCH   1  27
ATOM     27  C   UNL     1       1.654  -5.553  -4.369  0.00  0.00    +0.107 C 
BRANCH  27  28
ATOM     28  C   UNL     1       1.796  -4.031  -4.433  0.00  0.00    +0.000 C 
BRANCH  28  29
ATOM     29  C   UNL     1       1.079  -3.401  -3.237  0.00  0.00    -0.077 C 
BRANCH  29  30
ATOM     30  N   UNL     1       1.327  -1.953  -3.225  0.00  0.00    +0.380 N 
ATOM     31  H   UNL     1       2.321  -1.782  -3.232  0.00  0.00    -0.082 HD
BRANCH  30  32
ATOM     32  C   UNL     1       0.717  -1.342  -4.414  0.00  0.00    -0.079 C 
BRANCH  32  33
ATOM     33  C   UNL     1       1.080   0.143  -4.467  0.00  0.00    -0.019 C 
BRANCH  33  35
ATOM     34  C   UNL     1       0.807   2.265  -5.758  0.00  0.00    +0.004 C 
ATOM     35  C   UNL     1       0.445   0.780  -5.705  0.00  0.00    -0.005 C 
ENDBRANCH  33  35
ENDBRANCH  32  33
ENDBRANCH  30  32
BRANCH  30  36
ATOM     36  C   UNL     1       0.737  -1.365  -2.015  0.00  0.00    -0.079 C 
BRANCH  36  37
ATOM     37  C   UNL     1       1.476  -1.887  -0.782  0.00  0.00    -0.019 C 
BRANCH  37  38
ATOM     38  C   UNL     1       0.806  -1.345   0.482  0.00  0.00    -0.005 C 
ATOM     39  C   UNL     1       1.546  -1.867   1.716  0.00  0.00    +0.004 C 
ENDBRANCH  37  38
ENDBRANCH  36  37
ENDBRANCH  30  36
ENDBRANCH  29  30
ENDBRANCH  28  29
ENDBRANCH  27  28
ENDBRANCH   1  27
TORSDOF 14
