REMARK  Name = ZINC09429122
REMARK  10 active torsions:
REMARK  status: ('A' for Active; 'I' for Inactive)
REMARK    1  A    between atoms: C_1  and  C_2
REMARK    2  A    between atoms: C_7  and  S_15
REMARK    3  A    between atoms: C_12  and  C_14
REMARK    4  A    between atoms: S_15  and  N_18
REMARK    5  A    between atoms: N_18  and  C_19
REMARK    6  A    between atoms: C_19  and  C_21
REMARK    7  A    between atoms: C_19  and  C_24
REMARK    8  A    between atoms: C_21  and  C_22
REMARK    9  A    between atoms: C_21  and  C_23
REMARK   10  A    between atoms: N_26  and  C_27
REMARK                            x       y       z     vdW  Elec       q    Type
REMARK                         _______ _______ _______ _____ _____    ______ ____
ROOT
ATOM      1  N   UNL     1      -2.995   4.656  -1.399  0.00  0.00    -0.178 NA
ATOM      2  H   UNL     1      -2.300   5.330  -1.340  0.00  0.00    +0.149 HD
ENDROOT
BRANCH   1   3
ATOM      3  S   UNL     1      -3.960   4.345  -0.089  0.00  0.00    +0.059 S 
ATOM      4  O   UNL     1      -5.298   4.328  -0.566  0.00  0.00    -0.153 OA
ATOM      5  O   UNL     1      -3.531   5.218   0.947  0.00  0.00    -0.153 OA
BRANCH   3  11
ATOM      6  C   UNL     1      -0.184  -1.593   2.164  0.00  0.00    +0.029 C 
ATOM      7  C   UNL     1      -1.406  -0.846   2.701  0.00  0.00    +0.083 C 
ATOM      8  C   UNL     1      -1.169   0.672   2.649  0.00  0.00    +0.059 C 
ATOM      9  C   UNL     1      -2.249   1.195   1.729  0.00  0.00    -0.022 A 
ATOM     10  C   UNL     1      -2.536   2.479   1.307  0.00  0.00    +0.034 A 
ATOM     11  C   UNL     1      -3.596   2.707   0.449  0.00  0.00    +0.106 A 
ATOM     12  C   UNL     1      -4.367   1.646   0.010  0.00  0.00    +0.030 A 
ATOM     13  C   UNL     1      -4.087   0.364   0.433  0.00  0.00    +0.026 A 
ATOM     14  C   UNL     1      -3.018   0.126   1.299  0.00  0.00    +0.040 A 
ATOM     15  N   UNL     1      -2.567  -1.083   1.838  0.00  0.00    -0.268 N 
ATOM     16  C   UNL     1      -3.118  -2.290   1.598  0.00  0.00    +0.217 C 
ATOM     17  O   UNL     1      -4.020  -2.395   0.795  0.00  0.00    -0.276 OA
ATOM     18  C   UNL     1      -2.613  -3.507   2.329  0.00  0.00    +0.109 C 
ENDBRANCH   3  11
ENDBRANCH   1   3
BRANCH   1  19
ATOM     19  C   UNL     1      -3.192   3.914  -2.646  0.00  0.00    +0.165 C 
BRANCH  19  20
ATOM     20  C   UNL     1      -4.001   4.748  -3.605  0.00  0.00    +0.232 C 
ATOM     21  O   UNL     1      -4.377   5.854  -3.279  0.00  0.00    -0.274 OA
ATOM     22  N   UNL     1      -4.308   4.265  -4.826  0.00  0.00    -0.311 N 
ATOM     23  H   UNL     1      -4.007   3.381  -5.087  0.00  0.00    +0.149 HD
BRANCH  22  24
ATOM     24  C   UNL     1      -5.094   5.076  -5.758  0.00  0.00    +0.073 C 
ATOM     25  C   UNL     1      -6.585   4.884  -5.469  0.00  0.00    +0.022 C 
ATOM     26  C   UNL     1      -7.383   5.999  -6.147  0.00  0.00    +0.002 C 
ATOM     27  C   UNL     1      -6.683   7.340  -5.919  0.00  0.00    +0.000 C 
ATOM     28  C   UNL     1      -6.152   7.871  -7.252  0.00  0.00    +0.000 C 
ATOM     29  C   UNL     1      -4.892   7.096  -7.643  0.00  0.00    +0.000 C 
ATOM     30  C   UNL     1      -5.285   5.714  -8.166  0.00  0.00    +0.002 C 
ATOM     31  C   UNL     1      -4.793   4.640  -7.194  0.00  0.00    +0.022 C 
ENDBRANCH  22  24
ENDBRANCH  19  20
BRANCH  19  32
ATOM     32  C   UNL     1      -1.831   3.595  -3.270  0.00  0.00    +0.010 C 
ATOM     33  C   UNL     1      -1.084   4.899  -3.556  0.00  0.00    +0.009 C 
ATOM     34  C   UNL     1      -1.013   2.741  -2.300  0.00  0.00    +0.009 C 
ENDBRANCH  19  32
ENDBRANCH   1  19
TORSDOF 6
