REMARK  Name = ZINC31162208
REMARK  12 active torsions:
REMARK  status: ('A' for Active; 'I' for Inactive)
REMARK    1  A    between atoms: C_1  and  C_2
REMARK    2  A    between atoms: C_2  and  C_3
REMARK    3  A    between atoms: C_2  and  C_4
REMARK    4  A    between atoms: C_4  and  C_5
REMARK    5  A    between atoms: C_5  and  O_7
REMARK    6  A    between atoms: O_7  and  C_8
REMARK    7  A    between atoms: C_22  and  C_24
REMARK    8  A    between atoms: C_24  and  C_25
REMARK    9  A    between atoms: C_24  and  C_26
REMARK   10  A    between atoms: C_24  and  O_27
REMARK   11  A    between atoms: O_27  and  C_28
REMARK   12  A    between atoms: C_28  and  C_30
REMARK                            x       y       z     vdW  Elec       q    Type
REMARK                         _______ _______ _______ _____ _____    ______ ____
ROOT
ATOM      1  C   UNL     1      -0.190   5.421   2.649  0.00  0.00    +0.254 C 
ATOM      2  C   UNL     1      -0.456   6.686   1.855  0.00  0.00    +0.039 A 
ATOM      3  C   UNL     1       0.292   7.806   1.652  0.00  0.00    +0.022 A 
ATOM      4  C   UNL     1      -0.215   8.847   0.867  0.00  0.00    +0.018 A 
ATOM      5  C   UNL     1       0.563  10.063   0.629  0.00  0.00    +0.018 A 
ATOM      6  C   UNL     1       0.012  11.037  -0.141  0.00  0.00    +0.092 A 
ATOM      7  C   UNL     1      -1.277  10.856  -0.684  0.00  0.00    +0.337 A 
ATOM      8  O   UNL     1      -1.760  11.738  -1.371  0.00  0.00    -0.245 OA
ATOM      9  O   UNL     1      -1.985   9.738  -0.463  0.00  0.00    -0.422 OA
ATOM     10  C   UNL     1      -1.495   8.730   0.292  0.00  0.00    +0.143 A 
ATOM     11  C   UNL     1      -2.239   7.582   0.508  0.00  0.00    +0.093 A 
ATOM     12  C   UNL     1      -1.724   6.551   1.288  0.00  0.00    +0.132 A 
ATOM     13  O   UNL     1      -2.281   5.353   1.614  0.00  0.00    -0.480 OA
ATOM     14  C   UNL     1      -1.607   4.811   2.761  0.00  0.00    +0.261 C 
ENDROOT
BRANCH  14  15
ATOM     15  C   UNL     1      -1.547   3.284   2.683  0.00  0.00    +0.148 C 
ATOM     16  C   UNL     1      -2.968   2.718   2.670  0.00  0.00    +0.059 C 
ATOM     17  C   UNL     1      -0.793   2.741   3.899  0.00  0.00    +0.059 C 
BRANCH  15  18
ATOM     18  O   UNL     1      -0.857   2.889   1.469  0.00  0.00    -0.455 OA
BRANCH  18  19
ATOM     19  C   UNL     1      -0.718   1.572   1.248  0.00  0.00    +0.305 C 
ATOM     20  O   UNL     1      -1.159   0.776   2.043  0.00  0.00    -0.251 OA
ATOM     21  C   UNL     1      -0.013   1.086   0.008  0.00  0.00    +0.136 C 
ENDBRANCH  18  19
ENDBRANCH  15  18
ENDBRANCH  14  15
BRANCH   1  22
ATOM     22  O   UNL     1       0.702   4.533   1.925  0.00  0.00    -0.453 OA
BRANCH  22  23
ATOM     23  C   UNL     1       2.003   4.576   2.252  0.00  0.00    +0.308 C 
ATOM     24  O   UNL     1       2.384   5.332   3.115  0.00  0.00    -0.251 OA
BRANCH  23  25
ATOM     25  C   UNL     1       2.988   3.683   1.544  0.00  0.00    +0.123 C 
BRANCH  25  27
ATOM     26  C   UNL     1       5.371   2.936   1.472  0.00  0.00    +0.008 C 
ATOM     27  C   UNL     1       4.392   3.928   2.102  0.00  0.00    -0.007 C 
ATOM     28  C   UNL     1       4.830   5.356   1.770  0.00  0.00    +0.008 C 
ENDBRANCH  25  27
ENDBRANCH  23  25
ENDBRANCH  22  23
ENDBRANCH   1  22
TORSDOF 7
