REMARK  Name = ZINC13552691
REMARK  7 active torsions:
REMARK  status: ('A' for Active; 'I' for Inactive)
REMARK    1  A    between atoms: C_1  and  C_2
REMARK    2  A    between atoms: C_5  and  N_9
REMARK    3  A    between atoms: C_6  and  C_8
REMARK    4  A    between atoms: C_10  and  C_12
REMARK    5  A    between atoms: C_13  and  C_29
REMARK    6  A    between atoms: C_16  and  C_27
REMARK    7  A    between atoms: C_20  and  C_22
REMARK                            x       y       z     vdW  Elec       q    Type
REMARK                         _______ _______ _______ _____ _____    ______ ____
ROOT
ATOM      1  C   UNL     1       0.159  -6.246  -1.004  0.00  0.00    +0.062 C 
ATOM      2  C   UNL     1       0.231  -7.035  -2.117  0.00  0.00    +0.051 C 
ATOM      3  N   UNL     1       0.268  -8.359  -2.033  0.00  0.00    -0.234 NA
ATOM      4  C   UNL     1       0.241  -9.040  -0.906  0.00  0.00    +0.157 C 
ATOM      5  C   UNL     1       0.274 -10.481  -0.618  0.00  0.00    +0.108 C 
ATOM      6  C   UNL     1       0.220 -10.614   0.756  0.00  0.00    +0.110 C 
ATOM      7  N   UNL     1       0.159  -9.387   1.313  0.00  0.00    -0.268 N 
ATOM      8  N   UNL     1       0.171  -8.413   0.315  0.00  0.00    -0.223 N 
ATOM      9  C   UNL     1       0.130  -6.943   0.344  0.00  0.00    +0.169 C 
ATOM     10  C   UNL     1       0.268  -6.385  -3.476  0.00  0.00    +0.066 C 
ATOM     11  H   UNL     1       0.113  -9.208   2.265  0.00  0.00    +0.170 HD
ENDROOT
BRANCH   9  12
ATOM     12  C   UNL     1       1.304  -6.452   1.151  0.00  0.00    +0.016 A 
ATOM     13  C   UNL     1       1.319  -5.593   2.200  0.00  0.00    +0.013 A 
ATOM     14  C   UNL     1       2.527  -5.283   2.794  0.00  0.00    +0.008 A 
ATOM     15  C   UNL     1       3.661  -5.847   2.312  0.00  0.00    +0.045 A 
ATOM     16  S   UNL     1       3.034  -6.857   0.981  0.00  0.00    -0.099 S 
ENDBRANCH   9  12
BRANCH   1  18
ATOM     17  N   UNL     1       1.257  -4.151  -1.315  0.00  0.00    -0.281 N 
ATOM     18  C   UNL     1       0.120  -4.843  -1.104  0.00  0.00    +0.248 C 
ATOM     19  O   UNL     1      -0.942  -4.254  -0.998  0.00  0.00    -0.270 OA
ATOM     20  H   UNL     1       2.085  -4.622  -1.498  0.00  0.00    +0.155 HD
BRANCH  17  25
ATOM     21  C   UNL     1       1.198   1.518  -1.135  0.00  0.00    +0.044 C 
ATOM     22  C   UNL     1       1.214   0.012  -1.183  0.00  0.00    -0.050 A 
ATOM     23  C   UNL     1       0.092  -0.676  -1.610  0.00  0.00    +0.005 A 
ATOM     24  C   UNL     1       0.103  -2.056  -1.655  0.00  0.00    +0.024 A 
ATOM     25  C   UNL     1       1.242  -2.753  -1.272  0.00  0.00    +0.037 A 
ATOM     26  C   UNL     1       2.366  -2.059  -0.844  0.00  0.00    -0.029 A 
ATOM     27  C   UNL     1       2.350  -0.678  -0.806  0.00  0.00    +0.008 A 
ATOM     28  C   UNL     1       3.604  -2.811  -0.427  0.00  0.00    +0.045 C 
ENDBRANCH  17  25
ENDBRANCH   1  18
BRANCH   5  29
ATOM     29  C   UNL     1       0.346 -11.542  -1.577  0.00  0.00    +0.104 C 
ATOM     30  N   UNL     1       0.404 -12.384  -2.337  0.00  0.00    -0.191 NA
ENDBRANCH   5  29
TORSDOF 4
