REMARK  Name = ZINC15605674
REMARK  10 active torsions:
REMARK  status: ('A' for Active; 'I' for Inactive)
REMARK    1  A    between atoms: C_1  and  C_2
REMARK    2  A    between atoms: C_2  and  C_3
REMARK    3  A    between atoms: C_3  and  C_4
REMARK    4  A    between atoms: C_4  and  N_5
REMARK    5  A    between atoms: C_6  and  N_32
REMARK    6  A    between atoms: C_7  and  N_14
REMARK    7  A    between atoms: N_14  and  C_15
REMARK    8  A    between atoms: C_15  and  C_16
REMARK    9  A    between atoms: C_16  and  C_17
REMARK   10  A    between atoms: C_18  and  C_20
REMARK                            x       y       z     vdW  Elec       q    Type
REMARK                         _______ _______ _______ _____ _____    ______ ____
ROOT
ATOM      1  N   UNL     1       2.424   1.242   0.603  0.00  0.00    -0.264 N 
ATOM      2  C   UNL     1       2.555   0.016   0.054  0.00  0.00    +0.227 C 
ATOM      3  O   UNL     1       3.656  -0.410  -0.223  0.00  0.00    -0.275 OA
ENDROOT
BRANCH   2   4
ATOM      4  C   UNL     1       1.333  -0.823  -0.216  0.00  0.00    +0.117 C 
ATOM      5  C   UNL     1       1.653  -2.298   0.039  0.00  0.00    +0.055 C 
ATOM      6  C   UNL     1       0.544  -3.160  -0.508  0.00  0.00    -0.004 A 
ATOM      7  C   UNL     1       0.441  -4.471  -0.071  0.00  0.00    +0.027 A 
ATOM      8  C   UNL     1      -0.560  -5.291  -0.554  0.00  0.00    +0.041 A 
ATOM      9  C   UNL     1      -1.467  -4.803  -1.479  0.00  0.00    +0.023 A 
ATOM     10  C   UNL     1      -1.369  -3.499  -1.917  0.00  0.00    +0.047 A 
ATOM     11  C   UNL     1      -0.363  -2.670  -1.431  0.00  0.00    +0.124 A 
ATOM     12  O   UNL     1      -0.303  -1.390  -1.883  0.00  0.00    -0.491 OA
ATOM     13  C   UNL     1       0.913  -0.668  -1.684  0.00  0.00    +0.242 C 
ATOM     14 CL   UNL     1      -0.682  -6.932  -0.001  0.00  0.00    -0.084 Cl
ENDBRANCH   2   4
BRANCH   1  17
ATOM     15  N   UNL     1      -0.706   3.160   0.751  0.00  0.00    -0.280 N 
ATOM     16  C   UNL     1       0.530   2.730   0.330  0.00  0.00    +0.127 A 
ATOM     17  C   UNL     1       1.153   1.702   1.007  0.00  0.00    +0.140 A 
ATOM     18  C   UNL     1       0.498   1.120   2.109  0.00  0.00    +0.277 A 
ATOM     19  O   UNL     1       1.026   0.210   2.726  0.00  0.00    -0.266 OA
ATOM     20  N   UNL     1      -0.715   1.575   2.478  0.00  0.00    -0.273 N 
ATOM     21  H   UNL     1      -1.181   1.163   3.260  0.00  0.00    +0.173 HD
ATOM     22  C   UNL     1      -1.307   2.578   1.805  0.00  0.00    +0.331 A 
ATOM     23  O   UNL     1      -2.402   2.970   2.159  0.00  0.00    -0.246 OA
BRANCH  16  24
ATOM     24  N   UNL     1       1.141   3.321  -0.751  0.00  0.00    -0.343 N 
ATOM     25  H   UNL     1       2.041   3.060  -1.001  0.00  0.00    +0.144 HD
ATOM     26  H   UNL     1       0.672   3.998  -1.262  0.00  0.00    +0.144 HD
ENDBRANCH  16  24
BRANCH  15  27
ATOM     27  C   UNL     1      -1.376   4.256   0.045  0.00  0.00    +0.128 C 
BRANCH  27  28
ATOM     28  C   UNL     1      -2.241   3.684  -1.080  0.00  0.00    +0.021 C 
BRANCH  28  30
ATOM     29  C   UNL     1      -3.805   4.255  -2.943  0.00  0.00    +0.004 C 
ATOM     30  C   UNL     1      -2.940   4.827  -1.817  0.00  0.00    -0.002 C 
ENDBRANCH  28  30
ENDBRANCH  27  28
ENDBRANCH  15  27
ENDBRANCH   1  17
BRANCH   1  31
ATOM     31  C   UNL     1       3.602   2.095   0.779  0.00  0.00    +0.113 C 
BRANCH  31  32
ATOM     32  C   UNL     1       4.289   1.748   2.102  0.00  0.00    +0.016 C 
ATOM     33  C   UNL     1       5.473   2.692   2.324  0.00  0.00    +0.005 C 
ENDBRANCH  31  32
ENDBRANCH   1  31
TORSDOF 8
