REMARK  Name = ZINC06320977
REMARK  11 active torsions:
REMARK  status: ('A' for Active; 'I' for Inactive)
REMARK    1  A    between atoms: C_1  and  C_2
REMARK    2  A    between atoms: C_6  and  C_15
REMARK    3  A    between atoms: C_13  and  C_14
REMARK    4  A    between atoms: C_15  and  C_17
REMARK    5  A    between atoms: C_15  and  N_76
REMARK    6  A    between atoms: N_21  and  C_22
REMARK    7  A    between atoms: C_27  and  C_28
REMARK    8  A    between atoms: C_27  and  N_76
REMARK    9  A    between atoms: C_28  and  C_29
REMARK   10  A    between atoms: C_35  and  C_36
REMARK   11  A    between atoms: C_35  and  N_76
REMARK                            x       y       z     vdW  Elec       q    Type
REMARK                         _______ _______ _______ _____ _____    ______ ____
ROOT
ATOM      1  C   UNL     1      -5.181   3.402  -0.277  0.00  0.00    +0.039 C 
ENDROOT
BRANCH   1   7
ATOM      2  C   UNL     1       1.938   3.044  -2.471  0.00  0.00    +0.044 C 
ATOM      3  C   UNL     1       0.648   2.370  -2.079  0.00  0.00    -0.047 A 
ATOM      4  C   UNL     1      -0.434   3.129  -1.732  0.00  0.00    +0.013 A 
ATOM      5  C   UNL     1      -1.631   2.504  -1.368  0.00  0.00    -0.001 A 
ATOM      6  C   UNL     1      -2.809   3.287  -0.991  0.00  0.00    +0.017 A 
ATOM      7  C   UNL     1      -3.948   2.626  -0.664  0.00  0.00    +0.011 A 
ATOM      8  C   UNL     1      -3.979   1.215  -0.674  0.00  0.00    +0.251 A 
ATOM      9  O   UNL     1      -5.010   0.642  -0.368  0.00  0.00    -0.268 OA
ATOM     10  N   UNL     1      -2.900   0.488  -1.014  0.00  0.00    -0.322 N 
ATOM     11  H   UNL     1      -2.957  -0.480  -1.011  0.00  0.00    +0.169 HD
ATOM     12  C   UNL     1      -1.716   1.099  -1.367  0.00  0.00    +0.049 A 
ATOM     13  C   UNL     1      -0.600   0.347  -1.720  0.00  0.00    +0.030 A 
ATOM     14  C   UNL     1       0.570   0.985  -2.074  0.00  0.00    -0.046 A 
ATOM     15  C   UNL     1       1.776   0.168  -2.461  0.00  0.00    +0.044 C 
ENDBRANCH   1   7
BRANCH   1  16
ATOM     16  C   UNL     1      -6.254   3.189  -1.313  0.00  0.00    +0.143 A 
ATOM     17  N   UNL     1      -6.982   2.111  -1.476  0.00  0.00    -0.115 NA
ATOM     18  N   UNL     1      -7.786   2.319  -2.461  0.00  0.00    -0.023 NA
ATOM     19  N   UNL     1      -7.585   3.499  -2.936  0.00  0.00    -0.044 NA
ATOM     20  N   UNL     1      -6.647   4.067  -2.255  0.00  0.00    -0.227 N 
BRANCH  20  21
ATOM     21  C   UNL     1      -6.112   5.414  -2.466  0.00  0.00    +0.111 C 
ATOM     22  C   UNL     1      -7.244   6.456  -2.356  0.00  0.00    +0.027 C 
ATOM     23  C   UNL     1      -6.893   7.512  -3.435  0.00  0.00    +0.002 C 
ATOM     24  C   UNL     1      -6.342   6.647  -4.595  0.00  0.00    +0.002 C 
ATOM     25  C   UNL     1      -5.538   5.535  -3.889  0.00  0.00    +0.027 C 
ENDBRANCH  20  21
ENDBRANCH   1  16
BRANCH   1  26
ATOM     26  N   UNL     1      -5.673   2.908   1.027  0.00  0.00    +0.392 N 
ATOM     27  H   UNL     1      -6.041   1.958   0.906  0.00  0.00    -0.080 HD
BRANCH  26  28
ATOM     28  C   UNL     1      -4.564   2.873   2.004  0.00  0.00    -0.072 C 
BRANCH  28  29
ATOM     29  C   UNL     1      -5.005   2.053   3.218  0.00  0.00    +0.016 C 
BRANCH  29  30
ATOM     30  C   UNL     1      -3.878   1.986   4.216  0.00  0.00    -0.049 A 
ATOM     31  C   UNL     1      -2.958   0.956   4.151  0.00  0.00    +0.003 A 
ATOM     32  C   UNL     1      -1.921   0.897   5.063  0.00  0.00    +0.000 A 
ATOM     33  C   UNL     1      -1.809   1.863   6.046  0.00  0.00    +0.000 A 
ATOM     34  C   UNL     1      -2.732   2.890   6.114  0.00  0.00    +0.000 A 
ATOM     35  C   UNL     1      -3.766   2.952   5.199  0.00  0.00    +0.003 A 
ENDBRANCH  29  30
ENDBRANCH  28  29
ENDBRANCH  26  28
BRANCH  26  36
ATOM     36  C   UNL     1      -6.755   3.784   1.522  0.00  0.00    -0.042 C 
BRANCH  36  37
ATOM     37  C   UNL     1      -6.222   5.159   1.835  0.00  0.00    -0.064 A 
ATOM     38  C   UNL     1      -5.821   5.469   3.121  0.00  0.00    +0.002 A 
ATOM     39  C   UNL     1      -5.327   6.728   3.406  0.00  0.00    +0.000 A 
ATOM     40  C   UNL     1      -5.244   7.680   2.407  0.00  0.00    +0.000 A 
ATOM     41  C   UNL     1      -5.650   7.372   1.122  0.00  0.00    +0.000 A 
ATOM     42  C   UNL     1      -6.138   6.111   0.836  0.00  0.00    +0.002 A 
ENDBRANCH  36  37
ENDBRANCH  26  36
ENDBRANCH   1  26
TORSDOF 9
