REMARK  Name = ZINC14038058
REMARK  13 active torsions:
REMARK  status: ('A' for Active; 'I' for Inactive)
REMARK    1  A    between atoms: C_1  and  C_2
REMARK    2  A    between atoms: C_2  and  C_4
REMARK    3  A    between atoms: C_2  and  O_23
REMARK    4  A    between atoms: N_6  and  N_7
REMARK    5  A    between atoms: C_8  and  C_10
REMARK    6  A    between atoms: C_10  and  O_11
REMARK    7  A    between atoms: O_11  and  C_12
REMARK    8  A    between atoms: C_15  and  C_19
REMARK    9  A    between atoms: C_19  and  C_20
REMARK   10  A    between atoms: C_19  and  C_21
REMARK   11  A    between atoms: C_19  and  C_22
REMARK   12  A    between atoms: O_23  and  C_24
REMARK   13  A    between atoms: C_27  and  N_30
REMARK                            x       y       z     vdW  Elec       q    Type
REMARK                         _______ _______ _______ _____ _____    ______ ____
ROOT
ATOM      1  N   UNL     1       1.411   5.568  -1.720  0.00  0.00    -0.231 N 
ATOM      2  C   UNL     1       2.374   6.422  -2.120  0.00  0.00    +0.267 C 
ATOM      3  O   UNL     1       3.541   6.107  -2.026  0.00  0.00    -0.271 OA
ATOM      4  H   UNL     1       0.477   5.820  -1.795  0.00  0.00    +0.173 HD
ENDROOT
BRANCH   1   7
ATOM      5  C   UNL     1       0.795   3.463  -0.795  0.00  0.00    +0.270 C 
ATOM      6  O   UNL     1      -0.372   3.778  -0.889  0.00  0.00    -0.270 OA
ATOM      7  N   UNL     1       1.758   4.316  -1.195  0.00  0.00    -0.231 N 
ATOM      8  H   UNL     1       2.692   4.064  -1.120  0.00  0.00    +0.173 HD
BRANCH   5  10
ATOM      9  C   UNL     1       1.928   2.307   1.084  0.00  0.00    +0.062 C 
ATOM     10  C   UNL     1       1.169   2.116  -0.231  0.00  0.00    +0.257 C 
BRANCH  10  11
ATOM     11  O   UNL     1      -0.016   1.355   0.009  0.00  0.00    -0.480 OA
BRANCH  11  12
ATOM     12  C   UNL     1       0.110   0.002   0.015  0.00  0.00    +0.122 A 
ATOM     13  C   UNL     1       1.365  -0.580  -0.099  0.00  0.00    +0.048 A 
ATOM     14  C   UNL     1       1.491  -1.955  -0.089  0.00  0.00    +0.036 A 
ATOM     15  C   UNL     1       0.367  -2.753   0.024  0.00  0.00    +0.126 A 
ATOM     16  C   UNL     1      -0.885  -2.176   0.132  0.00  0.00    +0.036 A 
ATOM     17  C   UNL     1      -1.016  -0.801   0.128  0.00  0.00    +0.048 A 
BRANCH  15  18
ATOM     18  N   UNL     1       0.505  -4.226   0.030  0.00  0.00    +0.056 N 
ATOM     19  O   UNL     1      -0.484  -4.930   0.130  0.00  0.00    -0.126 OA
ATOM     20  O   UNL     1       1.607  -4.736  -0.065  0.00  0.00    -0.126 OA
ENDBRANCH  15  18
ENDBRANCH  11  12
ENDBRANCH  10  11
ENDBRANCH   5  10
ENDBRANCH   1   7
BRANCH   2  21
ATOM     21  C   UNL     1       2.000   7.768  -2.684  0.00  0.00    +0.326 C 
BRANCH  21  22
ATOM     22  O   UNL     1       3.187   8.485  -3.033  0.00  0.00    -0.482 OA
BRANCH  22  23
ATOM     23  C   UNL     1       3.025   9.727  -3.560  0.00  0.00    +0.135 A 
ATOM     24  C   UNL     1       1.751  10.246  -3.738  0.00  0.00    +0.047 A 
ATOM     25  C   UNL     1       1.589  11.509  -4.274  0.00  0.00    +0.008 A 
ATOM     26  C   UNL     1       2.696  12.257  -4.632  0.00  0.00    -0.041 A 
ATOM     27  C   UNL     1       3.967  11.742  -4.456  0.00  0.00    +0.023 A 
ATOM     28  C   UNL     1       4.135  10.481  -3.916  0.00  0.00    +0.060 A 
ATOM     29 BR   UNL     1       5.874   9.780  -3.669  0.00  0.00    -0.047 Br
BRANCH  26  30
ATOM     30  C   UNL     1       2.516  13.634  -5.215  0.00  0.00    -0.013 C 
ATOM     31  C   UNL     1       1.779  14.522  -4.210  0.00  0.00    +0.015 C 
ATOM     32  C   UNL     1       3.886  14.241  -5.523  0.00  0.00    +0.015 C 
ATOM     33  C   UNL     1       1.699  13.539  -6.506  0.00  0.00    +0.015 C 
ENDBRANCH  26  30
ENDBRANCH  22  23
ENDBRANCH  21  22
ENDBRANCH   2  21
TORSDOF 9
