REMARK  Name = ZINC64870920
REMARK  7 active torsions:
REMARK  status: ('A' for Active; 'I' for Inactive)
REMARK    1  A    between atoms: C_1  and  C_2
REMARK    2  A    between atoms: C_2  and  C_3
REMARK    3  A    between atoms: C_6  and  C_9
REMARK    4  A    between atoms: C_12  and  C_16
REMARK    5  A    between atoms: N_26  and  C_29
REMARK    6  A    between atoms: C_29  and  C_30
REMARK    7  A    between atoms: C_33  and  C_36
REMARK                            x       y       z     vdW  Elec       q    Type
REMARK                         _______ _______ _______ _____ _____    ______ ____
ROOT
ATOM      1  C   UNL     1       2.826  -0.118   7.874  0.00  0.00    -0.000 A 
ATOM      2  C   UNL     1       1.927   0.881   7.533  0.00  0.00    +0.008 A 
ATOM      3  C   UNL     1       1.528   1.810   8.470  0.00  0.00    +0.016 A 
ATOM      4  C   UNL     1       2.034   1.739   9.766  0.00  0.00    +0.063 A 
ATOM      5  C   UNL     1       2.946   0.726  10.110  0.00  0.00    +0.056 A 
ATOM      6  C   UNL     1       3.331  -0.203   9.156  0.00  0.00    +0.034 A 
ATOM      7  N   UNL     1       3.433   0.679  11.408  0.00  0.00    -0.307 N 
ATOM      8  H   UNL     1       4.063  -0.014  11.660  0.00  0.00    +0.170 HD
ATOM      9  C   UNL     1       3.042   1.587  12.320  0.00  0.00    +0.330 A 
ATOM     10  O   UNL     1       3.493   1.511  13.446  0.00  0.00    -0.246 OA
ATOM     11  N   UNL     1       2.175   2.572  12.040  0.00  0.00    -0.256 N 
ATOM     12  C   UNL     1       1.641   2.706  10.806  0.00  0.00    +0.265 A 
ATOM     13  O   UNL     1       0.856   3.601  10.560  0.00  0.00    -0.267 OA
ENDROOT
BRANCH   1  16
ATOM     14  C   UNL     1       3.231  -3.402   6.301  0.00  0.00    +0.180 C 
ATOM     15  N   UNL     1       3.399  -2.474   7.444  0.00  0.00    -0.265 NA
ATOM     16  C   UNL     1       3.251  -1.125   6.836  0.00  0.00    +0.242 C 
ATOM     17  O   UNL     1       2.211  -1.317   5.851  0.00  0.00    -0.274 OA
ATOM     18  N   UNL     1       2.473  -2.652   5.278  0.00  0.00    -0.177 NA
ATOM     19  H   UNL     1       2.692  -2.633   8.146  0.00  0.00    +0.127 HD
ATOM     20  H   UNL     1       2.996  -2.581   4.419  0.00  0.00    +0.156 HD
BRANCH  14  24
ATOM     21  C   UNL     1       1.040  -6.861   7.520  0.00  0.00    -0.048 A 
ATOM     22  C   UNL     1       0.935  -6.398   6.222  0.00  0.00    +0.004 A 
ATOM     23  C   UNL     1       1.644  -5.279   5.827  0.00  0.00    +0.007 A 
ATOM     24  C   UNL     1       2.458  -4.622   6.731  0.00  0.00    -0.014 A 
ATOM     25  C   UNL     1       2.562  -5.084   8.030  0.00  0.00    +0.007 A 
ATOM     26  C   UNL     1       1.849  -6.201   8.426  0.00  0.00    +0.004 A 
BRANCH  21  28
ATOM     27  C   UNL     1      -1.105  -7.656   8.477  0.00  0.00    +0.009 C 
ATOM     28  C   UNL     1       0.267  -8.081   7.950  0.00  0.00    +0.032 C 
ENDBRANCH  21  28
ENDBRANCH  14  24
ENDBRANCH   1  16
BRANCH  11  29
ATOM     29  C   UNL     1       1.800   3.520  13.092  0.00  0.00    +0.165 C 
BRANCH  29  30
ATOM     30  C   UNL     1       2.752   4.689  13.077  0.00  0.00    -0.027 A 
ATOM     31  C   UNL     1       3.906   4.650  13.836  0.00  0.00    +0.005 A 
ATOM     32  C   UNL     1       4.779   5.722  13.822  0.00  0.00    +0.004 A 
ATOM     33  C   UNL     1       4.497   6.832  13.049  0.00  0.00    -0.050 A 
ATOM     34  C   UNL     1       3.343   6.871  12.289  0.00  0.00    +0.004 A 
ATOM     35  C   UNL     1       2.473   5.797  12.299  0.00  0.00    +0.005 A 
ATOM     36  C   UNL     1       5.448   8.001  13.035  0.00  0.00    +0.044 C 
ENDBRANCH  29  30
ENDBRANCH  11  29
TORSDOF 5
