REMARK  Name = ZINC22920970
REMARK  10 active torsions:
REMARK  status: ('A' for Active; 'I' for Inactive)
REMARK    1  A    between atoms: C_1  and  C_2
REMARK    2  A    between atoms: C_2  and  N_3
REMARK    3  A    between atoms: N_6  and  C_9
REMARK    4  A    between atoms: C_9  and  C_11
REMARK    5  A    between atoms: C_9  and  C_26
REMARK    6  A    between atoms: C_12  and  C_25
REMARK    7  A    between atoms: C_13  and  C_24
REMARK    8  A    between atoms: C_15  and  N_16
REMARK    9  A    between atoms: C_17  and  C_19
REMARK   10  A    between atoms: C_27  and  C_31
REMARK                            x       y       z     vdW  Elec       q    Type
REMARK                         _______ _______ _______ _____ _____    ______ ____
ROOT
ATOM      1  C   UNL     1      -4.853  -2.639  -1.111  0.00  0.00    +0.127 C 
ENDROOT
BRANCH   1   5
ATOM      2  N   UNL     1      -1.376  -0.512   0.012  0.00  0.00    +0.381 N 
ATOM      3  C   UNL     1      -2.050  -0.124  -1.234  0.00  0.00    -0.063 C 
ATOM      4  C   UNL     1      -3.492  -0.638  -1.215  0.00  0.00    +0.067 C 
ATOM      5  N   UNL     1      -3.486  -2.101  -1.076  0.00  0.00    -0.295 NA
ATOM      6  C   UNL     1      -2.792  -2.506   0.155  0.00  0.00    +0.067 C 
ATOM      7  C   UNL     1      -1.357  -1.977   0.125  0.00  0.00    -0.063 C 
ATOM      8  H   UNL     1      -1.873  -0.121   0.799  0.00  0.00    -0.082 HD
BRANCH   2  10
ATOM      9  C   UNL     1      -0.019   1.526   0.010  0.00  0.00    -0.017 C 
ATOM     10  C   UNL     1       0.002  -0.004   0.002  0.00  0.00    -0.082 C 
ENDBRANCH   2  10
ENDBRANCH   1   5
BRANCH   1  11
ATOM     11  C   UNL     1      -4.807  -4.138  -0.966  0.00  0.00    +0.006 A 
ATOM     12  C   UNL     1      -5.681  -4.790  -0.116  0.00  0.00    -0.034 A 
ATOM     13  C   UNL     1      -5.613  -6.139  -0.010  0.00  0.00    -0.008 A 
ATOM     14  S   UNL     1      -4.282  -6.535  -1.132  0.00  0.00    -0.078 S 
ATOM     15  C   UNL     1      -3.907  -4.876  -1.675  0.00  0.00    +0.078 A 
ATOM     16  C   UNL     1      -6.445  -7.066   0.838  0.00  0.00    +0.052 C 
ATOM     17  C   UNL     1      -6.695  -4.011   0.681  0.00  0.00    +0.045 C 
BRANCH  15  18
ATOM     18  N   UNL     1      -2.940  -4.446  -2.586  0.00  0.00    -0.273 N 
ATOM     19  C   UNL     1      -2.136  -5.344  -3.189  0.00  0.00    +0.284 C 
ATOM     20  O   UNL     1      -2.253  -6.530  -2.939  0.00  0.00    -0.266 OA
ATOM     21  H   UNL     1      -2.847  -3.502  -2.785  0.00  0.00    +0.156 HD
BRANCH  19  22
ATOM     22  C   UNL     1      -1.122  -4.893  -4.147  0.00  0.00    +0.189 A 
ATOM     23  C   UNL     1      -0.250  -5.693  -4.829  0.00  0.00    +0.054 A 
ATOM     24  C   UNL     1       0.534  -4.847  -5.628  0.00  0.00    +0.042 A 
ATOM     25  C   UNL     1       0.112  -3.583  -5.402  0.00  0.00    +0.196 A 
ATOM     26  O   UNL     1      -0.889  -3.616  -4.512  0.00  0.00    -0.458 OA
ENDBRANCH  19  22
ENDBRANCH  15  18
ENDBRANCH   1  11
BRANCH   1  27
ATOM     27  C   UNL     1      -5.500  -2.280  -2.424  0.00  0.00    +0.014 A 
ATOM     28  C   UNL     1      -6.742  -1.792  -2.658  0.00  0.00    -0.038 A 
ATOM     29  C   UNL     1      -7.126  -1.533  -3.961  0.00  0.00    +0.011 A 
ATOM     30  C   UNL     1      -6.249  -1.775  -4.965  0.00  0.00    +0.046 A 
ATOM     31  S   UNL     1      -4.826  -2.382  -4.074  0.00  0.00    -0.099 S 
ATOM     32  C   UNL     1      -7.691  -1.535  -1.516  0.00  0.00    +0.044 C 
ENDBRANCH   1  27
TORSDOF 6
