REMARK  Name = ZINC07907557
REMARK  11 active torsions:
REMARK  status: ('A' for Active; 'I' for Inactive)
REMARK    1  A    between atoms: C_1  and  C_2
REMARK    2  A    between atoms: C_2  and  N_50
REMARK    3  A    between atoms: C_3  and  C_4
REMARK    4  A    between atoms: C_3  and  N_50
REMARK    5  A    between atoms: N_6  and  C_7
REMARK    6  A    between atoms: C_12  and  C_13
REMARK    7  A    between atoms: C_17  and  C_18
REMARK    8  A    between atoms: C_17  and  N_50
REMARK    9  A    between atoms: N_23  and  C_24
REMARK   10  A    between atoms: C_24  and  C_25
REMARK   11  A    between atoms: C_24  and  C_26
REMARK                            x       y       z     vdW  Elec       q    Type
REMARK                         _______ _______ _______ _____ _____    ______ ____
ROOT
ATOM      1  N   UNL     1       1.566   1.115   0.431  0.00  0.00    +0.391 N 
ATOM      2  H   UNL     1       1.120   0.425  -0.185  0.00  0.00    -0.080 HD
ENDROOT
BRANCH   1   4
ATOM      3  C   UNL     1      -0.101   0.243   1.992  0.00  0.00    -0.017 C 
ATOM      4  C   UNL     1       1.345   0.716   1.837  0.00  0.00    -0.081 C 
ENDBRANCH   1   4
BRANCH   1   5
ATOM      5  C   UNL     1       0.964   2.441   0.181  0.00  0.00    +0.020 C 
BRANCH   5   6
ATOM      6  C   UNL     1       0.749   2.602  -1.302  0.00  0.00    +0.201 C 
ATOM      7  O   UNL     1       0.977   1.676  -2.051  0.00  0.00    -0.278 OA
ATOM      8  N   UNL     1       0.309   3.777  -1.796  0.00  0.00    -0.287 N 
ATOM      9  H   UNL     1       0.203   4.541  -1.207  0.00  0.00    +0.155 HD
BRANCH   8  10
ATOM     10  C   UNL     1       0.006   3.894  -3.156  0.00  0.00    +0.045 A 
ATOM     11  C   UNL     1      -0.254   2.758  -3.912  0.00  0.00    +0.024 A 
ATOM     12  C   UNL     1      -0.557   2.877  -5.254  0.00  0.00    +0.002 A 
ATOM     13  C   UNL     1      -0.591   4.126  -5.848  0.00  0.00    +0.001 A 
ATOM     14  C   UNL     1      -0.328   5.258  -5.100  0.00  0.00    +0.014 A 
ATOM     15  C   UNL     1      -0.029   5.146  -3.756  0.00  0.00    +0.076 A 
BRANCH  15  16
ATOM     16  C   UNL     1       0.259   6.381  -2.941  0.00  0.00    +0.419 C 
ATOM     17  F   UNL     1       0.163   7.512  -3.759  0.00  0.00    -0.166 F 
ATOM     18  F   UNL     1      -0.670   6.479  -1.899  0.00  0.00    -0.166 F 
ATOM     19  F   UNL     1       1.550   6.298  -2.409  0.00  0.00    -0.166 F 
ENDBRANCH  15  16
ENDBRANCH   8  10
ENDBRANCH   5   6
ENDBRANCH   1   5
BRANCH   1  20
ATOM     20  C   UNL     1       3.014   1.154   0.138  0.00  0.00    +0.020 C 
BRANCH  20  21
ATOM     21  C   UNL     1       3.558  -0.251   0.186  0.00  0.00    +0.204 C 
ATOM     22  O   UNL     1       2.822  -1.177   0.452  0.00  0.00    -0.277 OA
ATOM     23  N   UNL     1       4.862  -0.477  -0.067  0.00  0.00    -0.242 N 
ATOM     24  C   UNL     1       5.349  -1.733  -0.024  0.00  0.00    +0.306 C 
ATOM     25  O   UNL     1       4.611  -2.662   0.243  0.00  0.00    -0.252 OA
ATOM     26  N   UNL     1       6.653  -1.960  -0.277  0.00  0.00    -0.297 N 
ATOM     27  H   UNL     1       5.451   0.264  -0.280  0.00  0.00    +0.159 HD
ATOM     28  H   UNL     1       7.242  -1.219  -0.490  0.00  0.00    +0.151 HD
BRANCH  26  29
ATOM     29  C   UNL     1       7.182  -3.325  -0.230  0.00  0.00    +0.068 C 
ATOM     30  C   UNL     1       6.952  -4.008  -1.580  0.00  0.00    +0.027 C 
ATOM     31  C   UNL     1       8.681  -3.281   0.071  0.00  0.00    +0.027 C 
ENDBRANCH  26  29
ENDBRANCH  20  21
ENDBRANCH   1  20
TORSDOF 8
