REMARK  Name = ZINC39677606
REMARK  9 active torsions:
REMARK  status: ('A' for Active; 'I' for Inactive)
REMARK    1  A    between atoms: C_1  and  C_2
REMARK    2  A    between atoms: C_2  and  C_3
REMARK    3  A    between atoms: C_3  and  C_4
REMARK    4  A    between atoms: C_4  and  C_6
REMARK    5  A    between atoms: C_4  and  C_7
REMARK    6  A    between atoms: C_11  and  C_20
REMARK    7  A    between atoms: N_22  and  C_23
REMARK    8  A    between atoms: C_23  and  C_24
REMARK    9  A    between atoms: C_27  and  C_29
REMARK                            x       y       z     vdW  Elec       q    Type
REMARK                         _______ _______ _______ _____ _____    ______ ____
ROOT
ATOM      1  C   UNL     1       1.778  -2.439  -2.209  0.00  0.00    +0.218 C 
ATOM      2  O   UNL     1       2.458  -1.707  -2.896  0.00  0.00    -0.275 OA
ATOM      3  N   UNL     1       1.728  -3.759  -2.475  0.00  0.00    -0.300 N 
ATOM      4  C   UNL     1       0.876  -4.785  -1.828  0.00  0.00    +0.121 C 
ATOM      5  C   UNL     1       0.438  -5.713  -2.983  0.00  0.00    +0.100 C 
ATOM      6  C   UNL     1       1.518  -5.532  -4.063  0.00  0.00    -0.004 C 
ATOM      7  C   UNL     1       2.510  -4.513  -3.485  0.00  0.00    +0.115 C 
ATOM      8  C   UNL     1       2.220  -6.859  -4.336  0.00  0.00    -0.010 C 
ATOM      9  C   UNL     1       3.248  -6.666  -5.454  0.00  0.00    -0.082 C 
ATOM     10  N   UNL     1       2.573  -6.189  -6.666  0.00  0.00    +0.379 N 
ATOM     11  C   UNL     1       1.979  -4.869  -6.422  0.00  0.00    -0.082 C 
ATOM     12  C   UNL     1       0.896  -4.986  -5.345  0.00  0.00    -0.010 C 
ATOM     13  H   UNL     1       3.242  -6.121  -7.418  0.00  0.00    -0.086 HD
ATOM     14  H   UNL     1       1.847  -6.841  -6.923  0.00  0.00    -0.086 HD
ENDROOT
BRANCH   5  15
ATOM     15  C   UNL     1      -0.910  -5.293  -3.510  0.00  0.00    +0.218 C 
ATOM     16  O   UNL     1      -1.278  -4.144  -3.389  0.00  0.00    -0.275 OA
ATOM     17  N   UNL     1      -1.708  -6.196  -4.116  0.00  0.00    -0.310 N 
ATOM     18  H   UNL     1      -1.413  -7.115  -4.213  0.00  0.00    +0.149 HD
BRANCH  17  19
ATOM     19  C   UNL     1      -3.018  -5.788  -4.628  0.00  0.00    +0.146 C 
BRANCH  19  20
ATOM     20  C   UNL     1      -3.704  -6.975  -5.255  0.00  0.00    +0.007 A 
ATOM     21  C   UNL     1      -4.535  -7.883  -4.679  0.00  0.00    +0.013 A 
ATOM     22  C   UNL     1      -5.054  -8.899  -5.449  0.00  0.00    +0.018 A 
ATOM     23  C   UNL     1      -4.714  -8.961  -6.774  0.00  0.00    +0.038 A 
ATOM     24  S   UNL     1      -3.639  -7.546  -6.945  0.00  0.00    -0.090 S 
BRANCH  23  25
ATOM     25  C   UNL     1      -5.132  -9.941  -7.798  0.00  0.00    +0.078 A 
ATOM     26  C   UNL     1      -4.657  -9.822  -9.105  0.00  0.00    +0.029 A 
ATOM     27  C   UNL     1      -5.058 -10.747 -10.052  0.00  0.00    +0.004 A 
ATOM     28  C   UNL     1      -5.921 -11.763  -9.662  0.00  0.00    +0.020 A 
ATOM     29  C   UNL     1      -6.353 -11.822  -8.351  0.00  0.00    +0.111 A 
ATOM     30  N   UNL     1      -5.953 -10.931  -7.466  0.00  0.00    -0.254 NA
ENDBRANCH  23  25
ENDBRANCH  19  20
ENDBRANCH  17  19
ENDBRANCH   5  15
BRANCH   1  31
ATOM     31  C   UNL     1       0.988  -1.872  -1.057  0.00  0.00    +0.072 C 
ATOM     32  C   UNL     1       0.494  -0.470  -1.419  0.00  0.00    +0.017 C 
BRANCH  31  33
ATOM     33  C   UNL     1       1.880  -1.795   0.184  0.00  0.00    +0.012 C 
BRANCH  33  35
ATOM     34  C   UNL     1       1.938  -1.260   2.624  0.00  0.00    +0.004 C 
ATOM     35  C   UNL     1       1.047  -1.338   1.383  0.00  0.00    -0.003 C 
ENDBRANCH  33  35
ENDBRANCH  31  33
ENDBRANCH   1  31
TORSDOF 7
