REMARK  Name = ZINC21964974
REMARK  17 active torsions:
REMARK  status: ('A' for Active; 'I' for Inactive)
REMARK    1  A    between atoms: C_1  and  C_2
REMARK    2  A    between atoms: C_2  and  C_3
REMARK    3  A    between atoms: C_7  and  C_34
REMARK    4  A    between atoms: C_8  and  N_9
REMARK    5  A    between atoms: C_10  and  C_12
REMARK    6  A    between atoms: C_12  and  S_13
REMARK    7  A    between atoms: S_13  and  C_14
REMARK    8  A    between atoms: N_24  and  C_25
REMARK    9  A    between atoms: C_25  and  C_26
REMARK   10  A    between atoms: C_26  and  N_27
REMARK   11  A    between atoms: N_27  and  C_28
REMARK   12  A    between atoms: N_27  and  C_31
REMARK   13  A    between atoms: C_28  and  C_29
REMARK   14  A    between atoms: C_28  and  C_30
REMARK   15  A    between atoms: C_31  and  C_32
REMARK   16  A    between atoms: C_31  and  C_33
REMARK   17  A    between atoms: C_34  and  C_35
REMARK                            x       y       z     vdW  Elec       q    Type
REMARK                         _______ _______ _______ _____ _____    ______ ____
ROOT
ATOM      1  C   UNL     1       0.026   1.789   6.096  0.00  0.00    +0.173 A 
ATOM      2  N   UNL     1       0.656   2.815   5.578  0.00  0.00    -0.223 NA
ATOM      3  C   UNL     1       0.905   3.928   6.297  0.00  0.00    +0.079 A 
ATOM      4  C   UNL     1       1.577   5.022   5.745  0.00  0.00    +0.028 A 
ATOM      5  C   UNL     1       1.809   6.130   6.510  0.00  0.00    +0.002 A 
ATOM      6  C   UNL     1       1.386   6.187   7.831  0.00  0.00    +0.001 A 
ATOM      7  C   UNL     1       0.726   5.133   8.400  0.00  0.00    +0.015 A 
ATOM      8  C   UNL     1       0.476   3.990   7.643  0.00  0.00    +0.065 A 
ATOM      9  C   UNL     1      -0.227   2.827   8.201  0.00  0.00    +0.262 A 
ATOM     10  O   UNL     1      -0.621   2.820   9.352  0.00  0.00    -0.267 OA
ATOM     11  N   UNL     1      -0.427   1.766   7.384  0.00  0.00    -0.289 N 
ENDROOT
BRANCH   1  12
ATOM     12  S   UNL     1      -0.255   0.376   5.081  0.00  0.00    -0.078 S 
BRANCH  12  13
ATOM     13  C   UNL     1       0.515   0.937   3.542  0.00  0.00    +0.173 C 
BRANCH  13  15
ATOM     14  N   UNL     1       0.897   0.054   1.263  0.00  0.00    -0.284 N 
ATOM     15  C   UNL     1       0.392  -0.142   2.497  0.00  0.00    +0.228 C 
ATOM     16  O   UNL     1      -0.162  -1.187   2.767  0.00  0.00    -0.275 OA
ATOM     17  H   UNL     1       1.475   0.964   1.044  0.00  0.00    +0.155 HD
BRANCH  14  23
ATOM     18  C   UNL     1       0.012  -0.549  -0.902  0.00  0.00    -0.026 A 
ATOM     19  C   UNL     1      -0.200  -1.494  -1.887  0.00  0.00    +0.005 A 
ATOM     20  C   UNL     1       0.267  -2.784  -1.720  0.00  0.00    +0.001 A 
ATOM     21  C   UNL     1       0.938  -3.136  -0.564  0.00  0.00    +0.005 A 
ATOM     22  C   UNL     1       1.149  -2.198   0.427  0.00  0.00    -0.026 A 
ATOM     23  C   UNL     1       0.686  -0.899   0.261  0.00  0.00    +0.040 A 
BRANCH  18  25
ATOM     24  C   UNL     1       0.630   1.734  -1.648  0.00  0.00    +0.009 C 
ATOM     25  C   UNL     1      -0.492   0.859  -1.086  0.00  0.00    +0.033 C 
ENDBRANCH  18  25
BRANCH  22  26
ATOM     26  C   UNL     1       1.880  -2.582   1.687  0.00  0.00    +0.033 C 
ATOM     27  C   UNL     1       1.010  -3.533   2.512  0.00  0.00    +0.009 C 
ENDBRANCH  22  26
ENDBRANCH  14  23
ENDBRANCH  13  15
ENDBRANCH  12  13
ENDBRANCH   1  12
BRANCH  11  28
ATOM     28  C   UNL     1      -1.128   0.582   7.888  0.00  0.00    +0.109 C 
BRANCH  28  29
ATOM     29  C   UNL     1      -0.115  -0.391   8.495  0.00  0.00    -0.056 C 
BRANCH  29  30
ATOM     30  N   UNL     1      -0.818  -1.577   9.000  0.00  0.00    +0.384 N 
ATOM     31  H   UNL     1      -1.453  -1.965   8.189  0.00  0.00    -0.081 HD
BRANCH  30  32
ATOM     32  C   UNL     1       0.132  -2.633   9.373  0.00  0.00    -0.074 C 
ATOM     33  C   UNL     1       0.494  -3.456   8.135  0.00  0.00    -0.014 C 
ATOM     34  C   UNL     1       1.399  -1.998   9.951  0.00  0.00    -0.014 C 
ENDBRANCH  30  32
BRANCH  30  35
ATOM     35  C   UNL     1      -1.692  -1.231  10.129  0.00  0.00    -0.074 C 
ATOM     36  C   UNL     1      -2.619  -2.409  10.437  0.00  0.00    -0.014 C 
ATOM     37  C   UNL     1      -0.836  -0.922  11.359  0.00  0.00    -0.014 C 
ENDBRANCH  30  35
ENDBRANCH  29  30
ENDBRANCH  28  29
ENDBRANCH  11  28
TORSDOF 11
