REMARK  Name = ZINC09620271
REMARK  11 active torsions:
REMARK  status: ('A' for Active; 'I' for Inactive)
REMARK    1  A    between atoms: C_1  and  C_2
REMARK    2  A    between atoms: C_2  and  N_3
REMARK    3  A    between atoms: C_4  and  C_29
REMARK    4  A    between atoms: C_7  and  S_8
REMARK    5  A    between atoms: S_8  and  C_9
REMARK    6  A    between atoms: C_9  and  C_10
REMARK    7  A    between atoms: C_10  and  O_12
REMARK    8  A    between atoms: O_12  and  C_13
REMARK    9  A    between atoms: C_13  and  C_14
REMARK   10  A    between atoms: N_19  and  C_20
REMARK   11  A    between atoms: C_26  and  C_28
REMARK                            x       y       z     vdW  Elec       q    Type
REMARK                         _______ _______ _______ _____ _____    ______ ____
ROOT
ATOM      1  O   UNL     1       3.358  11.970   0.036  0.00  0.00    -0.455 OA
ENDROOT
BRANCH   1   2
ATOM      2  C   UNL     1       3.734  10.697   0.235  0.00  0.00    +0.318 C 
ATOM      3  O   UNL     1       4.877  10.445   0.534  0.00  0.00    -0.250 OA
BRANCH   2   4
ATOM      4  C   UNL     1       2.731   9.583   0.085  0.00  0.00    +0.197 C 
BRANCH   4   5
ATOM      5  S   UNL     1       3.538   7.997   0.415  0.00  0.00    -0.075 S 
BRANCH   5  10
ATOM      6  N   UNL     1       2.197   5.543   0.297  0.00  0.00    -0.302 N 
ATOM      7  C   UNL     1       0.914   5.126   0.019  0.00  0.00    +0.171 A 
ATOM      8  N   UNL     1       0.209   6.203  -0.249  0.00  0.00    -0.128 NA
ATOM      9  N   UNL     1       0.950   7.248  -0.151  0.00  0.00    -0.122 NA
ATOM     10  C   UNL     1       2.175   6.905   0.176  0.00  0.00    +0.192 A 
BRANCH   7  11
ATOM     11  C   UNL     1       0.426   3.737   0.017  0.00  0.00    +0.056 A 
ATOM     12  C   UNL     1      -0.866   3.275   0.026  0.00  0.00    +0.019 A 
ATOM     13  C   UNL     1      -1.081   1.915   0.017  0.00  0.00    +0.008 A 
ATOM     14  C   UNL     1      -0.013   1.076   0.008  0.00  0.00    +0.046 A 
ATOM     15  S   UNL     1       1.361   2.216   0.001  0.00  0.00    -0.094 S 
ENDBRANCH   7  11
BRANCH   6  17
ATOM     16  C   UNL     1       4.085   4.292  -0.626  0.00  0.00    +0.027 C 
ATOM     17  C   UNL     1       3.344   4.703   0.648  0.00  0.00    +0.122 C 
ENDBRANCH   6  17
ENDBRANCH   5  10
ENDBRANCH   4   5
ENDBRANCH   2   4
ENDBRANCH   1   2
BRANCH   1  18
ATOM     18  C   UNL     1       4.377  12.992   0.197  0.00  0.00    +0.328 C 
BRANCH  18  19
ATOM     19  C   UNL     1       3.774  14.348  -0.064  0.00  0.00    +0.258 C 
ATOM     20  O   UNL     1       2.602  14.444  -0.357  0.00  0.00    -0.272 OA
ATOM     21  N   UNL     1       4.539  15.454   0.028  0.00  0.00    -0.237 N 
ATOM     22  C   UNL     1       4.000  16.667  -0.205  0.00  0.00    +0.306 C 
ATOM     23  O   UNL     1       2.825  16.764  -0.499  0.00  0.00    -0.252 OA
ATOM     24  N   UNL     1       4.764  17.774  -0.113  0.00  0.00    -0.296 N 
ATOM     25  H   UNL     1       5.477  15.377   0.263  0.00  0.00    +0.159 HD
ATOM     26  H   UNL     1       5.703  17.697   0.121  0.00  0.00    +0.151 HD
BRANCH  24  27
ATOM     27  C   UNL     1       4.179  19.092  -0.367  0.00  0.00    +0.077 C 
ATOM     28  C   UNL     1       3.525  19.615   0.914  0.00  0.00    +0.022 C 
ATOM     29  C   UNL     1       4.581  19.729   2.015  0.00  0.00    +0.002 C 
ATOM     30  C   UNL     1       5.679  20.698   1.571  0.00  0.00    +0.000 C 
ATOM     31  C   UNL     1       6.332  20.175   0.290  0.00  0.00    +0.005 C 
ATOM     32  C   UNL     1       5.276  20.061  -0.811  0.00  0.00    +0.006 C 
ATOM     33  C   UNL     1       5.930  19.538  -2.092  0.00  0.00    +0.009 C 
ENDBRANCH  24  27
ENDBRANCH  18  19
ENDBRANCH   1  18
TORSDOF 9
