REMARK  Name = ZINC36569255
REMARK  13 active torsions:
REMARK  status: ('A' for Active; 'I' for Inactive)
REMARK    1  A    between atoms: C_1  and  C_2
REMARK    2  A    between atoms: C_2  and  C_3
REMARK    3  A    between atoms: C_3  and  C_5
REMARK    4  A    between atoms: C_3  and  C_6
REMARK    5  A    between atoms: C_6  and  C_8
REMARK    6  A    between atoms: C_6  and  N_21
REMARK    7  A    between atoms: N_10  and  C_11
REMARK    8  A    between atoms: C_13  and  C_19
REMARK    9  A    between atoms: C_13  and  C_20
REMARK   10  A    between atoms: C_15  and  C_17
REMARK   11  A    between atoms: C_15  and  C_18
REMARK   12  A    between atoms: C_22  and  C_24
REMARK   13  A    between atoms: C_25  and  O_34
REMARK                            x       y       z     vdW  Elec       q    Type
REMARK                         _______ _______ _______ _____ _____    ______ ____
ROOT
ATOM      1  C   UNL     1      -0.083  -0.144  -2.938  0.00  0.00    +0.162 C 
ENDROOT
BRANCH   1   2
ATOM      2  C   UNL     1       0.369  -0.968  -4.116  0.00  0.00    +0.234 C 
ATOM      3  O   UNL     1       0.707  -0.421  -5.144  0.00  0.00    -0.274 OA
ATOM      4  N   UNL     1       0.397  -2.312  -4.028  0.00  0.00    -0.311 N 
ATOM      5  H   UNL     1       0.059  -2.753  -3.232  0.00  0.00    +0.149 HD
BRANCH   4   6
ATOM      6  C   UNL     1       0.940  -3.110  -5.135  0.00  0.00    +0.070 C 
ATOM      7  C   UNL     1      -0.171  -3.381  -6.151  0.00  0.00    +0.009 C 
ATOM      8  C   UNL     1       0.376  -4.221  -7.304  0.00  0.00    -0.072 C 
ATOM      9  N   UNL     1       1.016  -5.443  -6.838  0.00  0.00    +0.386 N 
ATOM     10  C   UNL     1       1.948  -5.335  -5.726  0.00  0.00    -0.072 C 
ATOM     11  C   UNL     1       1.434  -4.451  -4.594  0.00  0.00    +0.009 C 
ATOM     12  C   UNL     1       3.324  -4.847  -6.186  0.00  0.00    -0.010 C 
ATOM     13  C   UNL     1       2.144  -6.756  -5.146  0.00  0.00    -0.010 C 
ATOM     14  C   UNL     1       1.308  -3.380  -8.176  0.00  0.00    -0.010 C 
ATOM     15  C   UNL     1      -0.828  -4.632  -8.183  0.00  0.00    -0.010 C 
ATOM     16  H   UNL     1       0.284  -6.110  -6.580  0.00  0.00    -0.084 HD
ATOM     17  H   UNL     1       1.504  -5.871  -7.628  0.00  0.00    -0.084 HD
ENDBRANCH   4   6
ENDBRANCH   1   2
BRANCH   1  18
ATOM     18  N   UNL     1      -0.050   1.276  -3.293  0.00  0.00    -0.299 N 
ATOM     19  C   UNL     1      -0.969   2.120  -2.784  0.00  0.00    +0.264 C 
ATOM     20  O   UNL     1      -1.761   1.725  -1.946  0.00  0.00    -0.269 OA
ATOM     21  H   UNL     1       0.634   1.610  -3.895  0.00  0.00    +0.150 HD
BRANCH  19  22
ATOM     22  C   UNL     1      -1.014   3.457  -3.220  0.00  0.00    +0.152 C 
ATOM     23  C   UNL     1      -0.229   3.865  -4.256  0.00  0.00    +0.209 C 
ATOM     24  N   UNL     1      -0.270   5.172  -4.688  0.00  0.00    -0.283 N 
ATOM     25  C   UNL     1      -0.889   6.151  -3.894  0.00  0.00    +0.055 A 
ATOM     26  C   UNL     1      -0.699   7.496  -4.154  0.00  0.00    +0.025 A 
ATOM     27  C   UNL     1      -1.319   8.445  -3.358  0.00  0.00    +0.002 A 
ATOM     28  C   UNL     1      -2.126   8.054  -2.307  0.00  0.00    +0.002 A 
ATOM     29  C   UNL     1      -2.320   6.709  -2.040  0.00  0.00    +0.025 A 
ATOM     30  C   UNL     1      -1.703   5.756  -2.831  0.00  0.00    +0.053 A 
ATOM     31  N   UNL     1      -1.884   4.386  -2.584  0.00  0.00    -0.305 N 
ATOM     32  H   UNL     1      -2.586   4.079  -1.989  0.00  0.00    +0.152 HD
ATOM     33  H   UNL     1       0.127   5.416  -5.539  0.00  0.00    +0.155 HD
BRANCH  23  34
ATOM     34  O   UNL     1       0.595   2.983  -4.863  0.00  0.00    -0.494 OA
ATOM     35  H   UNL     1       1.113   3.362  -5.587  0.00  0.00    +0.294 HD
ENDBRANCH  23  34
ENDBRANCH  19  22
ENDBRANCH   1  18
BRANCH   1  36
ATOM     36  C   UNL     1       0.850  -0.396  -1.752  0.00  0.00    +0.015 C 
ATOM     37  C   UNL     1       0.290   0.294  -0.507  0.00  0.00    +0.010 C 
BRANCH  36  39
ATOM     38  C   UNL     1       2.864  -0.629  -3.213  0.00  0.00    +0.004 C 
ATOM     39  C   UNL     1       2.237   0.168  -2.067  0.00  0.00    +0.002 C 
ENDBRANCH  36  39
ENDBRANCH   1  36
TORSDOF 7
