REMARK  Name = ZINC38564518
REMARK  9 active torsions:
REMARK  status: ('A' for Active; 'I' for Inactive)
REMARK    1  A    between atoms: C_1  and  C_2
REMARK    2  A    between atoms: C_2  and  C_3
REMARK    3  A    between atoms: C_2  and  O_4
REMARK    4  A    between atoms: O_4  and  C_5
REMARK    5  A    between atoms: C_5  and  C_6
REMARK    6  A    between atoms: C_6  and  C_7
REMARK    7  A    between atoms: C_7  and  N_8
REMARK    8  A    between atoms: C_9  and  C_11
REMARK    9  A    between atoms: C_23  and  C_25
REMARK                            x       y       z     vdW  Elec       q    Type
REMARK                         _______ _______ _______ _____ _____    ______ ____
ROOT
ATOM      1  C   UNL     1      -7.420  -2.896  -3.460  0.00  0.00    +0.126 C 
ATOM      2  C   UNL     1      -8.233  -2.992  -4.592  0.00  0.00    +0.039 C 
ATOM      3  C   UNL     1      -9.596  -3.079  -4.356  0.00  0.00    -0.008 C 
ATOM      4  C   UNL     1     -10.673  -3.493  -5.096  0.00  0.00    +0.004 A 
ATOM      5  C   UNL     1     -10.831  -3.748  -6.477  0.00  0.00    +0.010 A 
ATOM      6  C   UNL     1     -12.050  -4.207  -6.884  0.00  0.00    +0.001 A 
ATOM      7  C   UNL     1     -13.117  -4.428  -6.013  0.00  0.00    +0.002 A 
ATOM      8  C   UNL     1     -13.055  -4.186  -4.674  0.00  0.00    +0.026 A 
ATOM      9  C   UNL     1     -11.823  -3.684  -4.168  0.00  0.00    +0.044 A 
ATOM     10  N   UNL     1     -11.505  -3.311  -2.953  0.00  0.00    -0.372 N 
ATOM     11  C   UNL     1     -10.182  -2.729  -2.997  0.00  0.00    +0.160 C 
ATOM     12  C   UNL     1      -9.200  -3.091  -1.941  0.00  0.00    +0.076 C 
ATOM     13  N   UNL     1      -7.915  -3.084  -2.228  0.00  0.00    -0.244 NA
ATOM     14  H   UNL     1     -12.059  -3.409  -2.162  0.00  0.00    +0.161 HD
ENDROOT
BRANCH  12  15
ATOM     15  C   UNL     1      -9.656  -3.456  -0.596  0.00  0.00    +0.002 A 
ATOM     16  C   UNL     1      -8.867  -4.284   0.214  0.00  0.00    +0.013 A 
ATOM     17  C   UNL     1      -9.298  -4.624   1.476  0.00  0.00    +0.050 A 
ATOM     18  C   UNL     1     -10.515  -4.150   1.952  0.00  0.00    +0.166 A 
ATOM     19  C   UNL     1     -11.308  -3.324   1.150  0.00  0.00    +0.167 A 
ATOM     20  C   UNL     1     -10.881  -2.974  -0.114  0.00  0.00    +0.059 A 
ATOM     21  O   UNL     1     -12.438  -3.001   1.844  0.00  0.00    -0.453 OA
ATOM     22  C   UNL     1     -12.522  -3.962   2.912  0.00  0.00    +0.466 C 
ATOM     23  O   UNL     1     -11.151  -4.339   3.143  0.00  0.00    -0.453 OA
ENDBRANCH  12  15
BRANCH   1  25
ATOM     24  N   UNL     1      -5.184  -2.498  -2.541  0.00  0.00    -0.310 N 
ATOM     25  C   UNL     1      -5.981  -2.588  -3.623  0.00  0.00    +0.262 C 
ATOM     26  O   UNL     1      -5.519  -2.415  -4.734  0.00  0.00    -0.269 OA
ATOM     27  H   UNL     1      -5.553  -2.636  -1.654  0.00  0.00    +0.149 HD
BRANCH  24  28
ATOM     28  C   UNL     1      -3.760  -2.193  -2.703  0.00  0.00    +0.107 C 
BRANCH  28  29
ATOM     29  C   UNL     1      -3.088  -2.149  -1.329  0.00  0.00    +0.047 C 
BRANCH  29  30
ATOM     30  C   UNL     1      -1.602  -1.830  -1.498  0.00  0.00    +0.161 C 
BRANCH  30  31
ATOM     31  O   UNL     1      -0.974  -1.790  -0.215  0.00  0.00    -0.377 OA
BRANCH  31  33
ATOM     32  C   UNL     1       0.631   0.016  -0.179  0.00  0.00    +0.037 C 
ATOM     33  C   UNL     1       0.424  -1.498  -0.260  0.00  0.00    +0.112 C 
ATOM     34  C   UNL     1       1.125  -2.173   0.920  0.00  0.00    +0.037 C 
ENDBRANCH  31  33
ENDBRANCH  30  31
ENDBRANCH  29  30
ENDBRANCH  28  29
ENDBRANCH  24  28
ENDBRANCH   1  25
TORSDOF 7
