REMARK  Name = ZINC11068221
REMARK  11 active torsions:
REMARK  status: ('A' for Active; 'I' for Inactive)
REMARK    1  A    between atoms: C_1  and  C_2
REMARK    2  A    between atoms: C_2  and  C_3
REMARK    3  A    between atoms: C_7  and  C_31
REMARK    4  A    between atoms: C_8  and  N_9
REMARK    5  A    between atoms: C_10  and  C_12
REMARK    6  A    between atoms: C_12  and  N_64
REMARK    7  A    between atoms: C_13  and  N_64
REMARK    8  A    between atoms: C_14  and  C_15
REMARK    9  A    between atoms: C_14  and  N_64
REMARK   10  A    between atoms: C_28  and  C_30
REMARK   11  A    between atoms: C_31  and  C_32
REMARK                            x       y       z     vdW  Elec       q    Type
REMARK                         _______ _______ _______ _____ _____    ______ ____
ROOT
ATOM      1  C   UNL     1      -3.540  -1.922   1.274  0.00  0.00    -0.095 C 
ATOM      2  N   UNL     1      -3.171  -2.254  -0.118  0.00  0.00    +0.389 N 
ATOM      3  H   UNL     1      -3.741  -1.689  -0.758  0.00  0.00    -0.081 HD
ENDROOT
BRANCH   2   4
ATOM      4  C   UNL     1      -1.744  -1.947  -0.349  0.00  0.00    +0.019 C 
BRANCH   4   6
ATOM      5  N   UNL     1      -0.329   0.076  -0.490  0.00  0.00    -0.287 N 
ATOM      6  C   UNL     1      -1.551  -0.454  -0.290  0.00  0.00    +0.201 C 
ATOM      7  O   UNL     1      -2.497   0.271  -0.063  0.00  0.00    -0.278 OA
ATOM      8  H   UNL     1       0.423  -0.501  -0.698  0.00  0.00    +0.155 HD
BRANCH   5  14
ATOM      9  C   UNL     1       0.137   2.045   0.829  0.00  0.00    -0.026 A 
ATOM     10  C   UNL     1       0.325   3.411   0.915  0.00  0.00    +0.005 A 
ATOM     11  C   UNL     1       0.224   4.197  -0.218  0.00  0.00    +0.001 A 
ATOM     12  C   UNL     1      -0.059   3.618  -1.441  0.00  0.00    +0.005 A 
ATOM     13  C   UNL     1      -0.243   2.253  -1.535  0.00  0.00    -0.026 A 
ATOM     14  C   UNL     1      -0.143   1.460  -0.399  0.00  0.00    +0.040 A 
BRANCH   9  16
ATOM     15  C   UNL     1       1.660   0.632   2.183  0.00  0.00    +0.009 C 
ATOM     16  C   UNL     1       0.241   1.190   2.066  0.00  0.00    +0.033 C 
ENDBRANCH   9  16
BRANCH  13  17
ATOM     17  C   UNL     1      -0.554   1.623  -2.868  0.00  0.00    +0.033 C 
ATOM     18  C   UNL     1      -2.068   1.468  -3.019  0.00  0.00    +0.009 C 
ENDBRANCH  13  17
ENDBRANCH   5  14
ENDBRANCH   4   6
ENDBRANCH   2   4
BRANCH   2  19
ATOM     19  C   UNL     1      -3.430  -3.685  -0.381  0.00  0.00    +0.019 C 
BRANCH  19  20
ATOM     20  C   UNL     1      -4.917  -3.923  -0.354  0.00  0.00    +0.204 C 
ATOM     21  O   UNL     1      -5.675  -3.004  -0.123  0.00  0.00    -0.277 OA
ATOM     22  N   UNL     1      -5.407  -5.157  -0.587  0.00  0.00    -0.268 N 
ATOM     23  C   UNL     1      -4.545  -6.228  -0.860  0.00  0.00    +0.058 A 
ATOM     24  C   UNL     1      -3.889  -6.317  -2.072  0.00  0.00    +0.025 A 
ATOM     25  C   UNL     1      -3.068  -7.399  -2.334  0.00  0.00    +0.002 A 
ATOM     26  C   UNL     1      -2.899  -8.391  -1.386  0.00  0.00    +0.002 A 
ATOM     27  C   UNL     1      -3.539  -8.303  -0.163  0.00  0.00    +0.025 A 
ATOM     28  C   UNL     1      -4.353  -7.217   0.110  0.00  0.00    +0.055 A 
ATOM     29  N   UNL     1      -4.987  -7.087   1.352  0.00  0.00    -0.284 N 
ATOM     30  C   UNL     1      -6.307  -6.804   1.423  0.00  0.00    +0.219 C 
ATOM     31  O   UNL     1      -6.825  -6.618   2.503  0.00  0.00    -0.275 OA
ATOM     32  C   UNL     1      -7.138  -6.716   0.170  0.00  0.00    +0.118 C 
ATOM     33  C   UNL     1      -6.849  -5.406  -0.564  0.00  0.00    +0.087 C 
ATOM     34  C   UNL     1      -7.370  -5.502  -1.999  0.00  0.00    +0.029 C 
ATOM     35  H   UNL     1      -4.475  -7.201   2.168  0.00  0.00    +0.155 HD
ENDBRANCH  19  20
ENDBRANCH   2  19
TORSDOF 7
