REMARK  Name = ZINC00426620
REMARK  6 active torsions:
REMARK  status: ('A' for Active; 'I' for Inactive)
REMARK    1  A    between atoms: C_1  and  C_2
REMARK    2  A    between atoms: C_2  and  C_3
REMARK    3  A    between atoms: C_2  and  C_4
REMARK    4  A    between atoms: C_2  and  C_5
REMARK    5  A    between atoms: C_11  and  C_14
REMARK    6  A    between atoms: N_16  and  C_17
REMARK                            x       y       z     vdW  Elec       q    Type
REMARK                         _______ _______ _______ _____ _____    ______ ____
ROOT
ATOM      1  C   UNL     1      -3.327  -1.839   0.511  0.00  0.00    -0.001 C 
ATOM      2  C   UNL     1      -2.834  -3.023  -0.325  0.00  0.00    +0.012 C 
ATOM      3  C   UNL     1      -1.395  -3.376   0.073  0.00  0.00    +0.078 C 
ATOM      4  C   UNL     1      -0.577  -2.112   0.056  0.00  0.00    +0.141 A 
ATOM      5  C   UNL     1      -1.112  -0.869   0.065  0.00  0.00    +0.027 A 
ATOM      6  C   UNL     1       0.000  -0.003   0.035  0.00  0.00    +0.171 A 
ATOM      7  N   UNL     1       1.058  -0.784   0.023  0.00  0.00    -0.073 NA
ATOM      8  O   UNL     1       0.746  -1.957   0.035  0.00  0.00    -0.359 OA
ATOM      9  C   UNL     1      -2.582  -0.566   0.085  0.00  0.00    +0.045 C 
ENDROOT
BRANCH   1  11
ATOM     10  C   UNL     1      -5.572  -2.917   0.715  0.00  0.00    +0.011 C 
ATOM     11  C   UNL     1      -4.829  -1.649   0.290  0.00  0.00    -0.035 C 
ATOM     12  C   UNL     1      -5.321  -0.465   1.126  0.00  0.00    +0.011 C 
ATOM     13  C   UNL     1      -5.096  -1.373  -1.191  0.00  0.00    +0.011 C 
ENDBRANCH   1  11
BRANCH   6  14
ATOM     14  C   UNL     1      -0.018   1.480   0.027  0.00  0.00    +0.270 C 
ATOM     15  O   UNL     1      -1.078   2.074   0.036  0.00  0.00    -0.268 OA
ATOM     16  N   UNL     1       1.140   2.168   0.003  0.00  0.00    -0.278 N 
ATOM     17  H   UNL     1       1.986   1.696   0.053  0.00  0.00    +0.155 HD
BRANCH  16  18
ATOM     18  C   UNL     1       1.122   3.564  -0.095  0.00  0.00    +0.071 A 
ATOM     19  C   UNL     1       0.107   4.302   0.508  0.00  0.00    +0.028 A 
ATOM     20  C   UNL     1       0.136   5.682   0.388  0.00  0.00    +0.022 A 
ATOM     21  C   UNL     1       1.157   6.277  -0.330  0.00  0.00    +0.112 A 
ATOM     22  N   UNL     1       2.101   5.550  -0.895  0.00  0.00    -0.242 NA
ATOM     23  C   UNL     1       2.115   4.234  -0.801  0.00  0.00    +0.150 A 
ATOM     24 CL   UNL     1       3.385   3.331  -1.566  0.00  0.00    -0.060 Cl
ENDBRANCH  16  18
ENDBRANCH   6  14
TORSDOF 3
