REMARK  Name = ZINC46562766
REMARK  6 active torsions:
REMARK  status: ('A' for Active; 'I' for Inactive)
REMARK    1  A    between atoms: C_1  and  C_2
REMARK    2  A    between atoms: C_3  and  C_17
REMARK    3  A    between atoms: C_10  and  C_13
REMARK    4  A    between atoms: N_19  and  C_20
REMARK    5  A    between atoms: C_20  and  C_22
REMARK    6  A    between atoms: C_20  and  C_28
REMARK                            x       y       z     vdW  Elec       q    Type
REMARK                         _______ _______ _______ _____ _____    ______ ____
ROOT
ATOM      1  C   UNL     1      -0.018   1.503   0.010  0.00  0.00    +0.066 C 
ATOM      2  C   UNL     1       0.002  -0.004   0.002  0.00  0.00    +0.056 A 
ATOM      3  C   UNL     1       0.008  -0.815  -1.115  0.00  0.00    +0.077 A 
ATOM      4  C   UNL     1       0.029  -2.153  -0.659  0.00  0.00    +0.148 A 
ATOM      5  N   UNL     1       0.035  -2.136   0.646  0.00  0.00    -0.172 NA
ATOM      6  N   UNL     1       0.024  -0.807   1.082  0.00  0.00    -0.218 N 
ATOM      7  C   UNL     1       0.031  -0.384   2.415  0.00  0.00    +0.154 A 
ATOM      8  C   UNL     1      -0.453  -1.228   3.407  0.00  0.00    +0.049 A 
ATOM      9  C   UNL     1      -0.440  -0.798   4.723  0.00  0.00    +0.017 A 
ATOM     10  C   UNL     1       0.059   0.468   5.000  0.00  0.00    +0.073 A 
ATOM     11  C   UNL     1       0.523   1.253   3.963  0.00  0.00    +0.125 A 
ATOM     12  N   UNL     1       0.503   0.813   2.720  0.00  0.00    -0.236 NA
ENDROOT
BRANCH  10  13
ATOM     13  C   UNL     1       0.092   0.979   6.417  0.00  0.00    +0.419 C 
ATOM     14  F   UNL     1       1.309   0.628   7.011  0.00  0.00    -0.166 F 
ATOM     15  F   UNL     1      -0.040   2.372   6.414  0.00  0.00    -0.166 F 
ATOM     16  F   UNL     1      -0.961   0.412   7.143  0.00  0.00    -0.166 F 
ENDBRANCH  10  13
BRANCH   3  17
ATOM     17  C   UNL     1      -0.005  -0.370  -2.520  0.00  0.00    +0.248 C 
ATOM     18  O   UNL     1      -0.022   0.818  -2.781  0.00  0.00    -0.270 OA
ATOM     19  N   UNL     1       0.003  -1.279  -3.515  0.00  0.00    -0.300 N 
ATOM     20  H   UNL     1       0.017  -2.226  -3.307  0.00  0.00    +0.150 HD
BRANCH  19  21
ATOM     21  C   UNL     1      -0.009  -0.836  -4.911  0.00  0.00    +0.140 C 
BRANCH  21  22
ATOM     22  C   UNL     1       0.602  -1.903  -5.782  0.00  0.00    -0.022 A 
ATOM     23  C   UNL     1       0.324  -3.236  -5.540  0.00  0.00    +0.006 A 
ATOM     24  C   UNL     1       0.885  -4.215  -6.339  0.00  0.00    +0.000 A 
ATOM     25  C   UNL     1       1.723  -3.861  -7.380  0.00  0.00    +0.000 A 
ATOM     26  C   UNL     1       2.000  -2.529  -7.623  0.00  0.00    +0.000 A 
ATOM     27  C   UNL     1       1.436  -1.549  -6.827  0.00  0.00    +0.006 A 
ENDBRANCH  21  22
BRANCH  21  28
ATOM     28  C   UNL     1      -1.431  -0.586  -5.346  0.00  0.00    +0.014 A 
ATOM     29  C   UNL     1      -1.922   0.407  -6.127  0.00  0.00    +0.013 A 
ATOM     30  C   UNL     1      -3.277   0.439  -6.398  0.00  0.00    +0.008 A 
ATOM     31  C   UNL     1      -4.074  -0.525  -5.875  0.00  0.00    +0.045 A 
ATOM     32  S   UNL     1      -2.902  -1.525  -4.973  0.00  0.00    -0.099 S 
ENDBRANCH  21  28
ENDBRANCH  19  21
ENDBRANCH   3  17
TORSDOF 5
