REMARK  Name = ZINC17087220
REMARK  7 active torsions:
REMARK  status: ('A' for Active; 'I' for Inactive)
REMARK    1  A    between atoms: C_1  and  C_2
REMARK    2  A    between atoms: C_5  and  N_9
REMARK    3  A    between atoms: C_7  and  C_8
REMARK    4  A    between atoms: C_11  and  C_16
REMARK    5  A    between atoms: N_18  and  N_19
REMARK    6  A    between atoms: C_20  and  C_21
REMARK    7  A    between atoms: C_30  and  O_31
REMARK                            x       y       z     vdW  Elec       q    Type
REMARK                         _______ _______ _______ _____ _____    ______ ____
ROOT
ATOM      1  C   UNL     1      -0.359   6.778  -0.390  0.00  0.00    +0.237 C 
ATOM      2  O   UNL     1      -1.220   6.469  -1.186  0.00  0.00    -0.274 OA
ATOM      3  N   UNL     1      -0.043   8.075  -0.208  0.00  0.00    -0.207 N 
ATOM      4  H   UNL     1       0.646   8.322   0.429  0.00  0.00    +0.177 HD
ENDROOT
BRANCH   1   7
ATOM      5  N   UNL     1       1.162   3.485   0.009  0.00  0.00    -0.271 N 
ATOM      6  C   UNL     1      -0.055   4.300  -0.087  0.00  0.00    +0.127 C 
ATOM      7  C   UNL     1       0.357   5.710   0.397  0.00  0.00    +0.103 C 
ATOM      8  C   UNL     1       1.872   5.718   0.088  0.00  0.00    +0.110 C 
ATOM      9  C   UNL     1       2.260   4.255   0.099  0.00  0.00    +0.221 C 
ATOM     10  O   UNL     1       3.396   3.839   0.177  0.00  0.00    -0.275 OA
BRANCH   5  15
ATOM     11  C   UNL     1       1.225  -2.188  -0.018  0.00  0.00    +0.044 C 
ATOM     12  C   UNL     1       1.208  -0.681  -0.011  0.00  0.00    -0.047 A 
ATOM     13  C   UNL     1       2.399   0.023  -0.035  0.00  0.00    +0.005 A 
ATOM     14  C   UNL     1       2.387   1.404  -0.028  0.00  0.00    +0.024 A 
ATOM     15  C   UNL     1       1.177   2.086   0.002  0.00  0.00    +0.037 A 
ATOM     16  C   UNL     1      -0.016   1.377   0.025  0.00  0.00    +0.027 A 
ATOM     17  C   UNL     1       0.003  -0.004   0.019  0.00  0.00    -0.046 A 
ATOM     18  C   UNL     1      -1.292  -0.775   0.046  0.00  0.00    +0.044 C 
ENDBRANCH   5  15
ENDBRANCH   1   7
BRANCH   3  19
ATOM     19  N   UNL     1      -0.708   9.068  -0.939  0.00  0.00    -0.188 NA
ATOM     20  C   UNL     1      -0.404  10.318  -0.764  0.00  0.00    +0.142 C 
BRANCH  20  21
ATOM     21  C   UNL     1      -1.103  11.361  -1.533  0.00  0.00    +0.037 A 
ATOM     22  C   UNL     1      -0.774  12.714  -1.336  0.00  0.00    +0.014 A 
ATOM     23  C   UNL     1      -1.401  13.693  -2.036  0.00  0.00    +0.009 A 
ATOM     24  C   UNL     1      -2.404  13.366  -2.967  0.00  0.00    -0.014 A 
ATOM     25  C   UNL     1      -3.069  14.366  -3.697  0.00  0.00    +0.008 A 
ATOM     26  C   UNL     1      -4.036  14.019  -4.591  0.00  0.00    +0.001 A 
ATOM     27  C   UNL     1      -4.379  12.684  -4.795  0.00  0.00    +0.001 A 
ATOM     28  C   UNL     1      -3.757  11.688  -4.106  0.00  0.00    +0.012 A 
ATOM     29  C   UNL     1      -2.754  12.008  -3.176  0.00  0.00    +0.024 A 
ATOM     30  C   UNL     1      -2.091  11.002  -2.446  0.00  0.00    +0.133 A 
BRANCH  30  31
ATOM     31  O   UNL     1      -2.412   9.697  -2.632  0.00  0.00    -0.506 OA
ATOM     32  H   UNL     1      -3.115   9.378  -2.049  0.00  0.00    +0.292 HD
ENDBRANCH  30  31
ENDBRANCH  20  21
ENDBRANCH   3  19
TORSDOF 5
