REMARK  Name = ZINC48872241
REMARK  6 active torsions:
REMARK  status: ('A' for Active; 'I' for Inactive)
REMARK    1  A    between atoms: C_1  and  N_2
REMARK    2  A    between atoms: C_6  and  C_7
REMARK    3  A    between atoms: C_7  and  S_8
REMARK    4  A    between atoms: S_8  and  C_9
REMARK    5  A    between atoms: C_12  and  C_15
REMARK    6  A    between atoms: N_13  and  N_14
REMARK                            x       y       z     vdW  Elec       q    Type
REMARK                         _______ _______ _______ _____ _____    ______ ____
ROOT
ATOM      1  C   UNL     1      -1.502   0.339   4.782  0.00  0.00    +0.209 A 
ATOM      2  N   UNL     1      -0.372   0.565   5.413  0.00  0.00    -0.121 NA
ATOM      3  N   UNL     1      -0.606   0.942   6.619  0.00  0.00    -0.126 NA
ATOM      4  C   UNL     1      -1.903   0.981   6.834  0.00  0.00    +0.188 A 
ATOM      5  N   UNL     1      -2.516   0.601   5.661  0.00  0.00    -0.223 N 
ENDROOT
BRANCH   4   6
ATOM      6  C   UNL     1      -2.571   1.363   8.088  0.00  0.00    +0.058 A 
ATOM      7  C   UNL     1      -2.055   2.017   9.178  0.00  0.00    +0.019 A 
ATOM      8  C   UNL     1      -2.882   2.270  10.249  0.00  0.00    +0.008 A 
ATOM      9  C   UNL     1      -4.178   1.867  10.195  0.00  0.00    +0.046 A 
ATOM     10  S   UNL     1      -4.267   1.105   8.582  0.00  0.00    -0.093 S 
ENDBRANCH   4   6
BRANCH   5  11
ATOM     11  N   UNL     1      -3.858   0.504   5.425  0.00  0.00    -0.295 N 
ATOM     12  H   UNL     1      -4.199  -0.420   5.648  0.00  0.00    +0.163 HD
ATOM     13  H   UNL     1      -4.367   1.210   5.936  0.00  0.00    +0.163 HD
ENDBRANCH   5  11
BRANCH   1  14
ATOM     14  S   UNL     1      -1.677  -0.195   3.112  0.00  0.00    -0.077 S 
BRANCH  14  15
ATOM     15  C   UNL     1       0.030  -0.354   2.521  0.00  0.00    +0.151 C 
BRANCH  15  21
ATOM     16  C   UNL     1      -0.018   1.461   0.010  0.00  0.00    +0.150 C 
ATOM     17  N   UNL     1       0.002  -0.004   0.002  0.00  0.00    -0.337 N 
ATOM     18  C   UNL     1       0.009  -0.810  -1.104  0.00  0.00    +0.106 A 
ATOM     19  C   UNL     1       0.029  -2.081  -0.660  0.00  0.00    +0.130 A 
ATOM     20  N   UNL     1       0.034  -2.052   0.681  0.00  0.00    -0.240 NA
ATOM     21  C   UNL     1       0.023  -0.811   1.085  0.00  0.00    +0.120 A 
ENDBRANCH  15  21
ENDBRANCH  14  15
ENDBRANCH   1  14
TORSDOF 5
