REMARK  Name = ZINC49639839
REMARK  8 active torsions:
REMARK  status: ('A' for Active; 'I' for Inactive)
REMARK    1  A    between atoms: C_1  and  C_2
REMARK    2  A    between atoms: C_5  and  C_12
REMARK    3  A    between atoms: C_7  and  N_8
REMARK    4  A    between atoms: C_9  and  C_11
REMARK    5  A    between atoms: N_14  and  C_15
REMARK    6  A    between atoms: C_22  and  C_26
REMARK    7  A    between atoms: C_23  and  C_24
REMARK    8  A    between atoms: C_23  and  C_25
REMARK                            x       y       z     vdW  Elec       q    Type
REMARK                         _______ _______ _______ _____ _____    ______ ____
ROOT
ATOM      1  C   UNL     1      -0.555  -2.868   0.003  0.00  0.00    +0.244 C 
ATOM      2  O   UNL     1      -0.752  -3.029   1.192  0.00  0.00    -0.270 OA
ATOM      3  N   UNL     1      -0.416  -3.936  -0.807  0.00  0.00    -0.308 N 
ATOM      4  H   UNL     1      -0.260  -3.807  -1.756  0.00  0.00    +0.149 HD
ENDROOT
BRANCH   3   5
ATOM      5  C   UNL     1      -0.502  -5.290  -0.256  0.00  0.00    +0.080 C 
ATOM      6  C   UNL     1       0.841  -5.694   0.393  0.00  0.00    +0.027 C 
ATOM      7  C   UNL     1       1.313  -6.939  -0.419  0.00  0.00    -0.003 C 
ATOM      8  C   UNL     1       0.334  -8.076   0.007  0.00  0.00    +0.005 C 
ATOM      9  C   UNL     1      -1.020  -7.685  -0.628  0.00  0.00    +0.009 C 
ATOM     10  C   UNL     1      -0.719  -6.329  -1.398  0.00  0.00    -0.008 C 
ATOM     11  C   UNL     1       0.768  -6.579  -1.846  0.00  0.00    -0.025 C 
ATOM     12  C   UNL     1       0.884  -7.754  -2.818  0.00  0.00    +0.012 C 
ATOM     13  C   UNL     1       1.419  -5.313  -2.405  0.00  0.00    +0.012 C 
ATOM     14  C   UNL     1      -1.714  -5.926  -2.489  0.00  0.00    +0.013 C 
ENDBRANCH   3   5
BRANCH   1  19
ATOM     15  C   UNL     1      -0.218   2.452  -2.178  0.00  0.00    +0.045 C 
ATOM     16  C   UNL     1      -0.306   1.060  -1.605  0.00  0.00    -0.029 A 
ATOM     17  C   UNL     1      -0.163  -0.036  -2.435  0.00  0.00    +0.006 A 
ATOM     18  C   UNL     1      -0.243  -1.313  -1.918  0.00  0.00    +0.013 A 
ATOM     19  C   UNL     1      -0.469  -1.501  -0.553  0.00  0.00    +0.038 A 
ATOM     20  C   UNL     1      -0.613  -0.395   0.284  0.00  0.00    +0.036 A 
ATOM     21  C   UNL     1      -0.526   0.884  -0.244  0.00  0.00    +0.037 A 
BRANCH  21  22
ATOM     22  N   UNL     1      -0.665   1.998   0.592  0.00  0.00    -0.285 N 
ATOM     23  C   UNL     1      -1.451   1.927   1.684  0.00  0.00    +0.214 C 
ATOM     24  O   UNL     1      -1.980   0.877   1.983  0.00  0.00    -0.276 OA
ATOM     25  C   UNL     1      -1.673   3.151   2.534  0.00  0.00    +0.109 C 
ATOM     26  H   UNL     1      -0.195   2.821   0.386  0.00  0.00    +0.155 HD
ENDBRANCH  21  22
ENDBRANCH   1  19
TORSDOF 3
