REMARK  Name = ZINC13033911
REMARK  8 active torsions:
REMARK  status: ('A' for Active; 'I' for Inactive)
REMARK    1  A    between atoms: C_3  and  C_7
REMARK    2  A    between atoms: C_7  and  N_8
REMARK    3  A    between atoms: N_8  and  C_9
REMARK    4  A    between atoms: N_8  and  C_26
REMARK    5  A    between atoms: C_9  and  C_10
REMARK    6  A    between atoms: C_26  and  C_27
REMARK    7  A    between atoms: N_31  and  C_32
REMARK    8  A    between atoms: C_32  and  C_33
REMARK                            x       y       z     vdW  Elec       q    Type
REMARK                         _______ _______ _______ _____ _____    ______ ____
ROOT
ATOM      1  N   UNL     1       4.082   2.382   1.357  0.00  0.00    +0.390 N 
ATOM      2  H   UNL     1       3.265   2.800   1.777  0.00  0.00    -0.080 HD
ENDROOT
BRANCH   1   3
ATOM      3  C   UNL     1       3.800   2.067  -0.051  0.00  0.00    -0.040 C 
BRANCH   3   6
ATOM      4  C   UNL     1       0.230   0.855  -0.202  0.00  0.00    +0.020 A 
ATOM      5  C   UNL     1       1.314   1.716  -0.123  0.00  0.00    +0.005 A 
ATOM      6  C   UNL     1       2.590   1.173  -0.133  0.00  0.00    -0.046 A 
ATOM      7  C   UNL     1       2.738  -0.199  -0.220  0.00  0.00    +0.112 A 
ATOM      8  N   UNL     1       1.683  -0.987  -0.293  0.00  0.00    -0.263 NA
ATOM      9  C   UNL     1       0.456  -0.506  -0.286  0.00  0.00    +0.111 A 
ENDBRANCH   3   6
ENDBRANCH   1   3
BRANCH   1  10
ATOM     10  C   UNL     1       5.208   3.321   1.432  0.00  0.00    -0.036 C 
BRANCH  10  11
ATOM     11  C   UNL     1       4.812   4.632   0.802  0.00  0.00    +0.001 A 
ATOM     12  C   UNL     1       4.344   5.642   1.579  0.00  0.00    +0.017 A 
ATOM     13  C   UNL     1       3.969   6.901   0.938  0.00  0.00    +0.002 A 
ATOM     14  C   UNL     1       3.479   7.977   1.688  0.00  0.00    +0.059 A 
ATOM     15  C   UNL     1       3.135   9.153   1.056  0.00  0.00    +0.163 A 
ATOM     16  C   UNL     1       3.274   9.274  -0.329  0.00  0.00    +0.164 A 
ATOM     17  C   UNL     1       3.755   8.215  -1.080  0.00  0.00    +0.075 A 
ATOM     18  C   UNL     1       4.106   7.024  -0.459  0.00  0.00    +0.053 A 
ATOM     19  N   UNL     1       4.588   5.958  -1.192  0.00  0.00    -0.322 N 
ATOM     20  H   UNL     1       4.682   6.043  -2.153  0.00  0.00    +0.169 HD
ATOM     21  C   UNL     1       4.935   4.806  -0.591  0.00  0.00    +0.251 A 
ATOM     22  O   UNL     1       5.362   3.888  -1.270  0.00  0.00    -0.268 OA
ATOM     23  O   UNL     1       2.944  10.434  -0.960  0.00  0.00    -0.485 OA
ATOM     24  C   UNL     1       2.114  11.348  -0.235  0.00  0.00    +0.270 C 
ATOM     25  C   UNL     1       2.674  11.482   1.188  0.00  0.00    +0.270 C 
ATOM     26  O   UNL     1       2.657  10.189   1.801  0.00  0.00    -0.485 OA
ENDBRANCH  10  11
ENDBRANCH   1  10
BRANCH   1  27
ATOM     27  C   UNL     1       4.424   1.147   2.075  0.00  0.00    +0.001 C 
BRANCH  27  28
ATOM     28  C   UNL     1       4.585   1.449   3.543  0.00  0.00    +0.136 A 
ATOM     29  N   UNL     1       5.705   1.715   4.170  0.00  0.00    -0.115 NA
ATOM     30  N   UNL     1       5.428   1.917   5.412  0.00  0.00    -0.023 NA
ATOM     31  N   UNL     1       4.161   1.786   5.594  0.00  0.00    -0.044 NA
ATOM     32  N   UNL     1       3.605   1.503   4.464  0.00  0.00    -0.224 N 
BRANCH  32  33
ATOM     33  C   UNL     1       2.176   1.279   4.229  0.00  0.00    +0.221 C 
BRANCH  33  34
ATOM     34  C   UNL     1       1.836  -0.157   4.536  0.00  0.00    +0.126 A 
ATOM     35  C   UNL     1       1.440  -0.634   5.729  0.00  0.00    +0.046 A 
ATOM     36  C   UNL     1       1.230  -2.023   5.566  0.00  0.00    +0.041 A 
ATOM     37  C   UNL     1       1.510  -2.311   4.282  0.00  0.00    +0.195 A 
ATOM     38  O   UNL     1       1.871  -1.176   3.662  0.00  0.00    -0.466 OA
ENDBRANCH  33  34
ENDBRANCH  32  33
ENDBRANCH  27  28
ENDBRANCH   1  27
TORSDOF 8
