REMARK  Name = ZINC02253397
REMARK  9 active torsions:
REMARK  status: ('A' for Active; 'I' for Inactive)
REMARK    1  A    between atoms: C_1  and  C_2
REMARK    2  A    between atoms: C_5  and  N_8
REMARK    3  A    between atoms: C_9  and  N_28
REMARK    4  A    between atoms: C_10  and  C_21
REMARK    5  A    between atoms: C_21  and  O_23
REMARK    6  A    between atoms: O_23  and  C_24
REMARK    7  A    between atoms: C_24  and  C_25
REMARK    8  A    between atoms: C_25  and  C_26
REMARK    9  A    between atoms: C_25  and  C_27
REMARK                            x       y       z     vdW  Elec       q    Type
REMARK                         _______ _______ _______ _____ _____    ______ ____
ROOT
ATOM      1  N   UNL     1       0.104  -4.159  -1.590  0.00  0.00    -0.280 N 
ATOM      2  C   UNL     1      -0.284  -2.858  -1.706  0.00  0.00    +0.119 A 
ATOM      3  C   UNL     1       0.657  -2.016  -1.121  0.00  0.00    +0.126 A 
ATOM      4  C   UNL     1       1.719  -2.885  -0.585  0.00  0.00    +0.125 A 
ATOM      5  C   UNL     1       1.308  -4.252  -0.918  0.00  0.00    +0.167 A 
ATOM      6  N   UNL     1       2.072  -5.262  -0.562  0.00  0.00    -0.225 NA
ATOM      7  C   UNL     1       3.214  -5.033   0.099  0.00  0.00    +0.092 A 
ATOM      8  C   UNL     1       4.038  -6.108   0.484  0.00  0.00    +0.030 A 
ATOM      9  C   UNL     1       5.197  -5.867   1.155  0.00  0.00    +0.002 A 
ATOM     10  C   UNL     1       5.585  -4.566   1.470  0.00  0.00    +0.002 A 
ATOM     11  C   UNL     1       4.816  -3.502   1.115  0.00  0.00    +0.030 A 
ATOM     12  C   UNL     1       3.610  -3.711   0.420  0.00  0.00    +0.090 A 
ATOM     13  N   UNL     1       2.845  -2.671   0.065  0.00  0.00    -0.241 NA
ENDROOT
BRANCH   1  18
ATOM     14  C   UNL     1      -2.833  -8.591  -3.574  0.00  0.00    +0.044 C 
ATOM     15  C   UNL     1      -2.053  -7.414  -3.047  0.00  0.00    -0.050 A 
ATOM     16  C   UNL     1      -2.583  -6.630  -2.039  0.00  0.00    +0.005 A 
ATOM     17  C   UNL     1      -1.871  -5.551  -1.554  0.00  0.00    +0.026 A 
ATOM     18  C   UNL     1      -0.621  -5.253  -2.080  0.00  0.00    +0.050 A 
ATOM     19  C   UNL     1      -0.093  -6.038  -3.096  0.00  0.00    +0.026 A 
ATOM     20  C   UNL     1      -0.808  -7.120  -3.572  0.00  0.00    +0.005 A 
ENDBRANCH   1  18
BRANCH   2  21
ATOM     21  N   UNL     1      -1.436  -2.437  -2.317  0.00  0.00    -0.343 N 
ATOM     22  H   UNL     1      -1.643  -1.491  -2.363  0.00  0.00    +0.144 HD
ATOM     23  H   UNL     1      -2.045  -3.086  -2.703  0.00  0.00    +0.144 HD
ENDBRANCH   2  21
BRANCH   3  24
ATOM     24  C   UNL     1       0.602  -0.603  -1.048  0.00  0.00    +0.345 C 
ATOM     25  O   UNL     1       1.094   0.072  -1.933  0.00  0.00    -0.245 OA
BRANCH  24  26
ATOM     26  O   UNL     1       0.002  -0.004   0.002  0.00  0.00    -0.461 OA
BRANCH  26  27
ATOM     27  C   UNL     1      -0.017   1.425   0.010  0.00  0.00    +0.235 C 
BRANCH  27  28
ATOM     28  C   UNL     1      -0.733   1.918   1.269  0.00  0.00    +0.020 C 
ATOM     29  C   UNL     1      -0.646   3.444   1.341  0.00  0.00    +0.010 C 
ATOM     30  C   UNL     1      -2.203   1.494   1.219  0.00  0.00    +0.010 C 
ENDBRANCH  27  28
ENDBRANCH  26  27
ENDBRANCH  24  26
ENDBRANCH   3  24
TORSDOF 6
