REMARK  Name = ZINC58264837
REMARK  8 active torsions:
REMARK  status: ('A' for Active; 'I' for Inactive)
REMARK    1  A    between atoms: C_1  and  C_2
REMARK    2  A    between atoms: C_15  and  C_17
REMARK    3  A    between atoms: C_17  and  N_18
REMARK    4  A    between atoms: N_18  and  C_19
REMARK    5  A    between atoms: C_24  and  C_25
REMARK    6  A    between atoms: C_25  and  N_26
REMARK    7  A    between atoms: C_29  and  C_32
REMARK    8  A    between atoms: C_32  and  O_33
REMARK                            x       y       z     vdW  Elec       q    Type
REMARK                         _______ _______ _______ _____ _____    ______ ____
ROOT
ATOM      1  N   UNL     1      -0.418  -2.157   4.215  0.00  0.00    -0.335 N 
ATOM      2  H   UNL     1      -1.383  -2.121   4.127  0.00  0.00    +0.147 HD
ENDROOT
BRANCH   1   3
ATOM      3  C   UNL     1       0.159  -2.545   5.426  0.00  0.00    +0.029 A 
ATOM      4  C   UNL     1       1.536  -2.700   5.524  0.00  0.00    +0.023 A 
ATOM      5  C   UNL     1       2.103  -3.084   6.723  0.00  0.00    +0.002 A 
ATOM      6  C   UNL     1       1.301  -3.315   7.826  0.00  0.00    +0.000 A 
ATOM      7  C   UNL     1      -0.070  -3.163   7.732  0.00  0.00    +0.003 A 
ATOM      8  C   UNL     1      -0.643  -2.773   6.537  0.00  0.00    -0.043 A 
BRANCH   8   9
ATOM      9  C   UNL     1      -2.137  -2.601   6.438  0.00  0.00    -0.041 C 
BRANCH   9  10
ATOM     10  N   UNL     1      -2.464  -1.169   6.410  0.00  0.00    +0.382 N 
ATOM     11  C   UNL     1      -2.094  -0.559   7.693  0.00  0.00    -0.078 C 
ATOM     12  C   UNL     1      -2.357   0.948   7.641  0.00  0.00    -0.013 C 
ATOM     13  C   UNL     1      -3.844   1.191   7.368  0.00  0.00    +0.011 C 
ATOM     14  C   UNL     1      -4.236   0.488   6.066  0.00  0.00    -0.013 C 
ATOM     15  C   UNL     1      -3.903  -1.002   6.176  0.00  0.00    -0.078 C 
ATOM     16  H   UNL     1      -1.949  -0.722   5.667  0.00  0.00    -0.081 HD
BRANCH  13  17
ATOM     17  C   UNL     1      -4.101   2.693   7.236  0.00  0.00    +0.159 C 
BRANCH  17  18
ATOM     18  O   UNL     1      -5.504   2.927   7.098  0.00  0.00    -0.395 OA
ATOM     19  H   UNL     1      -5.741   3.860   7.009  0.00  0.00    +0.209 HD
ENDBRANCH  17  18
ENDBRANCH  13  17
ENDBRANCH   9  10
ENDBRANCH   8   9
ENDBRANCH   1   3
BRANCH   1  20
ATOM     20  C   UNL     1       0.435  -1.803   3.078  0.00  0.00    +0.198 C 
BRANCH  20  34
ATOM     21  C   UNL     1      -0.701   0.837  -0.554  0.00  0.00    +0.029 C 
ATOM     22  C   UNL     1      -0.681  -0.686  -0.414  0.00  0.00    +0.087 C 
ATOM     23  C   UNL     1      -0.103  -1.306  -1.687  0.00  0.00    +0.118 C 
ATOM     24  C   UNL     1       0.293  -2.737  -1.433  0.00  0.00    +0.219 C 
ATOM     25  O   UNL     1      -0.401  -3.638  -1.853  0.00  0.00    -0.275 OA
ATOM     26  N   UNL     1       1.417  -3.022  -0.740  0.00  0.00    -0.284 N 
ATOM     27  C   UNL     1       2.177  -1.996  -0.166  0.00  0.00    +0.055 A 
ATOM     28  C   UNL     1       3.547  -1.937  -0.355  0.00  0.00    +0.025 A 
ATOM     29  C   UNL     1       4.280  -0.927   0.241  0.00  0.00    +0.002 A 
ATOM     30  C   UNL     1       3.650   0.022   1.026  0.00  0.00    +0.002 A 
ATOM     31  C   UNL     1       2.281  -0.026   1.211  0.00  0.00    +0.025 A 
ATOM     32  C   UNL     1       1.538  -1.027   0.608  0.00  0.00    +0.058 A 
ATOM     33  N   UNL     1       0.144  -1.058   0.737  0.00  0.00    -0.265 N 
ATOM     34  C   UNL     1      -0.427  -1.423   1.902  0.00  0.00    +0.237 C 
ATOM     35  O   UNL     1      -1.636  -1.446   2.003  0.00  0.00    -0.274 OA
ATOM     36  H   UNL     1       1.699  -3.945  -0.639  0.00  0.00    +0.155 HD
ENDBRANCH  20  34
ENDBRANCH   1  20
TORSDOF 7
