REMARK  Name = ZINC67061283
REMARK  8 active torsions:
REMARK  status: ('A' for Active; 'I' for Inactive)
REMARK    1  A    between atoms: C_1  and  N_2
REMARK    2  A    between atoms: N_2  and  C_3
REMARK    3  A    between atoms: N_2  and  C_10
REMARK    4  A    between atoms: C_3  and  C_4
REMARK    5  A    between atoms: C_10  and  C_11
REMARK    6  A    between atoms: N_19  and  C_20
REMARK    7  A    between atoms: C_20  and  C_21
REMARK    8  A    between atoms: C_24  and  N_27
REMARK                            x       y       z     vdW  Elec       q    Type
REMARK                         _______ _______ _______ _____ _____    ______ ____
ROOT
ATOM      1  C   UNL     1      -0.234  -0.200  -2.536  0.00  0.00    -0.025 C 
ATOM      2  C   UNL     1      -0.174   1.297  -2.846  0.00  0.00    +0.021 C 
ATOM      3  C   UNL     1      -1.083   1.605  -4.040  0.00  0.00    +0.109 C 
ATOM      4  N   UNL     1      -0.698   0.740  -5.163  0.00  0.00    -0.286 N 
ATOM      5  C   UNL     1      -0.636  -0.713  -4.948  0.00  0.00    +0.109 C 
ATOM      6  C   UNL     1       0.269  -0.994  -3.744  0.00  0.00    +0.021 C 
ATOM      7  C   UNL     1      -0.408   1.268  -6.368  0.00  0.00    +0.302 C 
ATOM      8  O   UNL     1      -0.549   2.461  -6.559  0.00  0.00    -0.253 OA
ATOM      9  N   UNL     1       0.039   0.475  -7.362  0.00  0.00    -0.295 N 
ATOM     10  H   UNL     1       0.087  -0.485  -7.232  0.00  0.00    +0.151 HD
ENDROOT
BRANCH   1  11
ATOM     11  C   UNL     1       0.646  -0.506  -1.323  0.00  0.00    -0.075 C 
BRANCH  11  13
ATOM     12  C   UNL     1      -0.835  -2.214  -0.520  0.00  0.00    -0.096 C 
ATOM     13  N   UNL     1       0.531  -1.930  -0.980  0.00  0.00    +0.381 N 
ATOM     14  H   UNL     1       0.735  -2.489  -1.794  0.00  0.00    -0.082 HD
BRANCH  13  15
ATOM     15  C   UNL     1       1.485  -2.255   0.089  0.00  0.00    -0.043 C 
BRANCH  15  16
ATOM     16  C   UNL     1       1.454  -3.738   0.356  0.00  0.00    -0.064 A 
ATOM     17  C   UNL     1       0.577  -4.254   1.291  0.00  0.00    +0.002 A 
ATOM     18  C   UNL     1       0.548  -5.614   1.536  0.00  0.00    +0.000 A 
ATOM     19  C   UNL     1       1.397  -6.458   0.845  0.00  0.00    +0.000 A 
ATOM     20  C   UNL     1       2.274  -5.942  -0.091  0.00  0.00    +0.000 A 
ATOM     21  C   UNL     1       2.300  -4.582  -0.339  0.00  0.00    +0.002 A 
ENDBRANCH  15  16
ENDBRANCH  13  15
ENDBRANCH  11  13
ENDBRANCH   1  11
BRANCH   9  22
ATOM     22  C   UNL     1       0.452   1.062  -8.639  0.00  0.00    +0.141 C 
BRANCH  22  23
ATOM     23  C   UNL     1       0.907  -0.031  -9.571  0.00  0.00    -0.030 A 
ATOM     24  C   UNL     1       2.232  -0.424  -9.582  0.00  0.00    +0.007 A 
ATOM     25  C   UNL     1       2.649  -1.427 -10.437  0.00  0.00    +0.033 A 
ATOM     26  C   UNL     1       1.740  -2.037 -11.282  0.00  0.00    +0.126 A 
ATOM     27  C   UNL     1       0.415  -1.644 -11.271  0.00  0.00    +0.033 A 
ATOM     28  C   UNL     1      -0.003  -0.644 -10.412  0.00  0.00    +0.007 A 
BRANCH  26  29
ATOM     29  N   UNL     1       2.187  -3.110 -12.198  0.00  0.00    +0.056 N 
ATOM     30  O   UNL     1       3.346  -3.453 -12.208  0.00  0.00    -0.126 OA
ATOM     31  O   UNL     1       1.392  -3.643 -12.937  0.00  0.00    -0.126 OA
ENDBRANCH  26  29
ENDBRANCH  22  23
ENDBRANCH   9  22
TORSDOF 7
