REMARK  Name = ZINC64411232
REMARK  7 active torsions:
REMARK  status: ('A' for Active; 'I' for Inactive)
REMARK    1  A    between atoms: C_1  and  C_2
REMARK    2  A    between atoms: C_2  and  O_3
REMARK    3  A    between atoms: O_3  and  C_4
REMARK    4  A    between atoms: C_4  and  C_6
REMARK    5  A    between atoms: C_6  and  C_7
REMARK    6  A    between atoms: C_13  and  C_15
REMARK    7  A    between atoms: C_18  and  C_20
REMARK                            x       y       z     vdW  Elec       q    Type
REMARK                         _______ _______ _______ _____ _____    ______ ____
ROOT
ATOM      1  C   UNL     1       1.450  -3.859  -2.489  0.00  0.00    +0.061 A 
ATOM      2  C   UNL     1       0.947  -4.602  -3.506  0.00  0.00    +0.072 A 
ATOM      3  S   UNL     1       1.197  -6.251  -2.868  0.00  0.00    -0.060 S 
ATOM      4  C   UNL     1       1.902  -5.828  -1.399  0.00  0.00    +0.165 A 
ATOM      5  N   UNL     1       1.927  -4.513  -1.447  0.00  0.00    -0.229 NA
ATOM      6  N   UNL     1       2.354  -6.664  -0.386  0.00  0.00    -0.259 N 
ATOM      7  C   UNL     1       2.250  -8.001  -0.519  0.00  0.00    +0.269 C 
ATOM      8  O   UNL     1       1.761  -8.476  -1.526  0.00  0.00    -0.268 OA
ATOM      9  H   UNL     1       2.744  -6.285   0.417  0.00  0.00    +0.157 HD
ENDROOT
BRANCH   7  10
ATOM     10  C   UNL     1       2.729  -8.887   0.555  0.00  0.00    +0.133 A 
ATOM     11  C   UNL     1       2.649 -10.251   0.460  0.00  0.00    +0.080 A 
ATOM     12  S   UNL     1       3.317 -10.755   1.916  0.00  0.00    -0.077 S 
ATOM     13  C   UNL     1       3.670  -9.257   2.586  0.00  0.00    +0.105 A 
ATOM     14  N   UNL     1       3.273  -8.407   1.678  0.00  0.00    -0.237 NA
BRANCH  13  15
ATOM     15  C   UNL     1       4.303  -8.961   3.922  0.00  0.00    +0.159 C 
ATOM     16  C   UNL     1       5.775  -9.308   3.889  0.00  0.00    +0.014 C 
ATOM     17  C   UNL     1       5.956 -10.262   4.830  0.00  0.00    -0.004 A 
ATOM     18  C   UNL     1       7.141 -11.002   5.280  0.00  0.00    +0.010 A 
ATOM     19  C   UNL     1       7.007 -11.919   6.265  0.00  0.00    +0.001 A 
ATOM     20  C   UNL     1       5.768 -12.180   6.865  0.00  0.00    +0.002 A 
ATOM     21  C   UNL     1       4.634 -11.541   6.505  0.00  0.00    +0.026 A 
ATOM     22  C   UNL     1       4.659 -10.557   5.479  0.00  0.00    +0.043 A 
ATOM     23  N   UNL     1       3.711  -9.812   4.961  0.00  0.00    -0.372 N 
ATOM     24  H   UNL     1       2.776  -9.821   5.220  0.00  0.00    +0.161 HD
ENDBRANCH  13  15
ENDBRANCH   7  10
BRANCH   1  25
ATOM     25  C   UNL     1       1.468  -2.353  -2.550  0.00  0.00    +0.176 C 
BRANCH  25  26
ATOM     26  C   UNL     1       0.775  -1.794  -1.334  0.00  0.00    +0.313 C 
ATOM     27  O   UNL     1       0.314  -2.540  -0.504  0.00  0.00    -0.250 OA
BRANCH  26  28
ATOM     28  O   UNL     1       0.671  -0.465  -1.174  0.00  0.00    -0.465 OA
BRANCH  28  30
ATOM     29  C   UNL     1      -0.019   1.526   0.010  0.00  0.00    +0.048 C 
ATOM     30  C   UNL     1       0.002  -0.004   0.002  0.00  0.00    +0.229 C 
ENDBRANCH  28  30
ENDBRANCH  26  28
ENDBRANCH  25  26
ENDBRANCH   1  25
TORSDOF 6
