REMARK  Name = ZINC41301999
REMARK  8 active torsions:
REMARK  status: ('A' for Active; 'I' for Inactive)
REMARK    1  A    between atoms: C_1  and  C_2
REMARK    2  A    between atoms: C_2  and  C_4
REMARK    3  A    between atoms: C_2  and  O_28
REMARK    4  A    between atoms: C_4  and  N_5
REMARK    5  A    between atoms: C_9  and  N_24
REMARK    6  A    between atoms: C_10  and  N_12
REMARK    7  A    between atoms: N_12  and  C_13
REMARK    8  A    between atoms: C_14  and  C_21
REMARK                            x       y       z     vdW  Elec       q    Type
REMARK                         _______ _______ _______ _____ _____    ______ ____
ROOT
ATOM      1  N   UNL     1       0.866  -1.969   1.174  0.00  0.00    -0.311 N 
ATOM      2  C   UNL     1       1.504  -2.657   2.191  0.00  0.00    +0.219 A 
ATOM      3  N   UNL     1       1.991  -1.981   3.221  0.00  0.00    -0.197 NA
ATOM      4  C   UNL     1       2.610  -2.609   4.218  0.00  0.00    +0.154 A 
ATOM      5  C   UNL     1       2.741  -3.994   4.168  0.00  0.00    +0.205 A 
ATOM      6  C   UNL     1       2.217  -4.670   3.070  0.00  0.00    +0.161 A 
ATOM      7  N   UNL     1       1.607  -3.975   2.113  0.00  0.00    -0.197 NA
ATOM      8  N   UNL     1       3.116  -1.893   5.292  0.00  0.00    -0.341 N 
ATOM      9  H   UNL     1       0.502  -2.452   0.416  0.00  0.00    +0.149 HD
ATOM     10  H   UNL     1       3.021  -0.929   5.320  0.00  0.00    +0.144 HD
ATOM     11  H   UNL     1       3.566  -2.358   6.015  0.00  0.00    +0.144 HD
ENDROOT
BRANCH   5  12
ATOM     12  N   UNL     1       3.423  -4.730   5.256  0.00  0.00    +0.063 N 
ATOM     13  O   UNL     1       2.789  -5.136   6.202  0.00  0.00    -0.126 OA
ATOM     14  O   UNL     1       4.615  -4.926   5.199  0.00  0.00    -0.126 OA
ENDBRANCH   5  12
BRANCH   6  15
ATOM     15  N   UNL     1       2.326  -6.050   2.977  0.00  0.00    -0.291 N 
ATOM     16  H   UNL     1       2.769  -6.550   3.680  0.00  0.00    +0.154 HD
BRANCH  15  17
ATOM     17  C   UNL     1       1.801  -6.713   1.881  0.00  0.00    +0.084 A 
ATOM     18  C   UNL     1       1.811  -8.073   1.625  0.00  0.00    +0.068 A 
ATOM     19  C   UNL     1       1.184  -8.524   0.383  0.00  0.00    -0.023 A 
ATOM     20  C   UNL     1       0.669  -7.531  -0.364  0.00  0.00    -0.004 A 
ATOM     21  S   UNL     1       1.001  -6.054   0.563  0.00  0.00    -0.077 S 
ATOM     22  C   UNL     1       0.041  -8.049  -1.629  0.00  0.00    +0.043 C 
ATOM     23  C   UNL     1       0.607  -9.477  -1.790  0.00  0.00    +0.010 C 
ATOM     24  C   UNL     1       0.936  -9.851  -0.331  0.00  0.00    +0.037 C 
BRANCH  18  25
ATOM     25  C   UNL     1       2.425  -9.021   2.558  0.00  0.00    +0.244 C 
ATOM     26  O   UNL     1       1.758  -9.517   3.447  0.00  0.00    -0.270 OA
ATOM     27  N   UNL     1       3.727  -9.344   2.430  0.00  0.00    -0.325 N 
ATOM     28  H   UNL     1       4.258  -8.949   1.721  0.00  0.00    +0.145 HD
ATOM     29  H   UNL     1       4.133  -9.972   3.048  0.00  0.00    +0.145 HD
ENDBRANCH  18  25
ENDBRANCH  15  17
ENDBRANCH   6  15
BRANCH   1  30
ATOM     30  C   UNL     1       0.742  -0.511   1.242  0.00  0.00    +0.135 C 
BRANCH  30  32
ATOM     31  C   UNL     1      -0.019   1.526   0.010  0.00  0.00    +0.039 C 
ATOM     32  C   UNL     1       0.002  -0.004   0.002  0.00  0.00    +0.128 C 
BRANCH  32  33
ATOM     33  O   UNL     1      -1.339  -0.499   0.012  0.00  0.00    -0.391 OA
ATOM     34  H   UNL     1      -1.853  -0.225   0.784  0.00  0.00    +0.210 HD
ENDBRANCH  32  33
ENDBRANCH  30  32
ENDBRANCH   1  30
TORSDOF 7
