REMARK  Name = ZINC03956966
REMARK  6 active torsions:
REMARK  status: ('A' for Active; 'I' for Inactive)
REMARK    1  A    between atoms: C_1  and  C_2
REMARK    2  A    between atoms: C_2  and  C_3
REMARK    3  A    between atoms: C_3  and  C_4
REMARK    4  A    between atoms: C_4  and  C_5
REMARK    5  A    between atoms: C_5  and  N_23
REMARK    6  A    between atoms: N_14  and  C_17
REMARK                            x       y       z     vdW  Elec       q    Type
REMARK                         _______ _______ _______ _____ _____    ______ ____
ROOT
ATOM      1  C   UNL     1      -1.238   1.928   0.710  0.00  0.00    +0.258 C 
ATOM      2  C   UNL     1      -1.060   3.435   0.725  0.00  0.00    +0.206 C 
ATOM      3  O   UNL     1      -1.744   4.150   1.426  0.00  0.00    -0.289 OA
ATOM      4  C   UNL     1      -0.019   3.989  -0.157  0.00  0.00    +0.042 A 
ATOM      5  C   UNL     1      -0.102   5.290  -0.651  0.00  0.00    +0.013 A 
ATOM      6  C   UNL     1       0.905   5.776  -1.458  0.00  0.00    +0.001 A 
ATOM      7  C   UNL     1       1.995   4.978  -1.772  0.00  0.00    +0.002 A 
ATOM      8  C   UNL     1       2.086   3.687  -1.292  0.00  0.00    +0.024 A 
ATOM      9  C   UNL     1       1.078   3.173  -0.488  0.00  0.00    +0.052 A 
ATOM     10  N   UNL     1       1.149   1.876   0.001  0.00  0.00    -0.237 N 
ATOM     11  C   UNL     1       0.123   1.286   0.633  0.00  0.00    +0.265 C 
ATOM     12  O   UNL     1       0.296   0.204   1.153  0.00  0.00    -0.272 OA
ENDROOT
BRANCH  10  13
ATOM     13  C   UNL     1       2.337   1.155  -0.171  0.00  0.00    +0.041 A 
ATOM     14  C   UNL     1       2.492   0.322  -1.271  0.00  0.00    +0.024 A 
ATOM     15  C   UNL     1       3.667  -0.384  -1.441  0.00  0.00    +0.002 A 
ATOM     16  C   UNL     1       4.684  -0.269  -0.511  0.00  0.00    +0.000 A 
ATOM     17  C   UNL     1       4.531   0.556   0.588  0.00  0.00    +0.002 A 
ATOM     18  C   UNL     1       3.361   1.268   0.760  0.00  0.00    +0.024 A 
ENDBRANCH  10  13
BRANCH   1  19
ATOM     19  N   UNL     1      -1.914   1.502   1.938  0.00  0.00    +0.045 N 
ATOM     20  O   UNL     1      -1.415   1.744   3.023  0.00  0.00    -0.130 OA
ATOM     21  O   UNL     1      -2.974   0.906   1.875  0.00  0.00    -0.130 OA
ENDBRANCH   1  19
BRANCH   1  22
ATOM     22  C   UNL     1      -2.069   1.516  -0.507  0.00  0.00    +0.053 C 
BRANCH  22  23
ATOM     23  C   UNL     1      -3.451   2.168  -0.426  0.00  0.00    +0.003 C 
BRANCH  23  25
ATOM     24  C   UNL     1      -5.663   2.409  -1.561  0.00  0.00    +0.004 C 
ATOM     25  C   UNL     1      -4.282   1.756  -1.643  0.00  0.00    -0.003 C 
ENDBRANCH  23  25
ENDBRANCH  22  23
ENDBRANCH   1  22
TORSDOF 5
