REMARK  Name = ZINC20272483
REMARK  11 active torsions:
REMARK  status: ('A' for Active; 'I' for Inactive)
REMARK    1  A    between atoms: C_1  and  C_2
REMARK    2  A    between atoms: C_2  and  C_3
REMARK    3  A    between atoms: C_3  and  C_4
REMARK    4  A    between atoms: C_5  and  C_22
REMARK    5  A    between atoms: C_9  and  C_21
REMARK    6  A    between atoms: N_10  and  C_11
REMARK    7  A    between atoms: C_11  and  C_12
REMARK    8  A    between atoms: N_24  and  C_25
REMARK    9  A    between atoms: C_25  and  C_26
REMARK   10  A    between atoms: N_31  and  C_32
REMARK   11  A    between atoms: C_32  and  C_33
REMARK                            x       y       z     vdW  Elec       q    Type
REMARK                         _______ _______ _______ _____ _____    ______ ____
ROOT
ATOM      1  C   UNL     1      -0.479   1.130   2.636  0.00  0.00    +0.035 A 
ATOM      2  C   UNL     1      -0.435  -0.107   3.246  0.00  0.00    +0.103 A 
ATOM      3  C   UNL     1       0.795  -0.489   3.956  0.00  0.00    +0.194 A 
ATOM      4  O   UNL     1       0.891  -1.571   4.514  0.00  0.00    -0.287 OA
ATOM      5  C   UNL     1       1.866   0.439   3.972  0.00  0.00    +0.072 A 
ATOM      6  C   UNL     1       1.723   1.624   3.344  0.00  0.00    +0.020 A 
ATOM      7  N   UNL     1       0.581   1.953   2.691  0.00  0.00    -0.343 N 
ATOM      8  C   UNL     1       2.865   2.606   3.364  0.00  0.00    +0.063 C 
ENDROOT
BRANCH   2   9
ATOM      9  C   UNL     1      -1.589  -1.020   3.189  0.00  0.00    +0.249 C 
ATOM     10  O   UNL     1      -1.687  -1.821   2.278  0.00  0.00    -0.270 OA
ATOM     11  N   UNL     1      -2.538  -0.968   4.145  0.00  0.00    -0.313 N 
ATOM     12  H   UNL     1      -2.450  -0.244   4.968  0.00  0.00    +0.149 HD
BRANCH  11  13
ATOM     13  C   UNL     1      -3.686  -1.877   4.087  0.00  0.00    +0.089 C 
BRANCH  13  14
ATOM     14  C   UNL     1      -4.665  -1.533   5.212  0.00  0.00    -0.051 C 
ATOM     15  C   UNL     1      -4.024  -1.813   6.588  0.00  0.00    -0.016 C 
ATOM     16  C   UNL     1      -5.171  -2.366   7.459  0.00  0.00    -0.020 C 
ATOM     17  C   UNL     1      -6.408  -2.374   6.535  0.00  0.00    -0.078 C 
ATOM     18  N   UNL     1      -5.850  -2.427   5.158  0.00  0.00    +0.382 N 
ATOM     19  H   UNL     1      -5.599  -3.450   4.840  0.00  0.00    -0.081 HD
BRANCH  18  20
ATOM     20  C   UNL     1      -6.828  -1.948   4.172  0.00  0.00    -0.082 C 
ATOM     21  C   UNL     1      -7.951  -2.976   4.026  0.00  0.00    -0.017 C 
ENDBRANCH  18  20
ENDBRANCH  13  14
ENDBRANCH  11  13
ENDBRANCH   2   9
BRANCH   1  22
ATOM     22  C   UNL     1      -1.722   1.558   1.899  0.00  0.00    +0.054 C 
BRANCH  22  24
ATOM     23  C   UNL     1      -2.900   1.527  -0.304  0.00  0.00    +0.004 C 
ATOM     24  C   UNL     1      -1.638   1.092   0.444  0.00  0.00    +0.003 C 
ENDBRANCH  22  24
ENDBRANCH   1  22
BRANCH   7  25
ATOM     25  C   UNL     1       0.499   3.256   2.026  0.00  0.00    +0.157 C 
BRANCH  25  26
ATOM     26  C   UNL     1      -0.180   4.244   2.939  0.00  0.00    -0.024 A 
ATOM     27  C   UNL     1       0.511   4.784   4.008  0.00  0.00    +0.009 A 
ATOM     28  C   UNL     1      -0.107   5.690   4.848  0.00  0.00    +0.050 A 
ATOM     29  C   UNL     1      -1.423   6.060   4.621  0.00  0.00    +0.166 A 
ATOM     30  C   UNL     1      -2.119   5.517   3.544  0.00  0.00    +0.167 A 
ATOM     31  C   UNL     1      -1.491   4.612   2.703  0.00  0.00    +0.055 A 
ATOM     32  O   UNL     1      -3.382   6.035   3.535  0.00  0.00    -0.453 OA
ATOM     33  C   UNL     1      -3.323   7.206   4.371  0.00  0.00    +0.466 C 
ATOM     34  O   UNL     1      -2.249   6.919   5.286  0.00  0.00    -0.453 OA
ENDBRANCH  25  26
ENDBRANCH   7  25
TORSDOF 8
