REMARK  Name = ZINC20083114
REMARK  12 active torsions:
REMARK  status: ('A' for Active; 'I' for Inactive)
REMARK    1  A    between atoms: C_1  and  C_2
REMARK    2  A    between atoms: C_4  and  C_39
REMARK    3  A    between atoms: C_9  and  C_14
REMARK    4  A    between atoms: C_14  and  C_16
REMARK    5  A    between atoms: C_14  and  N_25
REMARK    6  A    between atoms: N_20  and  C_21
REMARK    7  A    between atoms: C_21  and  C_22
REMARK    8  A    between atoms: C_22  and  O_23
REMARK    9  A    between atoms: O_23  and  C_24
REMARK   10  A    between atoms: N_28  and  C_31
REMARK   11  A    between atoms: C_34  and  O_37
REMARK   12  A    between atoms: O_37  and  C_38
REMARK                            x       y       z     vdW  Elec       q    Type
REMARK                         _______ _______ _______ _____ _____    ______ ____
ROOT
ATOM      1  C   UNL     1       1.383   3.500  -0.069  0.00  0.00    +0.162 C 
ENDROOT
BRANCH   1  10
ATOM      2  C   UNL     1       7.123   7.637  -2.426  0.00  0.00    +0.044 C 
ATOM      3  C   UNL     1       6.525   6.649  -1.457  0.00  0.00    -0.050 A 
ATOM      4  C   UNL     1       7.295   6.158  -0.412  0.00  0.00    +0.008 A 
ATOM      5  C   UNL     1       6.769   5.254   0.485  0.00  0.00    -0.026 A 
ATOM      6  C   UNL     1       5.452   4.829   0.344  0.00  0.00    +0.052 A 
ATOM      7  C   UNL     1       4.674   5.329  -0.716  0.00  0.00    -0.001 A 
ATOM      8  C   UNL     1       5.229   6.246  -1.615  0.00  0.00    +0.013 A 
ATOM      9  C   UNL     1       3.289   4.876  -0.856  0.00  0.00    +0.021 A 
ATOM     10  C   UNL     1       2.804   3.987   0.046  0.00  0.00    +0.042 A 
ATOM     11  C   UNL     1       3.625   3.520   1.095  0.00  0.00    +0.254 A 
ATOM     12  O   UNL     1       3.168   2.724   1.898  0.00  0.00    -0.268 OA
ATOM     13  N   UNL     1       4.900   3.926   1.228  0.00  0.00    -0.322 N 
ATOM     14  H   UNL     1       5.504   3.528   2.057  0.00  0.00    +0.169 HD
ATOM     15  C   UNL     1       7.617   4.729   1.615  0.00  0.00    +0.046 C 
ENDBRANCH   1  10
BRANCH   1  16
ATOM     16  N   UNL     1       1.368   2.031  -0.083  0.00  0.00    -0.286 NA
ATOM     17  C   UNL     1       2.094   1.508  -1.250  0.00  0.00    +0.104 C 
ATOM     18  C   UNL     1       2.124  -0.020  -1.186  0.00  0.00    +0.120 C 
ATOM     19  N   UNL     1       0.747  -0.534  -1.153  0.00  0.00    -0.327 N 
ATOM     20  C   UNL     1       0.021  -0.011   0.013  0.00  0.00    +0.120 C 
ATOM     21  C   UNL     1      -0.008   1.518  -0.051  0.00  0.00    +0.104 C 
BRANCH  19  22
ATOM     22  C   UNL     1       0.733  -1.933  -1.167  0.00  0.00    +0.030 A 
ATOM     23  C   UNL     1       1.928  -2.639  -1.213  0.00  0.00    +0.027 A 
ATOM     24  C   UNL     1       1.913  -4.020  -1.221  0.00  0.00    +0.047 A 
ATOM     25  C   UNL     1       0.706  -4.702  -1.195  0.00  0.00    +0.120 A 
ATOM     26  C   UNL     1      -0.488  -3.997  -1.155  0.00  0.00    +0.047 A 
ATOM     27  C   UNL     1      -0.475  -2.616  -1.141  0.00  0.00    +0.027 A 
BRANCH  25  28
ATOM     28  O   UNL     1       0.692  -6.061  -1.209  0.00  0.00    -0.495 OA
ATOM     29  C   UNL     1       1.958  -6.722  -1.252  0.00  0.00    +0.277 C 
ENDBRANCH  25  28
ENDBRANCH  19  22
ENDBRANCH   1  16
BRANCH   1  30
ATOM     30  C   UNL     1       0.585   3.998   1.108  0.00  0.00    +0.173 A 
ATOM     31  N   UNL     1       0.636   3.545   2.337  0.00  0.00    -0.111 NA
ATOM     32  N   UNL     1      -0.193   4.229   3.048  0.00  0.00    -0.023 NA
ATOM     33  N   UNL     1      -0.772   5.106   2.305  0.00  0.00    -0.044 NA
ATOM     34  N   UNL     1      -0.316   4.999   1.103  0.00  0.00    -0.225 N 
BRANCH  34  35
ATOM     35  C   UNL     1      -0.707   5.811  -0.052  0.00  0.00    +0.175 C 
BRANCH  35  36
ATOM     36  C   UNL     1      -1.889   5.151  -0.764  0.00  0.00    +0.183 C 
BRANCH  36  37
ATOM     37  O   UNL     1      -2.270   5.943  -1.890  0.00  0.00    -0.381 OA
ATOM     38  C   UNL     1      -3.372   5.412  -2.628  0.00  0.00    +0.194 C 
ENDBRANCH  36  37
ENDBRANCH  35  36
ENDBRANCH  34  35
ENDBRANCH   1  30
TORSDOF 8
