REMARK  Name = ZINC08816901
REMARK  11 active torsions:
REMARK  status: ('A' for Active; 'I' for Inactive)
REMARK    1  A    between atoms: C_1  and  C_2
REMARK    2  A    between atoms: C_2  and  C_3
REMARK    3  A    between atoms: C_3  and  C_4
REMARK    4  A    between atoms: C_4  and  C_5
REMARK    5  A    between atoms: C_5  and  O_6
REMARK    6  A    between atoms: O_6  and  C_7
REMARK    7  A    between atoms: C_7  and  C_9
REMARK    8  A    between atoms: C_9  and  S_10
REMARK    9  A    between atoms: S_10  and  C_11
REMARK   10  A    between atoms: C_28  and  C_30
REMARK   11  A    between atoms: C_28  and  C_31
REMARK                            x       y       z     vdW  Elec       q    Type
REMARK                         _______ _______ _______ _____ _____    ______ ____
ROOT
ATOM      1  C   UNL     1      -5.186   6.661   6.324  0.00  0.00    +0.115 A 
ATOM      2  C   UNL     1      -4.405   6.015   5.375  0.00  0.00    +0.072 A 
ATOM      3  C   UNL     1      -3.371   5.152   5.759  0.00  0.00    +0.092 A 
ATOM      4  C   UNL     1      -2.613   4.525   4.660  0.00  0.00    +0.035 A 
ATOM      5  C   UNL     1      -1.528   3.620   4.766  0.00  0.00    -0.024 A 
ATOM      6  C   UNL     1      -0.949   3.132   3.637  0.00  0.00    +0.020 A 
ATOM      7  C   UNL     1      -1.417   3.539   2.382  0.00  0.00    +0.105 A 
ATOM      8  C   UNL     1      -3.018   4.869   3.360  0.00  0.00    +0.089 A 
ATOM      9  S   UNL     1      -4.371   5.994   3.604  0.00  0.00    -0.066 S 
ATOM     10  N   UNL     1      -0.817   3.048   1.230  0.00  0.00    -0.312 N 
ATOM     11  C   UNL     1      -1.514   1.848   0.745  0.00  0.00    +0.134 C 
ATOM     12  C   UNL     1      -0.786   1.306  -0.489  0.00  0.00    +0.178 C 
ATOM     13  O   UNL     1      -0.715   2.332  -1.483  0.00  0.00    -0.377 OA
ATOM     14  C   UNL     1      -0.042   3.514  -1.044  0.00  0.00    +0.178 C 
ATOM     15  C   UNL     1      -0.762   4.079   0.184  0.00  0.00    +0.134 C 
ATOM     16  C   UNL     1       0.203   2.162   3.699  0.00  0.00    +0.199 C 
ATOM     17  O   UNL     1       0.777   2.159   5.005  0.00  0.00    -0.369 OA
ATOM     18  C   UNL     1      -0.189   1.967   6.045  0.00  0.00    +0.068 C 
ATOM     19  C   UNL     1      -1.054   3.226   6.139  0.00  0.00    +0.070 C 
ATOM     20  C   UNL     1       0.528   1.734   7.377  0.00  0.00    +0.041 C 
ATOM     21  C   UNL     1      -1.069   0.761   5.714  0.00  0.00    +0.041 C 
ATOM     22  N   UNL     1      -3.192   4.997   7.090  0.00  0.00    -0.234 NA
ATOM     23  C   UNL     1      -3.947   5.622   7.958  0.00  0.00    +0.223 A 
ATOM     24  N   UNL     1      -4.926   6.438   7.613  0.00  0.00    -0.228 NA
ATOM     25  N   UNL     1      -2.454   4.406   2.217  0.00  0.00    -0.337 N 
ATOM     26  H   UNL     1      -2.788   4.690   1.288  0.00  0.00    +0.168 HD
ENDROOT
BRANCH   1  27
ATOM     27  S   UNL     1      -6.485   7.746   5.838  0.00  0.00    -0.093 S 
BRANCH  27  28
ATOM     28  C   UNL     1      -7.099   8.249   7.465  0.00  0.00    +0.196 C 
BRANCH  28  29
ATOM     29  C   UNL     1      -8.249   9.208   7.293  0.00  0.00    +0.317 C 
ATOM     30  O   UNL     1      -8.616   9.520   6.184  0.00  0.00    -0.250 OA
BRANCH  29  31
ATOM     31  O   UNL     1      -8.866   9.717   8.371  0.00  0.00    -0.464 OA
BRANCH  31  32
ATOM     32  C   UNL     1      -9.966  10.634   8.131  0.00  0.00    +0.232 C 
BRANCH  32  33
ATOM     33  C   UNL     1     -10.539  11.105   9.469  0.00  0.00    +0.041 C 
BRANCH  33  34
ATOM     34  C   UNL     1     -11.697  12.072   9.215  0.00  0.00    +0.003 C 
BRANCH  34  36
ATOM     35  C   UNL     1     -13.430  13.509  10.300  0.00  0.00    +0.004 C 
ATOM     36  C   UNL     1     -12.271  12.542  10.553  0.00  0.00    -0.003 C 
ENDBRANCH  34  36
ENDBRANCH  33  34
ENDBRANCH  32  33
ENDBRANCH  31  32
ENDBRANCH  29  31
ENDBRANCH  28  29
ENDBRANCH  27  28
ENDBRANCH   1  27
TORSDOF 8
