REMARK  Name = ZINC12079542
REMARK  9 active torsions:
REMARK  status: ('A' for Active; 'I' for Inactive)
REMARK    1  A    between atoms: C_1  and  C_2
REMARK    2  A    between atoms: C_2  and  N_3
REMARK    3  A    between atoms: C_7  and  C_14
REMARK    4  A    between atoms: C_9  and  N_10
REMARK    5  A    between atoms: C_11  and  C_13
REMARK    6  A    between atoms: N_16  and  C_17
REMARK    7  A    between atoms: C_17  and  C_18
REMARK    8  A    between atoms: C_21  and  C_23
REMARK    9  A    between atoms: C_25  and  C_26
REMARK                            x       y       z     vdW  Elec       q    Type
REMARK                         _______ _______ _______ _____ _____    ______ ____
ROOT
ATOM      1  N   UNL     1       2.518   5.287  -0.054  0.00  0.00    -0.322 N 
ATOM      2  C   UNL     1       3.867   5.573  -0.028  0.00  0.00    +0.091 A 
ATOM      3  C   UNL     1       4.528   4.340   0.109  0.00  0.00    +0.092 A 
ATOM      4  C   UNL     1       5.923   4.306   0.160  0.00  0.00    +0.043 A 
ATOM      5  C   UNL     1       6.646   5.490   0.074  0.00  0.00    +0.041 A 
ATOM      6  C   UNL     1       5.981   6.716  -0.062  0.00  0.00    +0.038 A 
ATOM      7  C   UNL     1       4.602   6.757  -0.113  0.00  0.00    +0.060 A 
ATOM      8  N   UNL     1       3.573   3.378   0.165  0.00  0.00    -0.227 NA
ATOM      9  C   UNL     1       2.388   3.930   0.073  0.00  0.00    +0.145 A 
ENDROOT
BRANCH   9  10
ATOM     10  C   UNL     1       1.105   3.196   0.097  0.00  0.00    +0.053 A 
ATOM     11  C   UNL     1       0.135   3.449  -0.875  0.00  0.00    +0.014 A 
ATOM     12  C   UNL     1      -1.060   2.762  -0.847  0.00  0.00    +0.001 A 
ATOM     13  C   UNL     1      -1.304   1.827   0.145  0.00  0.00    +0.003 A 
ATOM     14  C   UNL     1      -0.347   1.567   1.108  0.00  0.00    +0.039 A 
ATOM     15  C   UNL     1       0.856   2.248   1.093  0.00  0.00    +0.134 A 
ATOM     16  F   UNL     1       1.789   1.997   2.038  0.00  0.00    -0.205 F 
ENDBRANCH   9  10
BRANCH   7  17
ATOM     17  N   UNL     1       3.942   7.984  -0.248  0.00  0.00    -0.284 N 
ATOM     18  C   UNL     1       4.497   8.971  -0.980  0.00  0.00    +0.214 C 
ATOM     19  O   UNL     1       5.605   8.826  -1.451  0.00  0.00    -0.276 OA
ATOM     20  C   UNL     1       3.740  10.253  -1.214  0.00  0.00    +0.109 C 
ATOM     21  H   UNL     1       3.085   8.125   0.184  0.00  0.00    +0.155 HD
ENDBRANCH   7  17
BRANCH   5  22
ATOM     22  C   UNL     1       8.122   5.457   0.127  0.00  0.00    +0.245 C 
ATOM     23  O   UNL     1       8.757   6.491   0.053  0.00  0.00    -0.270 OA
ATOM     24  N   UNL     1       8.765   4.279   0.258  0.00  0.00    -0.304 N 
ATOM     25  H   UNL     1       8.258   3.454   0.317  0.00  0.00    +0.149 HD
BRANCH  24  26
ATOM     26  C   UNL     1      10.228   4.245   0.310  0.00  0.00    +0.179 C 
BRANCH  26  27
ATOM     27  C   UNL     1      10.693   2.819   0.458  0.00  0.00    +0.122 A 
ATOM     28  C   UNL     1      10.972   1.975  -0.551  0.00  0.00    +0.046 A 
ATOM     29  C   UNL     1      11.369   0.751   0.037  0.00  0.00    +0.045 A 
ATOM     30  C   UNL     1      11.309   0.922   1.370  0.00  0.00    +0.102 A 
ATOM     31  O   UNL     1      10.904   2.178   1.619  0.00  0.00    -0.463 OA
ATOM     32  C   UNL     1      11.644  -0.118   2.407  0.00  0.00    +0.086 C 
ENDBRANCH  26  27
ENDBRANCH  24  26
ENDBRANCH   5  22
BRANCH   1  34
ATOM     33  C   UNL     1       1.069   6.816   1.189  0.00  0.00    +0.027 C 
ATOM     34  C   UNL     1       1.426   6.254  -0.188  0.00  0.00    +0.120 C 
ENDBRANCH   1  34
TORSDOF 6
