REMARK  Name = ZINC54091189
REMARK  5 active torsions:
REMARK  status: ('A' for Active; 'I' for Inactive)
REMARK    1  A    between atoms: C_6  and  C_7
REMARK    2  A    between atoms: C_10  and  C_12
REMARK    3  A    between atoms: N_14  and  N_15
REMARK    4  A    between atoms: N_18  and  C_19
REMARK    5  A    between atoms: C_19  and  C_20
REMARK                            x       y       z     vdW  Elec       q    Type
REMARK                         _______ _______ _______ _____ _____    ______ ____
ROOT
ATOM      1  C   UNL     1      -5.231  -1.984   0.041  0.00  0.00    +0.267 C 
ATOM      2  O   UNL     1      -5.637  -3.132   0.043  0.00  0.00    -0.268 OA
ATOM      3  N   UNL     1      -6.106  -0.960   0.048  0.00  0.00    -0.229 N 
ATOM      4  H   UNL     1      -5.783  -0.045   0.047  0.00  0.00    +0.173 HD
ENDROOT
BRANCH   3   5
ATOM      5  N   UNL     1      -7.484  -1.215   0.059  0.00  0.00    -0.218 N 
ATOM      6  C   UNL     1      -8.359  -0.191   0.067  0.00  0.00    +0.316 C 
ATOM      7  O   UNL     1      -9.555  -0.412   0.076  0.00  0.00    -0.251 OA
ATOM      8  N   UNL     1      -7.910   1.080   0.064  0.00  0.00    -0.290 N 
ATOM      9  H   UNL     1      -7.807  -2.130   0.061  0.00  0.00    +0.174 HD
ATOM     10  H   UNL     1      -6.956   1.257   0.057  0.00  0.00    +0.151 HD
BRANCH   8  11
ATOM     11  C   UNL     1      -8.861   2.194   0.073  0.00  0.00    +0.219 C 
BRANCH  11  12
ATOM     12  C   UNL     1      -8.096   3.518   0.068  0.00  0.00    +0.405 C 
ATOM     13  F   UNL     1      -7.301   3.594  -1.080  0.00  0.00    -0.169 F 
ATOM     14  F   UNL     1      -9.005   4.582   0.076  0.00  0.00    -0.169 F 
ATOM     15  F   UNL     1      -7.283   3.591   1.204  0.00  0.00    -0.169 F 
ENDBRANCH  11  12
ENDBRANCH   8  11
ENDBRANCH   3   5
BRANCH   1  19
ATOM     16  C   UNL     1      -1.266  -0.763   0.011  0.00  0.00    +0.020 A 
ATOM     17  C   UNL     1      -1.459  -2.135   0.011  0.00  0.00    +0.017 A 
ATOM     18  C   UNL     1      -2.737  -2.619   0.020  0.00  0.00    +0.021 A 
ATOM     19  C   UNL     1      -3.791  -1.717   0.029  0.00  0.00    +0.076 A 
ATOM     20  S   UNL     1      -2.941  -0.147   0.031  0.00  0.00    -0.084 S 
BRANCH  16  26
ATOM     21  C   UNL     1      -0.017   1.392   0.010  0.00  0.00    +0.012 A 
ATOM     22  C   UNL     1       1.169   2.095   0.002  0.00  0.00    +0.039 A 
ATOM     23  C   UNL     1       2.379   1.419  -0.013  0.00  0.00    +0.123 A 
ATOM     24  C   UNL     1       2.404   0.033  -0.022  0.00  0.00    +0.039 A 
ATOM     25  C   UNL     1       1.223  -0.680  -0.014  0.00  0.00    +0.012 A 
ATOM     26  C   UNL     1       0.002  -0.004   0.002  0.00  0.00    -0.011 A 
ATOM     27  F   UNL     1       3.538   2.112  -0.021  0.00  0.00    -0.205 F 
ENDBRANCH  16  26
ENDBRANCH   1  19
TORSDOF 5
