REMARK  Name = ZINC20680620
REMARK  3 active torsions:
REMARK  status: ('A' for Active; 'I' for Inactive)
REMARK    1  A    between atoms: C_1  and  C_2
REMARK    2  A    between atoms: C_5  and  O_25
REMARK    3  A    between atoms: C_15  and  C_18
REMARK                            x       y       z     vdW  Elec       q    Type
REMARK                         _______ _______ _______ _____ _____    ______ ____
ROOT
ATOM      1  C   UNL     1       3.902   2.389  -3.039  0.00  0.00    +0.044 C 
ATOM      2  C   UNL     1       3.096   1.170  -2.671  0.00  0.00    -0.045 A 
ATOM      3  C   UNL     1       3.273  -0.002  -3.377  0.00  0.00    +0.007 A 
ATOM      4  C   UNL     1       2.538  -1.127  -3.047  0.00  0.00    +0.047 A 
ATOM      5  C   UNL     1       1.626  -1.069  -2.009  0.00  0.00    +0.138 A 
ATOM      6  C   UNL     1       1.446   0.118  -1.293  0.00  0.00    +0.074 A 
ATOM      7  C   UNL     1       2.184   1.240  -1.625  0.00  0.00    -0.013 A 
ATOM      8  C   UNL     1       2.042   2.546  -0.901  0.00  0.00    +0.049 C 
ATOM      9  C   UNL     1       1.333   3.562  -1.766  0.00  0.00    -0.023 C 
ATOM     10  C   UNL     1       0.510   4.282  -1.045  0.00  0.00    -0.030 C 
ATOM     11  C   UNL     1       0.560   3.852   0.408  0.00  0.00    +0.033 C 
ATOM     12  C   UNL     1       1.135   2.409   0.341  0.00  0.00    +0.029 C 
ATOM     13  C   UNL     1      -0.018   1.459   0.010  0.00  0.00    +0.105 C 
ATOM     14  N   UNL     1       0.514   0.121  -0.252  0.00  0.00    -0.334 N 
ATOM     15  H   UNL     1       0.170  -0.735   0.346  0.00  0.00    +0.147 HD
ENDROOT
BRANCH  13  16
ATOM     16  C   UNL     1      -0.746   1.958  -1.211  0.00  0.00    -0.027 A 
ATOM     17  C   UNL     1      -1.681   2.970  -1.092  0.00  0.00    +0.006 A 
ATOM     18  C   UNL     1      -2.346   3.432  -2.213  0.00  0.00    +0.015 A 
ATOM     19  C   UNL     1      -2.083   2.874  -3.451  0.00  0.00    +0.018 A 
ATOM     20  C   UNL     1      -1.152   1.859  -3.569  0.00  0.00    +0.015 A 
ATOM     21  C   UNL     1      -0.484   1.401  -2.449  0.00  0.00    +0.006 A 
ATOM     22 BR   UNL     1      -2.997   3.501  -4.983  0.00  0.00    -0.050 Br
ENDBRANCH  13  16
BRANCH   5  23
ATOM     23  O   UNL     1       0.901  -2.173  -1.683  0.00  0.00    -0.505 OA
ATOM     24  H   UNL     1       0.175  -2.130  -0.857  0.00  0.00    +0.292 HD
ENDBRANCH   5  23
TORSDOF 2
