REMARK  Name = ZINC62556795
REMARK  7 active torsions:
REMARK  status: ('A' for Active; 'I' for Inactive)
REMARK    1  A    between atoms: C_1  and  C_2
REMARK    2  A    between atoms: C_2  and  N_3
REMARK    3  A    between atoms: C_11  and  C_12
REMARK    4  A    between atoms: C_12  and  C_13
REMARK    5  A    between atoms: C_12  and  N_14
REMARK    6  A    between atoms: C_19  and  C_24
REMARK    7  A    between atoms: C_21  and  C_23
REMARK                            x       y       z     vdW  Elec       q    Type
REMARK                         _______ _______ _______ _____ _____    ______ ____
ROOT
ATOM      1  C   UNL     1       3.037  -0.559  -0.228  0.00  0.00    +0.138 C 
ATOM      2  C   UNL     1       3.442  -1.933   0.310  0.00  0.00    +0.036 C 
ENDROOT
BRANCH   1   3
ATOM      3  N   UNL     1       4.219   0.126  -0.758  0.00  0.00    -0.290 N 
ATOM      4  C   UNL     1       5.018   0.828   0.069  0.00  0.00    +0.303 C 
ATOM      5  O   UNL     1       4.710   0.971   1.236  0.00  0.00    -0.253 OA
ATOM      6  N   UNL     1       6.159   1.373  -0.398  0.00  0.00    -0.285 N 
ATOM      7  C   UNL     1       6.488   1.309  -1.829  0.00  0.00    +0.112 C 
ATOM      8  C   UNL     1       7.886   0.701  -1.987  0.00  0.00    +0.004 C 
ATOM      9  C   UNL     1       8.884   1.501  -1.147  0.00  0.00    +0.009 C 
ATOM     10  C   UNL     1       8.488   1.425   0.329  0.00  0.00    +0.004 C 
ATOM     11  C   UNL     1       7.095   2.046   0.512  0.00  0.00    +0.112 C 
ATOM     12  C   UNL     1       9.505   2.198   1.171  0.00  0.00    +0.009 C 
ATOM     13  C   UNL     1       8.301   0.750  -3.459  0.00  0.00    +0.009 C 
ATOM     14  H   UNL     1       4.426   0.073  -1.704  0.00  0.00    +0.151 HD
ENDBRANCH   1   3
BRANCH   1  23
ATOM     15  N   UNL     1       0.689  -0.481  -1.202  0.00  0.00    -0.326 N 
ATOM     16  C   UNL     1       0.104  -0.750  -2.423  0.00  0.00    +0.069 A 
ATOM     17  C   UNL     1      -1.194  -0.683  -2.910  0.00  0.00    +0.028 A 
ATOM     18  C   UNL     1      -1.452  -1.031  -4.218  0.00  0.00    +0.002 A 
ATOM     19  C   UNL     1      -0.423  -1.448  -5.051  0.00  0.00    +0.002 A 
ATOM     20  C   UNL     1       0.860  -1.521  -4.590  0.00  0.00    +0.030 A 
ATOM     21  C   UNL     1       1.146  -1.172  -3.267  0.00  0.00    +0.089 A 
ATOM     22  N   UNL     1       2.287  -1.139  -2.533  0.00  0.00    -0.230 NA
ATOM     23  C   UNL     1       2.020  -0.730  -1.327  0.00  0.00    +0.131 A 
BRANCH  15  25
ATOM     24  C   UNL     1      -0.019   1.520   0.012  0.00  0.00    +0.027 C 
ATOM     25  C   UNL     1       0.003  -0.009   0.004  0.00  0.00    +0.120 C 
ENDBRANCH  15  25
ENDBRANCH   1  23
TORSDOF 3
