REMARK  Name = ZINC04380679
REMARK  12 active torsions:
REMARK  status: ('A' for Active; 'I' for Inactive)
REMARK    1  A    between atoms: C_1  and  C_2
REMARK    2  A    between atoms: C_2  and  C_3
REMARK    3  A    between atoms: C_2  and  C_4
REMARK    4  A    between atoms: C_2  and  C_5
REMARK    5  A    between atoms: C_5  and  C_6
REMARK    6  A    between atoms: N_8  and  C_9
REMARK    7  A    between atoms: N_8  and  C_21
REMARK    8  A    between atoms: C_9  and  C_10
REMARK    9  A    between atoms: C_13  and  O_16
REMARK   10  A    between atoms: O_16  and  S_17
REMARK   11  A    between atoms: S_17  and  C_20
REMARK   12  A    between atoms: C_21  and  C_22
REMARK                            x       y       z     vdW  Elec       q    Type
REMARK                         _______ _______ _______ _____ _____    ______ ____
ROOT
ATOM      1  C   UNL     1       0.022  -0.684   1.165  0.00  0.00    +0.216 C 
ATOM      2  O   UNL     1       0.024  -0.083   2.219  0.00  0.00    -0.276 OA
ATOM      3  N   UNL     1       0.002  -0.004   0.002  0.00  0.00    -0.295 N 
ENDROOT
BRANCH   1   4
ATOM      4  C   UNL     1       0.043  -2.191   1.157  0.00  0.00    +0.102 C 
BRANCH   4   6
ATOM      5  C   UNL     1      -1.186  -2.220   3.333  0.00  0.00    +0.011 C 
ATOM      6  C   UNL     1       0.064  -2.709   2.597  0.00  0.00    -0.029 C 
ATOM      7  C   UNL     1       0.084  -4.239   2.588  0.00  0.00    +0.011 C 
ATOM      8  C   UNL     1       1.312  -2.186   3.309  0.00  0.00    +0.011 C 
ENDBRANCH   4   6
ENDBRANCH   1   4
BRANCH   3   9
ATOM      9  C   UNL     1      -0.018   1.461   0.010  0.00  0.00    +0.143 C 
BRANCH   9  10
ATOM     10  C   UNL     1       1.396   1.982  -0.001  0.00  0.00    -0.030 A 
ATOM     11  C   UNL     1       2.053   2.220   1.192  0.00  0.00    +0.009 A 
ATOM     12  C   UNL     1       3.351   2.693   1.185  0.00  0.00    +0.049 A 
ATOM     13  C   UNL     1       3.991   2.940  -0.020  0.00  0.00    +0.156 A 
ATOM     14  C   UNL     1       3.328   2.706  -1.216  0.00  0.00    +0.049 A 
ATOM     15  C   UNL     1       2.032   2.228  -1.204  0.00  0.00    +0.009 A 
BRANCH  13  16
ATOM     16  O   UNL     1       5.266   3.410  -0.030  0.00  0.00    -0.346 OA
BRANCH  16  17
ATOM     17  S   UNL     1       5.367   4.929  -0.023  0.00  0.00    +0.118 S 
ATOM     18  O   UNL     1       6.734   5.203  -0.297  0.00  0.00    -0.137 OA
ATOM     19  O   UNL     1       4.348   5.363  -0.913  0.00  0.00    -0.137 OA
ATOM     20  C   UNL     1       4.960   5.415   1.677  0.00  0.00    +0.242 C 
ENDBRANCH  16  17
ENDBRANCH  13  16
ENDBRANCH   9  10
ENDBRANCH   3   9
BRANCH   3  21
ATOM     21  C   UNL     1      -0.000  -0.730  -1.271  0.00  0.00    +0.139 C 
BRANCH  21  22
ATOM     22  C   UNL     1       1.441  -0.963  -1.727  0.00  0.00    +0.136 C 
ATOM     23  C   UNL     1       1.463  -1.615  -3.127  0.00  0.00    +0.035 C 
ATOM     24  C   UNL     1       2.651  -2.602  -3.063  0.00  0.00    +0.031 C 
ATOM     25  C   UNL     1       3.206  -2.428  -1.632  0.00  0.00    +0.160 C 
ATOM     26  O   UNL     1       2.094  -1.919  -0.864  0.00  0.00    -0.375 OA
ENDBRANCH  21  22
ENDBRANCH   3  21
TORSDOF 8
