REMARK  Name = ZINC05217225
REMARK  9 active torsions:
REMARK  status: ('A' for Active; 'I' for Inactive)
REMARK    1  A    between atoms: C_1  and  S_2
REMARK    2  A    between atoms: S_2  and  C_3
REMARK    3  A    between atoms: N_10  and  C1*_15
REMARK    4  A    between atoms: C_11  and  S_13
REMARK    5  A    between atoms: S_13  and  C_14
REMARK    6  A    between atoms: C2*_17  and  O2*_27
REMARK    7  A    between atoms: C3*_19  and  O3*_26
REMARK    8  A    between atoms: C4*_21  and  C5*_24
REMARK    9  A    between atoms: C5*_24  and  O5*_25
REMARK                            x       y       z     vdW  Elec       q    Type
REMARK                         _______ _______ _______ _____ _____    ______ ____
ROOT
ATOM      1  C   UNL     1       2.772   3.325   4.401  0.00  0.00    +0.129 A 
ATOM      2  C   UNL     1       2.197   3.372   3.120  0.00  0.00    +0.141 A 
ATOM      3  C   UNL     1       2.245   2.216   2.326  0.00  0.00    +0.169 A 
ATOM      4  N   UNL     1       2.827   1.122   2.809  0.00  0.00    -0.195 NA
ATOM      5  C   UNL     1       3.356   1.120   4.022  0.00  0.00    +0.216 A 
ATOM      6  N   UNL     1       3.334   2.190   4.805  0.00  0.00    -0.206 NA
ATOM      7  N   UNL     1       3.955  -0.040   4.489  0.00  0.00    -0.327 N 
ATOM      8  N   UNL     1       1.619   2.536   1.143  0.00  0.00    -0.274 N 
ATOM      9  C   UNL     1       1.220   3.843   1.232  0.00  0.00    +0.173 A 
ATOM     10  N   UNL     1       1.557   4.330   2.400  0.00  0.00    -0.217 NA
ATOM     11  H   UNL     1       3.980  -0.832   3.929  0.00  0.00    +0.145 HD
ATOM     12  H   UNL     1       4.348  -0.060   5.376  0.00  0.00    +0.145 HD
ENDROOT
BRANCH   8  13
ATOM     13  C1* UNL     1       1.423   1.645  -0.003  0.00  0.00    +0.254 C 
ATOM     14  C2* UNL     1       2.747   1.487  -0.776  0.00  0.00    +0.195 C 
ATOM     15  C3* UNL     1       3.079  -0.020  -0.656  0.00  0.00    +0.178 C 
ATOM     16  C4* UNL     1       2.248  -0.438   0.583  0.00  0.00    +0.177 C 
ATOM     17  O4* UNL     1       1.038   0.338   0.455  0.00  0.00    -0.346 OA
BRANCH  15  18
ATOM     18  O3* UNL     1       2.651  -0.731  -1.820  0.00  0.00    -0.386 OA
ATOM     19  H3* UNL     1       2.838  -1.679  -1.792  0.00  0.00    +0.210 HD
ENDBRANCH  15  18
BRANCH  14  20
ATOM     20  O2* UNL     1       3.774   2.278  -0.176  0.00  0.00    -0.385 OA
ATOM     21  H2* UNL     1       4.636   2.195  -0.606  0.00  0.00    +0.210 HD
ENDBRANCH  14  20
BRANCH  16  22
ATOM     22  C5* UNL     1       1.935  -1.935   0.542  0.00  0.00    +0.190 C 
BRANCH  22  23
ATOM     23  O5* UNL     1       1.181  -2.296   1.701  0.00  0.00    -0.392 OA
ATOM     24  H5* UNL     1       0.946  -3.233   1.742  0.00  0.00    +0.210 HD
ENDBRANCH  22  23
ENDBRANCH  16  22
ENDBRANCH   8  13
BRANCH   1  26
ATOM     25  C   UNL     1       3.605   4.073   6.898  0.00  0.00    +0.091 C 
ATOM     26  S   UNL     1       2.747   4.740   5.451  0.00  0.00    -0.107 S 
ENDBRANCH   1  26
BRANCH   9  27
ATOM     27  S   UNL     1       0.376   4.733  -0.033  0.00  0.00    -0.091 S 
ATOM     28  C   UNL     1       0.190   6.338   0.783  0.00  0.00    +0.093 C 
ENDBRANCH   9  27
TORSDOF 7
