REMARK  Name = ZINC41026323
REMARK  10 active torsions:
REMARK  status: ('A' for Active; 'I' for Inactive)
REMARK    1  A    between atoms: C_4  and  N_7
REMARK    2  A    between atoms: C_12  and  N_23
REMARK    3  A    between atoms: N_16  and  C_17
REMARK    4  A    between atoms: C_17  and  C_18
REMARK    5  A    between atoms: C_18  and  N_19
REMARK    6  A    between atoms: N_19  and  C_20
REMARK    7  A    between atoms: C_20  and  C_21
REMARK    8  A    between atoms: C_21  and  O_22
REMARK    9  A    between atoms: N_23  and  C_24
REMARK   10  A    between atoms: C_25  and  C_32
REMARK                            x       y       z     vdW  Elec       q    Type
REMARK                         _______ _______ _______ _____ _____    ______ ____
ROOT
ATOM      1  N   UNL     1       3.623  -0.651  -0.037  0.00  0.00    -0.214 N 
ATOM      2  C   UNL     1       3.885  -1.839   0.585  0.00  0.00    +0.170 A 
ATOM      3  C   UNL     1       5.230  -2.150   0.303  0.00  0.00    +0.079 A 
ATOM      4  C   UNL     1       5.737  -1.105  -0.500  0.00  0.00    +0.148 A 
ATOM      5  N   UNL     1       4.786  -0.236  -0.697  0.00  0.00    -0.172 NA
ATOM      6  C   UNL     1       5.767  -3.341   0.830  0.00  0.00    +0.139 A 
ATOM      7  N   UNL     1       4.982  -4.117   1.568  0.00  0.00    -0.199 NA
ATOM      8  C   UNL     1       3.720  -3.785   1.809  0.00  0.00    +0.219 A 
ATOM      9  N   UNL     1       3.174  -2.678   1.335  0.00  0.00    -0.195 NA
ATOM     10  N   UNL     1       2.945  -4.630   2.585  0.00  0.00    -0.315 N 
ATOM     11  H   UNL     1       2.020  -4.405   2.772  0.00  0.00    +0.149 HD
ENDROOT
BRANCH   1  15
ATOM     12  C   UNL     1      -0.017   1.379   0.010  0.00  0.00    +0.000 A 
ATOM     13  C   UNL     1       1.170   2.089   0.002  0.00  0.00    +0.002 A 
ATOM     14  C   UNL     1       2.377   1.419  -0.013  0.00  0.00    +0.028 A 
ATOM     15  C   UNL     1       2.400   0.031  -0.021  0.00  0.00    +0.068 A 
ATOM     16  C   UNL     1       1.206  -0.680  -0.013  0.00  0.00    +0.028 A 
ATOM     17  C   UNL     1       0.002  -0.004   0.002  0.00  0.00    +0.002 A 
ENDBRANCH   1  15
BRANCH   6  18
ATOM     18  N   UNL     1       7.081  -3.694   0.584  0.00  0.00    -0.293 N 
ATOM     19  H   UNL     1       7.644  -3.119   0.042  0.00  0.00    +0.154 HD
BRANCH  18  20
ATOM     20  C   UNL     1       7.592  -4.868   1.109  0.00  0.00    +0.083 A 
ATOM     21  C   UNL     1       8.872  -5.375   0.974  0.00  0.00    +0.068 A 
ATOM     22  C   UNL     1       9.163  -6.647   1.634  0.00  0.00    -0.023 A 
ATOM     23  C   UNL     1       8.119  -7.169   2.302  0.00  0.00    -0.004 A 
ATOM     24  S   UNL     1       6.804  -6.000   2.064  0.00  0.00    -0.077 S 
ATOM     25  C   UNL     1       8.470  -8.477   2.958  0.00  0.00    +0.043 C 
ATOM     26  C   UNL     1       9.770  -8.929   2.256  0.00  0.00    +0.010 C 
ATOM     27  C   UNL     1      10.360  -7.583   1.788  0.00  0.00    +0.037 C 
BRANCH  21  28
ATOM     28  C   UNL     1       9.895  -4.666   0.200  0.00  0.00    +0.244 C 
ATOM     29  O   UNL     1      10.617  -3.853   0.746  0.00  0.00    -0.270 OA
ATOM     30  N   UNL     1      10.036  -4.914  -1.118  0.00  0.00    -0.325 N 
ATOM     31  H   UNL     1       9.460  -5.562  -1.553  0.00  0.00    +0.145 HD
ATOM     32  H   UNL     1      10.713  -4.445  -1.630  0.00  0.00    +0.145 HD
ENDBRANCH  21  28
ENDBRANCH  18  20
ENDBRANCH   6  18
BRANCH  10  33
ATOM     33  C   UNL     1       3.522  -5.865   3.123  0.00  0.00    +0.085 C 
BRANCH  33  34
ATOM     34  C   UNL     1       2.463  -6.609   3.938  0.00  0.00    -0.064 C 
BRANCH  34  35
ATOM     35  N   UNL     1       3.041  -7.847   4.478  0.00  0.00    +0.382 N 
ATOM     36  H   UNL     1       3.353  -8.432   3.718  0.00  0.00    -0.086 HD
ATOM     37  H   UNL     1       3.825  -7.621   5.072  0.00  0.00    -0.086 HD
BRANCH  35  38
ATOM     38  C   UNL     1       2.024  -8.562   5.261  0.00  0.00    -0.054 C 
BRANCH  38  39
ATOM     39  C   UNL     1       2.627  -9.851   5.823  0.00  0.00    +0.137 C 
BRANCH  39  40
ATOM     40  O   UNL     1       3.661  -9.527   6.754  0.00  0.00    -0.397 OA
ATOM     41  H   UNL     1       4.089 -10.298   7.151  0.00  0.00    +0.209 HD
ENDBRANCH  39  40
ENDBRANCH  38  39
ENDBRANCH  35  38
ENDBRANCH  34  35
ENDBRANCH  33  34
ENDBRANCH  10  33
TORSDOF 10
