REMARK  Name = ZINC08757662
REMARK  9 active torsions:
REMARK  status: ('A' for Active; 'I' for Inactive)
REMARK    1  A    between atoms: C_1  and  O_2
REMARK    2  A    between atoms: O_2  and  C_3
REMARK    3  A    between atoms: C_6  and  N_9
REMARK    4  A    between atoms: C_13  and  N_14
REMARK    5  A    between atoms: C_13  and  N_26
REMARK    6  A    between atoms: N_14  and  C_15
REMARK    7  A    between atoms: C_15  and  C_16
REMARK    8  A    between atoms: C_21  and  C_22
REMARK    9  A    between atoms: N_26  and  C_27
REMARK                            x       y       z     vdW  Elec       q    Type
REMARK                         _______ _______ _______ _____ _____    ______ ____
ROOT
ATOM      1  N   UNL     1       3.579   2.150   0.209  0.00  0.00    -0.190 N 
ATOM      2  C   UNL     1       3.554   3.485   0.026  0.00  0.00    +0.267 C 
ATOM      3  O   UNL     1       2.494   4.072  -0.094  0.00  0.00    -0.269 OA
ATOM      4  C   UNL     1       4.784   4.197  -0.027  0.00  0.00    +0.135 C 
ATOM      5  C   UNL     1       4.804   5.585  -0.216  0.00  0.00    +0.106 C 
ATOM      6  C   UNL     1       5.993   3.461   0.117  0.00  0.00    +0.260 C 
ATOM      7  O   UNL     1       7.069   4.028   0.078  0.00  0.00    -0.269 OA
ATOM      8  N   UNL     1       5.928   2.127   0.298  0.00  0.00    -0.235 N 
ATOM      9  C   UNL     1       4.744   1.494   0.347  0.00  0.00    +0.320 C 
ATOM     10  O   UNL     1       4.726   0.290   0.516  0.00  0.00    -0.251 OA
ATOM     11  H   UNL     1       6.747   1.617   0.397  0.00  0.00    +0.159 HD
ENDROOT
BRANCH   1  15
ATOM     12  C   UNL     1      -0.009   0.028   0.369  0.00  0.00    +0.120 A 
ATOM     13  C   UNL     1       0.874  -0.180  -0.680  0.00  0.00    +0.047 A 
ATOM     14  C   UNL     1       2.062   0.521  -0.734  0.00  0.00    +0.027 A 
ATOM     15  C   UNL     1       2.373   1.436   0.264  0.00  0.00    +0.046 A 
ATOM     16  C   UNL     1       1.489   1.644   1.314  0.00  0.00    +0.027 A 
ATOM     17  C   UNL     1       0.302   0.942   1.366  0.00  0.00    +0.047 A 
BRANCH  12  19
ATOM     18  C   UNL     1      -2.040  -0.398   1.531  0.00  0.00    +0.277 C 
ATOM     19  O   UNL     1      -1.179  -0.663   0.421  0.00  0.00    -0.495 OA
ENDBRANCH  12  19
ENDBRANCH   1  15
BRANCH   5  20
ATOM     20  N   UNL     1       5.989   6.228  -0.409  0.00  0.00    -0.327 N 
ATOM     21  H   UNL     1       6.824   5.738  -0.343  0.00  0.00    +0.148 HD
BRANCH  20  22
ATOM     22  C   UNL     1       6.003   7.661  -0.717  0.00  0.00    +0.138 C 
BRANCH  22  23
ATOM     23  C   UNL     1       7.416   8.099  -1.005  0.00  0.00    -0.019 A 
ATOM     24  C   UNL     1       8.152   8.743  -0.029  0.00  0.00    +0.006 A 
ATOM     25  C   UNL     1       9.449   9.142  -0.291  0.00  0.00    +0.000 A 
ATOM     26  C   UNL     1      10.008   8.903  -1.534  0.00  0.00    +0.001 A 
ATOM     27  C   UNL     1       9.270   8.264  -2.512  0.00  0.00    +0.013 A 
ATOM     28  C   UNL     1       7.973   7.862  -2.247  0.00  0.00    +0.059 A 
BRANCH  28  29
ATOM     29  C   UNL     1       7.169   7.164  -3.314  0.00  0.00    +0.418 C 
ATOM     30  F   UNL     1       7.941   7.039  -4.474  0.00  0.00    -0.166 F 
ATOM     31  F   UNL     1       6.797   5.893  -2.862  0.00  0.00    -0.166 F 
ATOM     32  F   UNL     1       6.021   7.912  -3.596  0.00  0.00    -0.166 F 
ENDBRANCH  28  29
ENDBRANCH  22  23
ENDBRANCH  20  22
ENDBRANCH   5  20
BRANCH   5  33
ATOM     33  N   UNL     1       3.639   6.291  -0.206  0.00  0.00    -0.302 N 
ATOM     34  H   UNL     1       3.183   6.487  -1.040  0.00  0.00    +0.153 HD
BRANCH  33  35
ATOM     35  C   UNL     1       3.099   6.734   1.006  0.00  0.00    +0.032 A 
ATOM     36  C   UNL     1       3.800   6.543   2.190  0.00  0.00    +0.023 A 
ATOM     37  C   UNL     1       3.267   6.986   3.384  0.00  0.00    +0.002 A 
ATOM     38  C   UNL     1       2.032   7.609   3.404  0.00  0.00    +0.000 A 
ATOM     39  C   UNL     1       1.329   7.795   2.227  0.00  0.00    +0.002 A 
ATOM     40  C   UNL     1       1.860   7.359   1.028  0.00  0.00    +0.023 A 
ENDBRANCH  33  35
ENDBRANCH   5  33
TORSDOF 8
