REMARK  Name = ZINC12151588
REMARK  12 active torsions:
REMARK  status: ('A' for Active; 'I' for Inactive)
REMARK    1  A    between atoms: C_1  and  C_2
REMARK    2  A    between atoms: C_2  and  S_3
REMARK    3  A    between atoms: S_3  and  N_6
REMARK    4  A    between atoms: N_6  and  C_7
REMARK    5  A    between atoms: C_12  and  C_13
REMARK    6  A    between atoms: C_15  and  C_19
REMARK    7  A    between atoms: C_16  and  C_18
REMARK    8  A    between atoms: C_19  and  N_20
REMARK    9  A    between atoms: C_21  and  C_23
REMARK   10  A    between atoms: C_26  and  C_28
REMARK   11  A    between atoms: C_31  and  O_34
REMARK   12  A    between atoms: O_34  and  C_35
REMARK                            x       y       z     vdW  Elec       q    Type
REMARK                         _______ _______ _______ _____ _____    ______ ____
ROOT
ATOM      1  C   UNL     1      -2.118   2.333   2.380  0.00  0.00    +0.230 A 
ATOM      2  N   UNL     1      -0.916   2.379   2.907  0.00  0.00    -0.212 NA
ATOM      3  C   UNL     1      -0.044   1.851   2.034  0.00  0.00    +0.100 A 
ATOM      4  C   UNL     1      -0.732   1.471   0.943  0.00  0.00    +0.127 A 
ATOM      5  O   UNL     1      -2.027   1.778   1.158  0.00  0.00    -0.440 OA
ATOM      6  C   UNL     1      -0.161   0.829  -0.295  0.00  0.00    +0.088 C 
ENDROOT
BRANCH   1  12
ATOM      7  C   UNL     1      -4.585   2.708   2.346  0.00  0.00    +0.060 A 
ATOM      8  C   UNL     1      -5.745   3.164   2.956  0.00  0.00    +0.025 A 
ATOM      9  C   UNL     1      -5.690   3.720   4.220  0.00  0.00    +0.002 A 
ATOM     10  C   UNL     1      -4.481   3.826   4.886  0.00  0.00    +0.001 A 
ATOM     11  C   UNL     1      -3.319   3.373   4.297  0.00  0.00    +0.015 A 
ATOM     12  C   UNL     1      -3.359   2.814   3.018  0.00  0.00    +0.059 A 
BRANCH   7  13
ATOM     13  N   UNL     1      -4.638   2.147   1.073  0.00  0.00    -0.220 N 
ATOM     14  H   UNL     1      -4.051   1.410   0.842  0.00  0.00    +0.173 HD
BRANCH  13  15
ATOM     15  S   UNL     1      -5.705   2.737  -0.048  0.00  0.00    +0.043 S 
ATOM     16  O   UNL     1      -5.425   2.007  -1.235  0.00  0.00    -0.155 OA
ATOM     17  O   UNL     1      -6.978   2.643   0.577  0.00  0.00    -0.155 OA
BRANCH  15  19
ATOM     18  C   UNL     1      -6.170   5.131  -1.287  0.00  0.00    +0.030 C 
ATOM     19  C   UNL     1      -5.241   4.478  -0.262  0.00  0.00    +0.185 C 
ENDBRANCH  15  19
ENDBRANCH  13  15
ENDBRANCH   7  13
ENDBRANCH   1  12
BRANCH   3  20
ATOM     20  C   UNL     1       1.442   1.708   2.241  0.00  0.00    +0.163 C 
BRANCH  20  21
ATOM     21  N   UNL     1       2.120   2.909   1.750  0.00  0.00    -0.303 N 
ATOM     22  C   UNL     1       3.462   3.006   1.832  0.00  0.00    +0.280 C 
ATOM     23  O   UNL     1       4.110   2.095   2.314  0.00  0.00    -0.267 OA
ATOM     24  H   UNL     1       1.604   3.635   1.366  0.00  0.00    +0.149 HD
BRANCH  22  25
ATOM     25  C   UNL     1       4.141   4.208   1.341  0.00  0.00    +0.190 A 
ATOM     26  C   UNL     1       5.500   4.436   1.364  0.00  0.00    +0.055 A 
ATOM     27  C   UNL     1       5.707   5.699   0.801  0.00  0.00    +0.050 A 
ATOM     28  C   UNL     1       4.480   6.191   0.457  0.00  0.00    +0.136 A 
ATOM     29  O   UNL     1       3.545   5.282   0.782  0.00  0.00    -0.450 OA
BRANCH  28  30
ATOM     30  C   UNL     1       4.224   7.502  -0.173  0.00  0.00    +0.018 A 
ATOM     31  C   UNL     1       5.288   8.359  -0.462  0.00  0.00    +0.015 A 
ATOM     32  C   UNL     1       5.045   9.579  -1.055  0.00  0.00    +0.046 A 
ATOM     33  C   UNL     1       3.744   9.961  -1.355  0.00  0.00    +0.120 A 
ATOM     34  C   UNL     1       2.682   9.114  -1.063  0.00  0.00    +0.046 A 
ATOM     35  C   UNL     1       2.917   7.890  -0.475  0.00  0.00    +0.015 A 
BRANCH  33  36
ATOM     36  O   UNL     1       3.509  11.167  -1.934  0.00  0.00    -0.495 OA
ATOM     37  C   UNL     1       4.646  11.989  -2.207  0.00  0.00    +0.277 C 
ENDBRANCH  33  36
ENDBRANCH  28  30
ENDBRANCH  22  25
ENDBRANCH  20  21
ENDBRANCH   3  20
TORSDOF 9
