REMARK  Name = ZINC63514066
REMARK  8 active torsions:
REMARK  status: ('A' for Active; 'I' for Inactive)
REMARK    1  A    between atoms: C_7  and  C_10
REMARK    2  A    between atoms: C_10  and  C_11
REMARK    3  A    between atoms: C_11  and  N_12
REMARK    4  A    between atoms: N_12  and  S_13
REMARK    5  A    between atoms: S_13  and  C_16
REMARK    6  A    between atoms: C_20  and  C_22
REMARK    7  A    between atoms: N_24  and  C_25
REMARK    8  A    between atoms: C_29  and  N_31
REMARK                            x       y       z     vdW  Elec       q    Type
REMARK                         _______ _______ _______ _____ _____    ______ ____
ROOT
ATOM      1  C   UNL     1       0.085  -5.848  -3.953  0.00  0.00    +0.106 A 
ATOM      2  C   UNL     1       0.702  -4.962  -4.818  0.00  0.00    +0.028 A 
ATOM      3  C   UNL     1       1.703  -5.399  -5.667  0.00  0.00    +0.003 A 
ATOM      4  C   UNL     1       2.093  -6.723  -5.655  0.00  0.00    +0.013 A 
ATOM      5  C   UNL     1       1.475  -7.621  -4.785  0.00  0.00    +0.039 A 
ATOM      6  C   UNL     1       0.469  -7.173  -3.927  0.00  0.00    +0.041 A 
ENDROOT
BRANCH   5   7
ATOM      7  C   UNL     1       1.887  -9.041  -4.767  0.00  0.00    +0.248 C 
ATOM      8  O   UNL     1       1.347  -9.821  -4.008  0.00  0.00    -0.270 OA
ATOM      9  N   UNL     1       2.862  -9.470  -5.593  0.00  0.00    -0.281 N 
ATOM     10  H   UNL     1       3.246  -8.863  -6.246  0.00  0.00    +0.155 HD
BRANCH   9  11
ATOM     11  C   UNL     1       3.319 -10.789  -5.509  0.00  0.00    +0.036 A 
ATOM     12  C   UNL     1       4.660 -11.076  -5.731  0.00  0.00    +0.023 A 
ATOM     13  C   UNL     1       5.109 -12.379  -5.647  0.00  0.00    +0.004 A 
ATOM     14  C   UNL     1       4.224 -13.398  -5.343  0.00  0.00    +0.033 A 
ATOM     15  C   UNL     1       2.889 -13.116  -5.122  0.00  0.00    +0.128 A 
ATOM     16  C   UNL     1       2.435 -11.813  -5.199  0.00  0.00    +0.056 A 
BRANCH  15  17
ATOM     17  N   UNL     1       1.946 -14.209  -4.798  0.00  0.00    +0.056 N 
ATOM     18  O   UNL     1       2.343 -15.349  -4.727  0.00  0.00    -0.126 OA
ATOM     19  O   UNL     1       0.778 -13.963  -4.605  0.00  0.00    -0.126 OA
ENDBRANCH  15  17
ENDBRANCH   9  11
ENDBRANCH   5   7
BRANCH   1  20
ATOM     20  S   UNL     1      -1.190  -5.281  -2.876  0.00  0.00    +0.058 S 
ATOM     21  O   UNL     1      -1.978  -6.417  -2.547  0.00  0.00    -0.153 OA
ATOM     22  O   UNL     1      -1.742  -4.118  -3.477  0.00  0.00    -0.153 OA
BRANCH  20  23
ATOM     23  N   UNL     1      -0.461  -4.789  -1.472  0.00  0.00    -0.190 NA
ATOM     24  H   UNL     1      -0.637  -5.261  -0.643  0.00  0.00    +0.148 HD
BRANCH  23  25
ATOM     25  C   UNL     1       0.449  -3.641  -1.483  0.00  0.00    +0.110 C 
BRANCH  25  26
ATOM     26  C   UNL     1       0.686  -3.165  -0.049  0.00  0.00    +0.050 C 
BRANCH  26  33
ATOM     27  C   UNL     1      -0.037   1.366  -0.036  0.00  0.00    +0.001 A 
ATOM     28  C   UNL     1       1.142   2.123  -0.051  0.00  0.00    +0.002 A 
ATOM     29  C   UNL     1       2.369   1.562  -0.067  0.00  0.00    +0.026 A 
ATOM     30  C   UNL     1       2.512   0.147  -0.070  0.00  0.00    +0.043 A 
ATOM     31  N   UNL     1       3.573  -0.623  -0.085  0.00  0.00    -0.380 N 
ATOM     32  C   UNL     1       3.135  -2.023  -0.080  0.00  0.00    +0.144 C 
ATOM     33  C   UNL     1       1.623  -1.985  -0.059  0.00  0.00    -0.040 C 
ATOM     34  C   UNL     1       1.282  -0.676  -0.054  0.00  0.00    -0.001 A 
ATOM     35  C   UNL     1      -0.014   0.014  -0.036  0.00  0.00    +0.010 A 
ATOM     36  H   UNL     1       4.494  -0.318  -0.097  0.00  0.00    +0.160 HD
ENDBRANCH  26  33
ENDBRANCH  25  26
ENDBRANCH  23  25
ENDBRANCH  20  23
ENDBRANCH   1  20
TORSDOF 8
