REMARK  Name = ZINC15980731
REMARK  8 active torsions:
REMARK  status: ('A' for Active; 'I' for Inactive)
REMARK    1  A    between atoms: C_1  and  C_2
REMARK    2  A    between atoms: C_5  and  C_11
REMARK    3  A    between atoms: C_7  and  N_8
REMARK    4  A    between atoms: C_11  and  C_37
REMARK    5  A    between atoms: N_12  and  N_13
REMARK    6  A    between atoms: N_15  and  C_16
REMARK    7  A    between atoms: C_24  and  C_25
REMARK    8  A    between atoms: C_24  and  O_36
REMARK                            x       y       z     vdW  Elec       q    Type
REMARK                         _______ _______ _______ _____ _____    ______ ____
ROOT
ATOM      1  N   UNL     1       2.638   5.713   0.915  0.00  0.00    -0.165 N 
ATOM      2  C   UNL     1       2.280   4.442   1.275  0.00  0.00    +0.180 C 
ATOM      3  N   UNL     1       1.227   3.768   0.869  0.00  0.00    -0.223 NA
ATOM      4  S   UNL     1       3.534   3.896   2.414  0.00  0.00    -0.084 S 
ATOM      5  C   UNL     1       4.599   5.387   2.428  0.00  0.00    +0.139 C 
ATOM      6  C   UNL     1       3.835   6.310   1.458  0.00  0.00    +0.190 C 
ENDROOT
BRANCH   6   7
ATOM      7  C   UNL     1       4.751   6.676   0.319  0.00  0.00    +0.007 A 
ATOM      8  C   UNL     1       4.662   5.998  -0.883  0.00  0.00    +0.012 A 
ATOM      9  C   UNL     1       5.496   6.331  -1.935  0.00  0.00    +0.048 A 
ATOM     10  C   UNL     1       6.429   7.341  -1.782  0.00  0.00    +0.142 A 
ATOM     11  C   UNL     1       6.523   8.021  -0.569  0.00  0.00    +0.076 A 
ATOM     12  C   UNL     1       5.682   7.686   0.480  0.00  0.00    +0.035 A 
ATOM     13  N   UNL     1       7.474   9.042  -0.427  0.00  0.00    -0.280 N 
ATOM     14  C   UNL     1       8.053   9.556  -1.534  0.00  0.00    +0.255 C 
ATOM     15  O   UNL     1       8.901  10.418  -1.433  0.00  0.00    -0.272 OA
ATOM     16  C   UNL     1       7.642   9.054  -2.894  0.00  0.00    +0.325 C 
ATOM     17  O   UNL     1       7.260   7.679  -2.804  0.00  0.00    -0.481 OA
ATOM     18  H   UNL     1       7.712   9.374   0.453  0.00  0.00    +0.155 HD
ENDBRANCH   6   7
BRANCH   3  19
ATOM     19  C   UNL     1       1.065   2.462   1.243  0.00  0.00    +0.085 A 
ATOM     20  C   UNL     1      -0.178   1.998   1.692  0.00  0.00    +0.031 A 
ATOM     21  C   UNL     1      -0.289   0.669   2.057  0.00  0.00    +0.022 A 
ATOM     22  C   UNL     1       0.820  -0.153   1.969  0.00  0.00    +0.111 A 
ATOM     23  N   UNL     1       1.979   0.310   1.542  0.00  0.00    -0.261 NA
ATOM     24  C   UNL     1       2.136   1.568   1.183  0.00  0.00    +0.138 A 
ENDBRANCH   3  19
BRANCH   1  26
ATOM     25  C   UNL     1       0.661   6.840   0.377  0.00  0.00    +0.064 C 
ATOM     26  N   UNL     1       1.841   6.436   0.018  0.00  0.00    -0.180 NA
ATOM     27  C   UNL     1       0.204   6.656   1.801  0.00  0.00    +0.068 C 
BRANCH  25  32
ATOM     28  C   UNL     1      -2.819   9.333  -3.463  0.00  0.00    +0.046 C 
ATOM     29  C   UNL     1      -1.907   8.680  -2.457  0.00  0.00    -0.020 A 
ATOM     30  C   UNL     1      -0.650   8.250  -2.844  0.00  0.00    +0.006 A 
ATOM     31  C   UNL     1       0.192   7.656  -1.927  0.00  0.00    +0.010 A 
ATOM     32  C   UNL     1      -0.231   7.479  -0.608  0.00  0.00    -0.000 A 
ATOM     33  C   UNL     1      -1.501   7.915  -0.224  0.00  0.00    +0.042 A 
ATOM     34  C   UNL     1      -2.331   8.512  -1.151  0.00  0.00    +0.130 A 
BRANCH  34  35
ATOM     35  N   UNL     1      -3.678   8.975  -0.746  0.00  0.00    +0.057 N 
ATOM     36  O   UNL     1      -4.101   8.719   0.367  0.00  0.00    -0.126 OA
ATOM     37  O   UNL     1      -4.363   9.611  -1.527  0.00  0.00    -0.126 OA
ENDBRANCH  34  35
ENDBRANCH  25  32
ENDBRANCH   1  26
BRANCH   6  38
ATOM     38  O   UNL     1       3.476   7.506   2.152  0.00  0.00    -0.365 OA
ATOM     39  H   UNL     1       2.853   7.367   2.878  0.00  0.00    +0.212 HD
ENDBRANCH   6  38
TORSDOF 6
