REMARK  Name = ZINC06822082
REMARK  14 active torsions:
REMARK  status: ('A' for Active; 'I' for Inactive)
REMARK    1  A    between atoms: C_1  and  C_2
REMARK    2  A    between atoms: C_2  and  C_3
REMARK    3  A    between atoms: C_6  and  N_9
REMARK    4  A    between atoms: N_9  and  C_10
REMARK    5  A    between atoms: C_10  and  C_12
REMARK    6  A    between atoms: C_10  and  C_17
REMARK    7  A    between atoms: N_19  and  C_20
REMARK    8  A    between atoms: C_20  and  C_21
REMARK    9  A    between atoms: C_21  and  C_22
REMARK   10  A    between atoms: C_22  and  C_23
REMARK   11  A    between atoms: C_22  and  C_24
REMARK   12  A    between atoms: C_25  and  C_27
REMARK   13  A    between atoms: C_28  and  N_35
REMARK   14  A    between atoms: C_29  and  C_32
REMARK                            x       y       z     vdW  Elec       q    Type
REMARK                         _______ _______ _______ _____ _____    ______ ____
ROOT
ATOM      1  N   UNL     1      -2.890   3.012   4.617  0.00  0.00    -0.248 N 
ATOM      2  C   UNL     1      -3.633   2.131   5.316  0.00  0.00    +0.262 C 
ATOM      3  O   UNL     1      -3.984   2.395   6.451  0.00  0.00    -0.269 OA
ENDROOT
BRANCH   1   7
ATOM      4  C   UNL     1      -2.044   2.299   0.602  0.00  0.00    -0.048 A 
ATOM      5  C   UNL     1      -3.193   2.983   0.954  0.00  0.00    +0.005 A 
ATOM      6  C   UNL     1      -3.479   3.217   2.284  0.00  0.00    +0.024 A 
ATOM      7  C   UNL     1      -2.606   2.773   3.269  0.00  0.00    +0.038 A 
ATOM      8  C   UNL     1      -1.450   2.091   2.912  0.00  0.00    +0.024 A 
ATOM      9  C   UNL     1      -1.173   1.856   1.579  0.00  0.00    +0.005 A 
BRANCH   4  11
ATOM     10  C   UNL     1      -2.350   0.703  -1.272  0.00  0.00    +0.009 C 
ATOM     11  C   UNL     1      -1.738   2.041  -0.851  0.00  0.00    +0.032 C 
ENDBRANCH   4  11
ENDBRANCH   1   7
BRANCH   2  12
ATOM     12  C   UNL     1      -4.019   0.855   4.709  0.00  0.00    +0.116 A 
ATOM     13  C   UNL     1      -4.878  -0.132   5.195  0.00  0.00    +0.076 A 
ATOM     14  C   UNL     1      -4.999  -1.212   4.321  0.00  0.00    +0.155 A 
ATOM     15  N   UNL     1      -4.323  -1.206   3.193  0.00  0.00    -0.203 NA
ATOM     16  S   UNL     1      -3.511   0.144   3.158  0.00  0.00    +0.019 S 
BRANCH  14  17
ATOM     17  C   UNL     1      -5.870  -2.352   4.662  0.00  0.00    +0.262 C 
ATOM     18  O   UNL     1      -6.491  -2.352   5.707  0.00  0.00    -0.269 OA
ATOM     19  N   UNL     1      -5.976  -3.395   3.815  0.00  0.00    -0.324 N 
ATOM     20  H   UNL     1      -5.481  -3.396   2.981  0.00  0.00    +0.145 HD
ATOM     21  H   UNL     1      -6.549  -4.145   4.039  0.00  0.00    +0.145 HD
ENDBRANCH  14  17
BRANCH  13  22
ATOM     22  N   UNL     1      -5.543  -0.045   6.411  0.00  0.00    -0.355 N 
ATOM     23  H   UNL     1      -5.421   0.734   6.976  0.00  0.00    +0.142 HD
ATOM     24  H   UNL     1      -6.128  -0.764   6.696  0.00  0.00    +0.142 HD
ENDBRANCH  13  22
ENDBRANCH   2  12
BRANCH   1  25
ATOM     25  C   UNL     1      -2.380   4.220   5.271  0.00  0.00    +0.233 C 
BRANCH  25  26
ATOM     26  C   UNL     1      -3.536   5.093   5.685  0.00  0.00    +0.135 A 
ATOM     27  C   UNL     1      -3.580   6.435   5.594  0.00  0.00    +0.047 A 
ATOM     28  C   UNL     1      -4.842   6.837   6.091  0.00  0.00    +0.041 A 
ATOM     29  C   UNL     1      -5.492   5.718   6.455  0.00  0.00    +0.195 A 
ATOM     30  O   UNL     1      -4.699   4.664   6.201  0.00  0.00    -0.465 OA
ENDBRANCH  25  26
BRANCH  25  31
ATOM     31  C   UNL     1      -1.581   3.833   6.488  0.00  0.00    +0.242 C 
ATOM     32  O   UNL     1      -1.450   2.664   6.782  0.00  0.00    -0.273 OA
ATOM     33  N   UNL     1      -1.011   4.787   7.252  0.00  0.00    -0.313 N 
ATOM     34  H   UNL     1      -1.116   5.722   7.017  0.00  0.00    +0.149 HD
BRANCH  33  35
ATOM     35  C   UNL     1      -0.235   4.411   8.435  0.00  0.00    +0.104 C 
BRANCH  35  36
ATOM     36  C   UNL     1       0.298   5.673   9.118  0.00  0.00    +0.022 C 
BRANCH  36  37
ATOM     37  C   UNL     1       1.109   5.280  10.354  0.00  0.00    -0.016 C 
ATOM     38  C   UNL     1       1.745   6.531  10.965  0.00  0.00    +0.007 C 
ATOM     39  C   UNL     1       0.186   4.623  11.382  0.00  0.00    +0.007 C 
ENDBRANCH  36  37
ENDBRANCH  35  36
ENDBRANCH  33  35
ENDBRANCH  25  31
ENDBRANCH   1  25
TORSDOF 11
