REMARK  Name = ZINC05740738
REMARK  5 active torsions:
REMARK  status: ('A' for Active; 'I' for Inactive)
REMARK    1  A    between atoms: C_4  and  N_10
REMARK    2  A    between atoms: C_6  and  N_7
REMARK    3  A    between atoms: N_10  and  C_11
REMARK    4  A    between atoms: C_12  and  C_13
REMARK    5  A    between atoms: C_12  and  C_15
REMARK                            x       y       z     vdW  Elec       q    Type
REMARK                         _______ _______ _______ _____ _____    ______ ____
ROOT
ATOM      1  C   UNL     1      -1.058  -2.236  -0.104  0.00  0.00    +0.088 C 
ATOM      2  C   UNL     1      -1.193  -0.865  -0.006  0.00  0.00    +0.090 C 
ENDROOT
BRANCH   2   3
ATOM      3  C   UNL     1      -0.001  -0.001  -0.066  0.00  0.00    +0.233 A 
ATOM      4  N   UNL     1      -0.021   1.310  -0.075  0.00  0.00    -0.209 NA
ATOM      5  C   UNL     1       1.257   1.766  -0.135  0.00  0.00    +0.111 A 
ATOM      6  C   UNL     1       1.824   3.042  -0.171  0.00  0.00    +0.051 A 
ATOM      7  C   UNL     1       3.194   3.180  -0.233  0.00  0.00    +0.043 A 
ATOM      8  C   UNL     1       4.011   2.058  -0.261  0.00  0.00    +0.024 A 
ATOM      9  C   UNL     1       3.464   0.792  -0.226  0.00  0.00    +0.050 A 
ATOM     10  C   UNL     1       2.088   0.635  -0.163  0.00  0.00    +0.156 A 
ATOM     11  O   UNL     1       1.271  -0.441  -0.119  0.00  0.00    -0.435 OA
ATOM     12 CL   UNL     1       3.901   4.764  -0.277  0.00  0.00    -0.083 Cl
ENDBRANCH   2   3
BRANCH   1  13
ATOM     13  N   UNL     1       0.173  -2.795  -0.119  0.00  0.00    -0.317 N 
ATOM     14  H   UNL     1       0.958  -2.243   0.022  0.00  0.00    +0.152 HD
BRANCH  13  18
ATOM     15  C   UNL     1       0.594  -6.891  -0.774  0.00  0.00    +0.036 A 
ATOM     16  C   UNL     1       1.717  -6.109  -0.573  0.00  0.00    +0.055 A 
ATOM     17  C   UNL     1       1.583  -4.746  -0.360  0.00  0.00    +0.200 A 
ATOM     18  C   UNL     1       0.315  -4.169  -0.338  0.00  0.00    +0.080 A 
ATOM     19  C   UNL     1      -0.807  -4.961  -0.540  0.00  0.00    +0.059 A 
ATOM     20  C   UNL     1      -0.664  -6.319  -0.757  0.00  0.00    +0.128 A 
ATOM     21  O   UNL     1       2.686  -3.975  -0.168  0.00  0.00    -0.286 OA
BRANCH  20  22
ATOM     22  N   UNL     1      -1.861  -7.162  -0.972  0.00  0.00    +0.056 N 
ATOM     23  O   UNL     1      -2.971  -6.659  -0.958  0.00  0.00    -0.126 OA
ATOM     24  O   UNL     1      -1.737  -8.358  -1.163  0.00  0.00    -0.126 OA
ENDBRANCH  20  22
ENDBRANCH  13  18
ENDBRANCH   1  13
BRANCH   2  25
ATOM     25  C   UNL     1      -2.476  -0.290   0.151  0.00  0.00    +0.265 C 
ATOM     26  O   UNL     1      -2.595   0.916   0.237  0.00  0.00    -0.295 OA
ENDBRANCH   2  25
TORSDOF 5
