REMARK  Name = ZINC04192162
REMARK  9 active torsions:
REMARK  status: ('A' for Active; 'I' for Inactive)
REMARK    1  A    between atoms: C_1  and  C_2
REMARK    2  A    between atoms: C_7  and  C_8
REMARK    3  A    between atoms: C_13  and  C_21
REMARK    4  A    between atoms: C_13  and  C_22
REMARK    5  A    between atoms: C_15  and  S_17
REMARK    6  A    between atoms: S_17  and  C_18
REMARK    7  A    between atoms: C_18  and  C_19
REMARK    8  A    between atoms: C_26  and  C_31
REMARK    9  A    between atoms: C_28  and  O_30
REMARK                            x       y       z     vdW  Elec       q    Type
REMARK                         _______ _______ _______ _____ _____    ______ ____
ROOT
ATOM      1  C   UNL     1       0.235   0.413   2.802  0.00  0.00    +0.059 C 
ATOM      2  C   UNL     1      -0.855   0.132   3.834  0.00  0.00    +0.084 C 
ATOM      3  C   UNL     1      -0.288  -0.082   5.232  0.00  0.00    +0.186 C 
ATOM      4  C   UNL     1      -1.367  -0.565   6.194  0.00  0.00    +0.096 C 
ATOM      5  C   UNL     1      -2.142   0.574   6.849  0.00  0.00    +0.034 C 
ATOM      6  N   UNL     1      -1.207   1.584   7.360  0.00  0.00    -0.320 N 
ATOM      7  C   UNL     1      -0.045   1.854   6.684  0.00  0.00    +0.131 C 
ATOM      8  N   UNL     1       0.373   1.125   5.704  0.00  0.00    -0.331 N 
ATOM      9  C   UNL     1      -3.129   1.214   5.872  0.00  0.00    +0.031 C 
ATOM     10  C   UNL     1      -2.941   0.008   8.041  0.00  0.00    +0.031 C 
ATOM     11  O   UNL     1       0.699  -1.134   5.135  0.00  0.00    -0.466 OA
ATOM     12  C   UNL     1       1.777  -0.809   4.369  0.00  0.00    +0.131 A 
ATOM     13  C   UNL     1       1.605  -0.021   3.238  0.00  0.00    +0.005 A 
ATOM     14  C   UNL     1       2.728   0.386   2.537  0.00  0.00    -0.040 A 
ATOM     15  C   UNL     1       3.985  -0.068   2.898  0.00  0.00    +0.049 A 
ATOM     16  C   UNL     1       4.141  -0.913   3.986  0.00  0.00    +0.121 A 
ATOM     17  C   UNL     1       3.029  -1.279   4.728  0.00  0.00    +0.091 A 
ATOM     18  C   UNL     1       2.631   1.355   1.386  0.00  0.00    +0.044 C 
ATOM     19  H   UNL     1      -1.415   2.067   8.182  0.00  0.00    +0.148 HD
ATOM     20  H   UNL     1       1.185   1.411   5.251  0.00  0.00    +0.165 HD
ENDROOT
BRANCH   1  27
ATOM     21  C   UNL     1      -0.657   1.893   0.481  0.00  0.00    +0.044 C 
ATOM     22  C   UNL     1      -0.570   0.390   0.424  0.00  0.00    -0.047 A 
ATOM     23  C   UNL     1      -0.910  -0.279  -0.738  0.00  0.00    +0.003 A 
ATOM     24  C   UNL     1      -0.830  -1.658  -0.790  0.00  0.00    +0.000 A 
ATOM     25  C   UNL     1      -0.409  -2.368   0.319  0.00  0.00    +0.000 A 
ATOM     26  C   UNL     1      -0.068  -1.700   1.480  0.00  0.00    +0.004 A 
ATOM     27  C   UNL     1      -0.144  -0.320   1.530  0.00  0.00    -0.037 A 
ENDBRANCH   1  27
BRANCH  16  28
ATOM     28  O   UNL     1       5.371  -1.381   4.320  0.00  0.00    -0.507 OA
ATOM     29  H   UNL     1       5.850  -0.818   4.943  0.00  0.00    +0.292 HD
ENDBRANCH  16  28
BRANCH   7  30
ATOM     30  S   UNL     1       0.916   3.251   7.171  0.00  0.00    -0.089 S 
BRANCH  30  31
ATOM     31  C   UNL     1      -0.020   3.969   8.549  0.00  0.00    +0.103 C 
BRANCH  31  32
ATOM     32  C   UNL     1       0.702   5.186   9.066  0.00  0.00    -0.023 C 
ATOM     33  C   UNL     1       0.150   6.370   8.957  0.00  0.00    +0.005 C 
ENDBRANCH  31  32
ENDBRANCH  30  31
ENDBRANCH   7  30
TORSDOF 5
