REMARK  Name = ZINC09456353
REMARK  6 active torsions:
REMARK  status: ('A' for Active; 'I' for Inactive)
REMARK    1  A    between atoms: C_5  and  C_7
REMARK    2  A    between atoms: C_7  and  N_8
REMARK    3  A    between atoms: C_18  and  S_19
REMARK    4  A    between atoms: S_19  and  C_20
REMARK    5  A    between atoms: C_20  and  C_21
REMARK    6  A    between atoms: C_21  and  C_23
REMARK                            x       y       z     vdW  Elec       q    Type
REMARK                         _______ _______ _______ _____ _____    ______ ____
ROOT
ATOM      1  N   UNL     1      -0.011   0.018   0.005  0.00  0.00    -0.283 N 
ATOM      2  C   UNL     1      -0.051   1.369   0.074  0.00  0.00    +0.263 A 
ATOM      3  O   UNL     1      -1.110   1.966   0.136  0.00  0.00    -0.267 OA
ATOM      4  C   UNL     1       1.230   2.087   0.065  0.00  0.00    +0.065 A 
ATOM      5  C   UNL     1       1.296   3.478   0.132  0.00  0.00    +0.015 A 
ATOM      6  C   UNL     1       2.515   4.096   0.121  0.00  0.00    +0.001 A 
ATOM      7  C   UNL     1       3.687   3.354   0.043  0.00  0.00    +0.002 A 
ATOM      8  C   UNL     1       3.652   1.990  -0.025  0.00  0.00    +0.028 A 
ATOM      9  C   UNL     1       2.420   1.328  -0.015  0.00  0.00    +0.079 A 
ATOM     10  N   UNL     1       2.340  -0.016  -0.080  0.00  0.00    -0.223 NA
ATOM     11  C   UNL     1       1.186  -0.636  -0.070  0.00  0.00    +0.173 A 
ENDROOT
BRANCH   1  12
ATOM     12  C   UNL     1      -1.260  -0.749   0.011  0.00  0.00    +0.164 C 
BRANCH  12  17
ATOM     13  C   UNL     1      -1.471  -0.570  -3.755  0.00  0.00    +0.000 A 
ATOM     14  C   UNL     1      -2.704  -1.149  -3.990  0.00  0.00    +0.001 A 
ATOM     15  C   UNL     1      -3.470  -1.599  -2.932  0.00  0.00    +0.020 A 
ATOM     16  C   UNL     1      -3.001  -1.474  -1.636  0.00  0.00    +0.046 A 
ATOM     17  C   UNL     1      -1.769  -0.890  -1.401  0.00  0.00    -0.009 A 
ATOM     18  C   UNL     1      -1.004  -0.441  -2.460  0.00  0.00    +0.007 A 
ATOM     19 CL   UNL     1      -3.959  -2.046  -0.307  0.00  0.00    -0.083 Cl
ENDBRANCH  12  17
ENDBRANCH   1  12
BRANCH  11  20
ATOM     20  S   UNL     1       1.177  -2.396  -0.158  0.00  0.00    -0.080 S 
BRANCH  20  21
ATOM     21  C   UNL     1       2.957  -2.715  -0.237  0.00  0.00    +0.158 C 
BRANCH  21  22
ATOM     22  C   UNL     1       3.198  -4.201  -0.320  0.00  0.00    +0.189 C 
ATOM     23  O   UNL     1       2.257  -4.969  -0.325  0.00  0.00    -0.290 OA
BRANCH  22  24
ATOM     24  C   UNL     1       4.518  -4.700  -0.391  0.00  0.00    +0.083 A 
ATOM     25  C   UNL     1       5.680  -3.946  -0.401  0.00  0.00    +0.030 A 
ATOM     26  C   UNL     1       6.746  -4.844  -0.477  0.00  0.00    +0.020 A 
ATOM     27  C   UNL     1       6.232  -6.099  -0.522  0.00  0.00    +0.083 A 
ATOM     28  N   UNL     1       4.887  -6.026  -0.471  0.00  0.00    -0.358 N 
ATOM     29  H   UNL     1       4.279  -6.782  -0.486  0.00  0.00    +0.165 HD
ENDBRANCH  22  24
ENDBRANCH  21  22
ENDBRANCH  20  21
ENDBRANCH  11  20
TORSDOF 6
