REMARK  Name = ZINC12979765
REMARK  7 active torsions:
REMARK  status: ('A' for Active; 'I' for Inactive)
REMARK    1  A    between atoms: C_4  and  C_7
REMARK    2  A    between atoms: C_10  and  C_13
REMARK    3  A    between atoms: C_13  and  S_14
REMARK    4  A    between atoms: S_14  and  C_15
REMARK    5  A    between atoms: C_18  and  C_27
REMARK    6  A    between atoms: N_19  and  C_20
REMARK    7  A    between atoms: C_20  and  C_21
REMARK                            x       y       z     vdW  Elec       q    Type
REMARK                         _______ _______ _______ _____ _____    ______ ____
ROOT
ATOM      1  C   UNL     1       5.466  -6.395   0.646  0.00  0.00    +0.192 A 
ATOM      2  N   UNL     1       6.431  -6.274   1.528  0.00  0.00    -0.122 NA
ATOM      3  N   UNL     1       6.740  -7.426   2.007  0.00  0.00    -0.128 NA
ATOM      4  C   UNL     1       5.991  -8.355   1.459  0.00  0.00    +0.167 A 
ATOM      5  N   UNL     1       5.147  -7.723   0.575  0.00  0.00    -0.300 N 
ENDROOT
BRANCH   4   6
ATOM      6  C   UNL     1       6.040  -9.803   1.743  0.00  0.00    +0.044 A 
ATOM      7  C   UNL     1       4.981 -10.620   1.978  0.00  0.00    +0.095 A 
ATOM      8  N   UNL     1       5.422 -11.893   2.200  0.00  0.00    -0.360 N 
ATOM      9  H   UNL     1       4.850 -12.653   2.389  0.00  0.00    +0.165 HD
ATOM     10  C   UNL     1       6.797 -11.942   2.115  0.00  0.00    +0.047 A 
ATOM     11  C   UNL     1       7.247 -10.644   1.821  0.00  0.00    +0.010 A 
ATOM     12  C   UNL     1       8.610 -10.395   1.672  0.00  0.00    +0.011 A 
ATOM     13  C   UNL     1       9.511 -11.427   1.810  0.00  0.00    +0.001 A 
ATOM     14  C   UNL     1       9.068 -12.710   2.098  0.00  0.00    +0.002 A 
ATOM     15  C   UNL     1       7.724 -12.970   2.256  0.00  0.00    +0.026 A 
ENDBRANCH   4   6
BRANCH   1  16
ATOM     16  S   UNL     1       4.717  -5.089  -0.269  0.00  0.00    -0.082 S 
BRANCH  16  17
ATOM     17  C   UNL     1       5.593  -3.602   0.291  0.00  0.00    +0.123 C 
BRANCH  17  21
ATOM     18  C   UNL     1       3.630  -0.688   0.077  0.00  0.00    +0.218 C 
ATOM     19  N   UNL     1       4.774  -0.083   0.008  0.00  0.00    -0.247 NA
ATOM     20  C   UNL     1       5.837  -1.103  -0.077  0.00  0.00    +0.190 C 
ATOM     21  C   UNL     1       5.033  -2.377  -0.435  0.00  0.00    +0.207 C 
ATOM     22  O   UNL     1       3.723  -2.034   0.066  0.00  0.00    -0.470 OA
BRANCH  18  26
ATOM     23  C   UNL     1      -0.074   1.379   0.330  0.00  0.00    +0.000 A 
ATOM     24  C   UNL     1       1.109   2.092   0.254  0.00  0.00    +0.001 A 
ATOM     25  C   UNL     1       2.315   1.427   0.172  0.00  0.00    +0.013 A 
ATOM     26  C   UNL     1       2.340   0.032   0.166  0.00  0.00    +0.036 A 
ATOM     27  C   UNL     1       1.144  -0.681   0.243  0.00  0.00    +0.013 A 
ATOM     28  C   UNL     1      -0.056  -0.004   0.325  0.00  0.00    +0.001 A 
ENDBRANCH  18  26
ENDBRANCH  17  21
ENDBRANCH  16  17
ENDBRANCH   1  16
BRANCH   5  29
ATOM     29  C   UNL     1       4.123  -8.343  -0.269  0.00  0.00    +0.157 C 
BRANCH  29  30
ATOM     30  C   UNL     1       4.766  -8.855  -1.560  0.00  0.00    +0.138 C 
ATOM     31  C   UNL     1       3.717  -9.595  -2.427  0.00  0.00    +0.035 C 
ATOM     32  C   UNL     1       4.340  -9.438  -3.841  0.00  0.00    +0.031 C 
ATOM     33  C   UNL     1       5.005  -8.047  -3.753  0.00  0.00    +0.160 C 
ATOM     34  O   UNL     1       5.211  -7.752  -2.365  0.00  0.00    -0.375 OA
ENDBRANCH  29  30
ENDBRANCH   5  29
TORSDOF 7
