REMARK  Name = ZINC12660153
REMARK  15 active torsions:
REMARK  status: ('A' for Active; 'I' for Inactive)
REMARK    1  A    between atoms: C_1  and  C_2
REMARK    2  A    between atoms: C_2  and  C_4
REMARK    3  A    between atoms: C_2  and  N_70
REMARK    4  A    between atoms: C_4  and  O_6
REMARK    5  A    between atoms: O_6  and  C_7
REMARK    6  A    between atoms: C_8  and  C_9
REMARK    7  A    between atoms: C_8  and  N_70
REMARK    8  A    between atoms: C_10  and  C_14
REMARK    9  A    between atoms: C_14  and  C_15
REMARK   10  A    between atoms: C_15  and  C_16
REMARK   11  A    between atoms: C_24  and  C_34
REMARK   12  A    between atoms: C_28  and  C_29
REMARK   13  A    between atoms: C_28  and  C_30
REMARK   14  A    between atoms: C_30  and  O_32
REMARK   15  A    between atoms: O_32  and  C_33
REMARK                            x       y       z     vdW  Elec       q    Type
REMARK                         _______ _______ _______ _____ _____    ______ ____
ROOT
ATOM      1  C   UNL     1      -4.128  -0.428   3.949  0.00  0.00    +0.013 C 
ENDROOT
BRANCH   1   2
ATOM      2  C   UNL     1      -3.780  -0.329   5.436  0.00  0.00    +0.021 C 
ATOM      3  C   UNL     1      -2.438   0.347   5.598  0.00  0.00    -0.073 C 
ATOM      4  C   UNL     1      -1.680   0.597   4.559  0.00  0.00    +0.008 C 
ATOM      5  C   UNL     1      -1.994   0.726   6.994  0.00  0.00    +0.031 C 
ATOM      6  C   UNL     1      -3.117   1.532   7.654  0.00  0.00    +0.009 C 
ATOM      7  C   UNL     1      -4.420   0.730   7.610  0.00  0.00    +0.012 C 
ATOM      8  C   UNL     1      -4.845   0.506   6.158  0.00  0.00    -0.022 C 
ATOM      9  C   UNL     1      -6.173  -0.256   6.120  0.00  0.00    +0.007 C 
ATOM     10  C   UNL     1      -7.249   0.544   6.855  0.00  0.00    +0.002 C 
ATOM     11  C   UNL     1      -6.823   0.741   8.312  0.00  0.00    +0.018 C 
ATOM     12  C   UNL     1      -5.506   1.516   8.351  0.00  0.00    +0.068 C 
ATOM     13  C   UNL     1      -5.081   1.724   9.806  0.00  0.00    +0.023 C 
ATOM     14  C   UNL     1      -5.000   1.857   5.456  0.00  0.00    +0.012 C 
BRANCH  12  15
ATOM     15  C   UNL     1      -5.694   2.856   7.688  0.00  0.00    +0.313 C 
ATOM     16  O   UNL     1      -6.789   3.189   7.299  0.00  0.00    -0.250 OA
BRANCH  15  17
ATOM     17  O   UNL     1      -4.646   3.679   7.529  0.00  0.00    -0.468 OA
ATOM     18  C   UNL     1      -4.902   4.954   6.882  0.00  0.00    +0.280 C 
ENDBRANCH  15  17
ENDBRANCH  12  15
ENDBRANCH   1   2
BRANCH   1  19
ATOM     19  C   UNL     1      -3.248  -1.491   3.289  0.00  0.00    +0.039 C 
BRANCH  19  21
ATOM     20  C   UNL     1      -3.283  -0.953   0.798  0.00  0.00    +0.091 A 
ATOM     21  C   UNL     1      -3.678  -1.682   1.858  0.00  0.00    -0.008 A 
ATOM     22  C   UNL     1      -4.573  -2.661   1.370  0.00  0.00    +0.045 A 
ATOM     23  C   UNL     1      -4.672  -2.473   0.042  0.00  0.00    +0.195 A 
ATOM     24  O   UNL     1      -3.893  -1.433  -0.298  0.00  0.00    -0.469 OA
BRANCH  20  25
ATOM     25  C   UNL     1      -2.324   0.209   0.836  0.00  0.00    -0.006 C 
BRANCH  25  26
ATOM     26  N   UNL     1      -0.950  -0.293   0.644  0.00  0.00    +0.392 N 
ATOM     27  H   UNL     1      -0.724  -0.956   1.395  0.00  0.00    -0.084 HD
ATOM     28  H   UNL     1      -0.886  -0.768  -0.264  0.00  0.00    -0.084 HD
BRANCH  26  30
ATOM     29  C   UNL     1       0.114   1.452  -0.716  0.00  0.00    -0.002 C 
ATOM     30  C   UNL     1       0.012   0.825   0.676  0.00  0.00    +0.037 C 
BRANCH  30  31
ATOM     31  C   UNL     1       1.363   0.303   1.092  0.00  0.00    +0.292 C 
ATOM     32  O   UNL     1       1.508  -0.871   1.337  0.00  0.00    -0.253 OA
BRANCH  31  33
ATOM     33  O   UNL     1       2.408   1.141   1.184  0.00  0.00    -0.469 OA
ATOM     34  C   UNL     1       3.680   0.568   1.584  0.00  0.00    +0.280 C 
ENDBRANCH  31  33
ENDBRANCH  30  31
ENDBRANCH  26  30
ENDBRANCH  25  26
ENDBRANCH  20  25
ENDBRANCH  19  21
ENDBRANCH   1  19
TORSDOF 10
