REMARK  Name = ZINC36050964
REMARK  14 active torsions:
REMARK  status: ('A' for Active; 'I' for Inactive)
REMARK    1  A    between atoms: C_1  and  C_2
REMARK    2  A    between atoms: C_2  and  O_3
REMARK    3  A    between atoms: O_3  and  C_4
REMARK    4  A    between atoms: C_4  and  C_6
REMARK    5  A    between atoms: C_7  and  C_37
REMARK    6  A    between atoms: C_11  and  C_13
REMARK    7  A    between atoms: C_15  and  O_21
REMARK    8  A    between atoms: C_17  and  O_19
REMARK    9  A    between atoms: O_19  and  C_20
REMARK   10  A    between atoms: O_21  and  C_22
REMARK   11  A    between atoms: C_23  and  C_26
REMARK   12  A    between atoms: C_27  and  N_29
REMARK   13  A    between atoms: N_29  and  C_30
REMARK   14  A    between atoms: C_30  and  C_31
REMARK                            x       y       z     vdW  Elec       q    Type
REMARK                         _______ _______ _______ _____ _____    ______ ____
ROOT
ATOM      1  C   UNL     1      -2.761  -2.348  -0.127  0.00  0.00    +0.082 C 
ATOM      2  C   UNL     1      -3.036  -3.679  -0.378  0.00  0.00    +0.053 C 
ATOM      3  N   UNL     1      -4.269  -4.143  -0.255  0.00  0.00    -0.230 NA
ATOM      4  C   UNL     1      -5.311  -3.422   0.103  0.00  0.00    +0.166 C 
ATOM      5  N   UNL     1      -5.252  -2.089   0.396  0.00  0.00    -0.267 N 
ATOM      6  C   UNL     1      -3.909  -1.458   0.296  0.00  0.00    +0.150 C 
ATOM      7  C   UNL     1      -6.434  -1.473   0.757  0.00  0.00    +0.048 C 
ATOM      8  C   UNL     1      -7.551  -2.232   0.792  0.00  0.00    +0.072 C 
ATOM      9  S   UNL     1      -6.926  -3.830   0.311  0.00  0.00    -0.060 S 
ATOM     10  C   UNL     1      -1.925  -4.607  -0.797  0.00  0.00    +0.066 C 
ENDROOT
BRANCH   6  11
ATOM     11  C   UNL     1      -4.005  -0.325  -0.693  0.00  0.00    -0.015 A 
ATOM     12  C   UNL     1      -4.497  -0.558  -1.963  0.00  0.00    +0.051 A 
ATOM     13  C   UNL     1      -4.588   0.483  -2.875  0.00  0.00    +0.124 A 
ATOM     14  C   UNL     1      -4.184   1.758  -2.512  0.00  0.00    +0.091 A 
ATOM     15  C   UNL     1      -3.691   1.990  -1.237  0.00  0.00    +0.124 A 
ATOM     16  C   UNL     1      -3.607   0.946  -0.326  0.00  0.00    +0.051 A 
BRANCH  15  17
ATOM     17  O   UNL     1      -3.293   3.239  -0.878  0.00  0.00    -0.495 OA
ATOM     18  C   UNL     1      -3.412   4.266  -1.864  0.00  0.00    +0.277 C 
ENDBRANCH  15  17
BRANCH  13  19
ATOM     19  O   UNL     1      -5.071   0.253  -4.124  0.00  0.00    -0.495 OA
ATOM     20  C   UNL     1      -5.136   1.372  -5.011  0.00  0.00    +0.277 C 
ENDBRANCH  13  19
ENDBRANCH   6  11
BRANCH   7  21
ATOM     21  C   UNL     1      -6.475  -0.042   1.091  0.00  0.00    +0.091 C 
ATOM     22  C   UNL     1      -7.658   0.563   1.314  0.00  0.00    +0.239 C 
ATOM     23  O   UNL     1      -8.799  -0.167   1.339  0.00  0.00    -0.271 OA
BRANCH  22  24
ATOM     24  N   UNL     1      -7.707   1.932   1.516  0.00  0.00    -0.309 N 
ATOM     25  H   UNL     1      -6.902   2.466   1.424  0.00  0.00    +0.149 HD
BRANCH  24  26
ATOM     26  C   UNL     1      -8.976   2.575   1.868  0.00  0.00    +0.136 C 
BRANCH  26  27
ATOM     27  C   UNL     1      -8.783   4.092   1.914  0.00  0.00    +0.135 C 
ATOM     28  C   UNL     1     -10.105   4.791   2.320  0.00  0.00    +0.035 C 
ATOM     29  C   UNL     1      -9.566   6.118   2.920  0.00  0.00    +0.031 C 
ATOM     30  C   UNL     1      -8.241   5.668   3.571  0.00  0.00    +0.160 C 
ATOM     31  O   UNL     1      -7.841   4.444   2.941  0.00  0.00    -0.375 OA
ENDBRANCH  26  27
ENDBRANCH  24  26
ENDBRANCH  22  24
ENDBRANCH   7  21
BRANCH   1  32
ATOM     32  C   UNL     1      -1.462  -1.842  -0.253  0.00  0.00    +0.339 C 
ATOM     33  O   UNL     1      -0.530  -2.599  -0.461  0.00  0.00    -0.245 OA
BRANCH  32  34
ATOM     34  O   UNL     1      -1.241  -0.513  -0.144  0.00  0.00    -0.462 OA
BRANCH  34  36
ATOM     35  C   UNL     1       0.161   1.455  -0.132  0.00  0.00    +0.048 C 
ATOM     36  C   UNL     1       0.109  -0.066  -0.284  0.00  0.00    +0.229 C 
ENDBRANCH  34  36
ENDBRANCH  32  34
ENDBRANCH   1  32
TORSDOF 10
