REMARK  Name = ZINC35506380
REMARK  6 active torsions:
REMARK  status: ('A' for Active; 'I' for Inactive)
REMARK    1  A    between atoms: C_1  and  O_2
REMARK    2  A    between atoms: O_2  and  C_3
REMARK    3  A    between atoms: C_3  and  C_5
REMARK    4  A    between atoms: C_6  and  N_10
REMARK    5  A    between atoms: C_11  and  C_13
REMARK    6  A    between atoms: C_22  and  C_27
REMARK                            x       y       z     vdW  Elec       q    Type
REMARK                         _______ _______ _______ _____ _____    ______ ____
ROOT
ATOM      1  C   UNL     1      -6.080  -2.706  -0.192  0.00  0.00    +0.102 A 
ATOM      2  C   UNL     1      -7.176  -3.558  -0.188  0.00  0.00    +0.031 A 
ATOM      3  C   UNL     1      -8.470  -3.005  -0.289  0.00  0.00    +0.038 A 
ATOM      4  C   UNL     1      -8.647  -1.635  -0.397  0.00  0.00    +0.030 A 
ATOM      5  N   UNL     1      -7.583  -0.806  -0.395  0.00  0.00    -0.325 N 
ATOM      6  H   UNL     1      -7.732   0.150  -0.464  0.00  0.00    +0.169 HD
ATOM      7  C   UNL     1      -6.325  -1.265  -0.294  0.00  0.00    +0.261 A 
ATOM      8  O   UNL     1      -5.389  -0.485  -0.292  0.00  0.00    -0.267 OA
ATOM      9  C   UNL     1     -10.020  -1.029  -0.527  0.00  0.00    +0.062 C 
ATOM     10  C   UNL     1     -11.092  -1.956   0.036  0.00  0.00    +0.032 C 
ATOM     11  C   UNL     1     -10.983  -3.327  -0.644  0.00  0.00    +0.088 C 
ATOM     12  C   UNL     1      -9.634  -3.906  -0.273  0.00  0.00    +0.165 C 
ATOM     13  O   UNL     1      -9.517  -5.076   0.028  0.00  0.00    -0.292 OA
ENDROOT
BRANCH  10  14
ATOM     14  C   UNL     1     -12.455  -1.369  -0.229  0.00  0.00    -0.044 A 
ATOM     15  C   UNL     1     -12.868  -1.139  -1.528  0.00  0.00    +0.004 A 
ATOM     16  C   UNL     1     -14.118  -0.601  -1.770  0.00  0.00    +0.000 A 
ATOM     17  C   UNL     1     -14.955  -0.293  -0.714  0.00  0.00    +0.000 A 
ATOM     18  C   UNL     1     -14.542  -0.524   0.585  0.00  0.00    +0.000 A 
ATOM     19  C   UNL     1     -13.294  -1.066   0.828  0.00  0.00    +0.004 A 
ENDBRANCH  10  14
BRANCH   1  21
ATOM     20  N   UNL     1      -3.669  -2.388   0.035  0.00  0.00    -0.280 N 
ATOM     21  C   UNL     1      -4.710  -3.235  -0.090  0.00  0.00    +0.254 C 
ATOM     22  O   UNL     1      -4.519  -4.435  -0.118  0.00  0.00    -0.270 OA
ATOM     23  H   UNL     1      -3.827  -1.437   0.138  0.00  0.00    +0.155 HD
BRANCH  20  25
ATOM     24  C   UNL     1      -1.251  -2.041  -0.007  0.00  0.00    +0.117 A 
ATOM     25  C   UNL     1      -2.365  -2.881   0.017  0.00  0.00    +0.055 A 
ATOM     26  C   UNL     1      -2.087  -4.233   0.021  0.00  0.00    +0.032 A 
ATOM     27  C   UNL     1      -0.795  -4.639   0.002  0.00  0.00    +0.048 A 
ATOM     28  S   UNL     1       0.091  -3.213  -0.029  0.00  0.00    -0.088 S 
BRANCH  24  29
ATOM     29  C   UNL     1      -1.200  -0.627  -0.017  0.00  0.00    +0.347 C 
ATOM     30  O   UNL     1      -2.231   0.019   0.001  0.00  0.00    -0.244 OA
BRANCH  29  32
ATOM     31  C   UNL     1      -0.031   1.434  -0.055  0.00  0.00    +0.280 C 
ATOM     32  O   UNL     1      -0.008   0.005  -0.047  0.00  0.00    -0.464 OA
ENDBRANCH  29  32
ENDBRANCH  24  29
ENDBRANCH  20  25
ENDBRANCH   1  21
TORSDOF 5
