REMARK  Name = ZINC20025871
REMARK  10 active torsions:
REMARK  status: ('A' for Active; 'I' for Inactive)
REMARK    1  A    between atoms: C_1  and  C_2
REMARK    2  A    between atoms: C_2  and  C_3
REMARK    3  A    between atoms: C_6  and  N_9
REMARK    4  A    between atoms: C_10  and  C_12
REMARK    5  A    between atoms: C_12  and  S_13
REMARK    6  A    between atoms: S_13  and  C_14
REMARK    7  A    between atoms: C_15  and  C_30
REMARK    8  A    between atoms: C_16  and  C_25
REMARK    9  A    between atoms: C_18  and  C_22
REMARK   10  A    between atoms: C_19  and  C_21
REMARK                            x       y       z     vdW  Elec       q    Type
REMARK                         _______ _______ _______ _____ _____    ______ ____
ROOT
ATOM      1  C   UNL     1       0.784  -3.657   1.330  0.00  0.00    +0.080 C 
ATOM      2  C   UNL     1       1.331  -2.412   1.352  0.00  0.00    +0.072 C 
ATOM      3  C   UNL     1       1.748  -1.721   0.085  0.00  0.00    +0.134 C 
ATOM      4  C   UNL     1       1.135  -2.387  -1.113  0.00  0.00    +0.046 C 
ATOM      5  C   UNL     1       0.604  -3.617  -1.043  0.00  0.00    +0.015 C 
ATOM      6  N   UNL     1       0.592  -4.314   0.135  0.00  0.00    -0.312 N 
ATOM      7  C   UNL     1       0.010  -4.241  -2.279  0.00  0.00    +0.061 C 
ATOM      8  H   UNL     1       0.428  -5.402   0.126  0.00  0.00    +0.152 HD
ENDROOT
BRANCH   4   9
ATOM      9  C   UNL     1       1.117  -1.699  -2.351  0.00  0.00    +0.240 C 
ATOM     10  O   UNL     1       2.139  -1.595  -3.005  0.00  0.00    -0.271 OA
ATOM     11  N   UNL     1      -0.031  -1.158  -2.804  0.00  0.00    -0.326 N 
ATOM     12  H   UNL     1      -0.046  -0.623  -3.765  0.00  0.00    +0.145 HD
ATOM     13  H   UNL     1      -0.954  -1.251  -2.213  0.00  0.00    +0.145 HD
ENDBRANCH   4   9
BRANCH   3  14
ATOM     14  C   UNL     1       1.302  -0.282   0.134  0.00  0.00    +0.118 A 
ATOM     15  C   UNL     1       2.112   0.792   0.163  0.00  0.00    +0.045 A 
ATOM     16  C   UNL     1       1.278   1.932   0.205  0.00  0.00    +0.041 A 
ATOM     17  C   UNL     1       0.009   1.487   0.201  0.00  0.00    +0.195 A 
ATOM     18  O   UNL     1       0.029   0.145   0.158  0.00  0.00    -0.467 OA
ENDBRANCH   3  14
BRANCH   2  19
ATOM     19  C   UNL     1       1.512  -1.746   2.607  0.00  0.00    +0.098 C 
ATOM     20  N   UNL     1       1.656  -1.218   3.603  0.00  0.00    -0.191 NA
ENDBRANCH   2  19
BRANCH   1  21
ATOM     21  S   UNL     1       0.318  -4.434   2.841  0.00  0.00    -0.100 S 
BRANCH  21  22
ATOM     22  C   UNL     1      -0.321  -6.003   2.203  0.00  0.00    +0.171 C 
BRANCH  22  24
ATOM     23  N   UNL     1      -1.310  -8.079   3.114  0.00  0.00    -0.285 N 
ATOM     24  C   UNL     1      -0.791  -6.858   3.351  0.00  0.00    +0.227 C 
ATOM     25  O   UNL     1      -0.703  -6.447   4.489  0.00  0.00    -0.275 OA
ATOM     26  H   UNL     1      -1.310  -8.488   2.093  0.00  0.00    +0.155 HD
BRANCH  23  30
ATOM     27  C   UNL     1      -2.915 -10.306   6.248  0.00  0.00    -0.048 A 
ATOM     28  C   UNL     1      -3.043  -8.929   6.243  0.00  0.00    +0.005 A 
ATOM     29  C   UNL     1      -2.512  -8.188   5.206  0.00  0.00    +0.023 A 
ATOM     30  C   UNL     1      -1.849  -8.827   4.167  0.00  0.00    +0.033 A 
ATOM     31  C   UNL     1      -1.727 -10.210   4.171  0.00  0.00    +0.023 A 
ATOM     32  C   UNL     1      -2.256 -10.945   5.214  0.00  0.00    +0.005 A 
BRANCH  27  34
ATOM     33  C   UNL     1      -4.936 -11.502   7.045  0.00  0.00    +0.009 C 
ATOM     34  C   UNL     1      -3.495 -11.111   7.382  0.00  0.00    +0.032 C 
ENDBRANCH  27  34
ENDBRANCH  23  30
ENDBRANCH  22  24
ENDBRANCH  21  22
ENDBRANCH   1  21
TORSDOF 8
