REMARK  Name = ZINC04112680
REMARK  12 active torsions:
REMARK  status: ('A' for Active; 'I' for Inactive)
REMARK    1  A    between atoms: C_1  and  C_2
REMARK    2  A    between atoms: C_2  and  C_3
REMARK    3  A    between atoms: C_3  and  O_4
REMARK    4  A    between atoms: O_4  and  C_5
REMARK    5  A    between atoms: C_8  and  C_11
REMARK    6  A    between atoms: C_16  and  C_21
REMARK    7  A    between atoms: C_24  and  O_27
REMARK    8  A    between atoms: O_27  and  C_28
REMARK    9  A    between atoms: C_30  and  C_41
REMARK   10  A    between atoms: C_31  and  C_32
REMARK   11  A    between atoms: C_32  and  O_34
REMARK   12  A    between atoms: O_34  and  C_35
REMARK                            x       y       z     vdW  Elec       q    Type
REMARK                         _______ _______ _______ _____ _____    ______ ____
ROOT
ATOM      1  C   UNL     1      -1.333   2.113   0.020  0.00  0.00    +0.092 C 
ATOM      2  C   UNL     1      -1.424   2.983  -1.209  0.00  0.00    +0.024 C 
ATOM      3  C   UNL     1      -1.220   4.315  -1.127  0.00  0.00    +0.016 C 
ATOM      4  C   UNL     1      -1.312   5.192  -2.351  0.00  0.00    +0.059 C 
ATOM      5  C   UNL     1      -0.896   4.394  -3.588  0.00  0.00    +0.032 C 
ATOM      6  C   UNL     1      -1.810   3.170  -3.708  0.00  0.00    +0.088 C 
ATOM      7  C   UNL     1      -1.724   2.369  -2.437  0.00  0.00    +0.162 C 
ATOM      8  O   UNL     1      -1.916   1.170  -2.474  0.00  0.00    -0.292 OA
ATOM      9  N   UNL     1      -0.927   4.900   0.076  0.00  0.00    -0.321 N 
ATOM     10  C   UNL     1      -1.222   4.264   1.249  0.00  0.00    +0.016 C 
ATOM     11  C   UNL     1      -1.428   2.936   1.271  0.00  0.00    +0.065 C 
ATOM     12  C   UNL     1      -1.315   5.057   2.528  0.00  0.00    +0.061 C 
ATOM     13  H   UNL     1      -0.452   5.891   0.104  0.00  0.00    +0.152 HD
ENDROOT
BRANCH   1  17
ATOM     14  C   UNL     1       2.399   0.030  -0.021  0.00  0.00    +0.121 A 
ATOM     15  C   UNL     1       1.207  -0.680  -0.014  0.00  0.00    +0.046 A 
ATOM     16  C   UNL     1       0.002  -0.004   0.002  0.00  0.00    +0.008 A 
ATOM     17  C   UNL     1      -0.017   1.378   0.010  0.00  0.00    -0.035 A 
ATOM     18  C   UNL     1       1.170   2.088   0.002  0.00  0.00    +0.008 A 
ATOM     19  C   UNL     1       2.377   1.417  -0.013  0.00  0.00    +0.046 A 
BRANCH  14  20
ATOM     20  O   UNL     1       3.586  -0.632  -0.037  0.00  0.00    -0.492 OA
BRANCH  20  21
ATOM     21  C   UNL     1       4.772   0.164  -0.044  0.00  0.00    +0.229 C 
BRANCH  21  23
ATOM     22  C   UNL     1       7.270   0.102  -0.069  0.00  0.00    +0.007 C 
ATOM     23  C   UNL     1       5.999  -0.750  -0.062  0.00  0.00    +0.038 C 
ENDBRANCH  21  23
ENDBRANCH  20  21
ENDBRANCH  14  20
ENDBRANCH   1  17
BRANCH   5  24
ATOM     24  C   UNL     1      -1.038   5.254  -4.817  0.00  0.00    -0.043 A 
ATOM     25  C   UNL     1      -2.270   5.786  -5.149  0.00  0.00    +0.007 A 
ATOM     26  C   UNL     1      -2.402   6.580  -6.272  0.00  0.00    +0.046 A 
ATOM     27  C   UNL     1      -1.298   6.834  -7.073  0.00  0.00    +0.120 A 
ATOM     28  C   UNL     1      -0.064   6.294  -6.742  0.00  0.00    +0.046 A 
ATOM     29  C   UNL     1       0.063   5.506  -5.614  0.00  0.00    +0.007 A 
BRANCH  27  30
ATOM     30  O   UNL     1      -1.427   7.610  -8.181  0.00  0.00    -0.495 OA
ATOM     31  C   UNL     1      -2.727   8.132  -8.461  0.00  0.00    +0.277 C 
ENDBRANCH  27  30
ENDBRANCH   5  24
BRANCH  11  32
ATOM     32  C   UNL     1      -1.740   2.302   2.496  0.00  0.00    +0.338 C 
ATOM     33  O   UNL     1      -1.820   2.958   3.518  0.00  0.00    -0.245 OA
BRANCH  32  34
ATOM     34  O   UNL     1      -1.949   0.969   2.532  0.00  0.00    -0.458 OA
BRANCH  34  35
ATOM     35  C   UNL     1      -2.260   0.396   3.804  0.00  0.00    +0.177 C 
ATOM     36  C   UNL     1      -0.966  -0.023   4.505  0.00  0.00    +0.044 C 
ATOM     37  C   UNL     1      -1.300  -0.637   5.866  0.00  0.00    +0.004 C 
ATOM     38  C   UNL     1      -2.192  -1.864   5.667  0.00  0.00    +0.000 C 
ATOM     39  C   UNL     1      -3.486  -1.446   4.966  0.00  0.00    +0.004 C 
ATOM     40  C   UNL     1      -3.152  -0.831   3.605  0.00  0.00    +0.044 C 
ENDBRANCH  34  35
ENDBRANCH  32  34
ENDBRANCH  11  32
TORSDOF 9
