REMARK  Name = ZINC44592894
REMARK  3 active torsions:
REMARK  status: ('A' for Active; 'I' for Inactive)
REMARK    1  A    between atoms: C_1  and  C_2
REMARK    2  A    between atoms: C_2  and  N_3
REMARK    3  A    between atoms: C_12  and  C_13
REMARK                            x       y       z     vdW  Elec       q    Type
REMARK                         _______ _______ _______ _____ _____    ______ ____
ROOT
ATOM      1  N   UNL     1       0.688  -0.476  -1.203  0.00  0.00    -0.325 N 
ATOM      2  C   UNL     1       0.103  -0.745  -2.425  0.00  0.00    +0.087 A 
ATOM      3  C   UNL     1       1.145  -1.168  -3.269  0.00  0.00    +0.091 A 
ATOM      4  C   UNL     1       0.860  -1.516  -4.592  0.00  0.00    +0.030 A 
ATOM      5  C   UNL     1      -0.424  -1.442  -5.054  0.00  0.00    +0.004 A 
ATOM      6  C   UNL     1      -1.453  -1.025  -4.223  0.00  0.00    +0.022 A 
ATOM      7  C   UNL     1      -1.195  -0.676  -2.913  0.00  0.00    +0.067 A 
ATOM      8 CL   UNL     1      -2.489  -0.154  -1.878  0.00  0.00    -0.081 Cl
ATOM      9  N   UNL     1       2.286  -1.137  -2.534  0.00  0.00    -0.230 NA
ATOM     10  C   UNL     1       2.019  -0.727  -1.328  0.00  0.00    +0.132 A 
ENDROOT
BRANCH  10  11
ATOM     11  C   UNL     1       3.036  -0.558  -0.229  0.00  0.00    +0.152 C 
ATOM     12  C   UNL     1       3.865   0.697  -0.486  0.00  0.00    -0.013 A 
ATOM     13  C   UNL     1       3.332   1.902  -0.935  0.00  0.00    +0.013 A 
ATOM     14  C   UNL     1       4.142   2.967  -1.139  0.00  0.00    +0.046 A 
ATOM     15  S   UNL     1       5.742   2.303  -0.698  0.00  0.00    -0.101 S 
ATOM     16  C   UNL     1       5.211   0.668  -0.276  0.00  0.00    -0.004 A 
ATOM     17  C   UNL     1       6.014  -0.497   0.204  0.00  0.00    +0.058 C 
ATOM     18  C   UNL     1       5.034  -1.547   0.755  0.00  0.00    +0.087 C 
ATOM     19  N   UNL     1       3.932  -1.720  -0.203  0.00  0.00    -0.303 NA
ATOM     20  H   UNL     1       3.419  -2.569  -0.018  0.00  0.00    +0.123 HD
ENDBRANCH  10  11
BRANCH   1  22
ATOM     21  C   UNL     1      -0.019   1.526   0.010  0.00  0.00    +0.027 C 
ATOM     22  C   UNL     1       0.002  -0.004   0.002  0.00  0.00    +0.120 C 
ENDBRANCH   1  22
TORSDOF 2
