REMARK  Name = ZINC08967624
REMARK  4 active torsions:
REMARK  status: ('A' for Active; 'I' for Inactive)
REMARK    1  A    between atoms: C_1  and  C_2
REMARK    2  A    between atoms: C_2  and  C_3
REMARK    3  A    between atoms: C_2  and  C_4
REMARK    4  A    between atoms: C_14  and  C_16
REMARK                            x       y       z     vdW  Elec       q    Type
REMARK                         _______ _______ _______ _____ _____    ______ ____
ROOT
ATOM      1  C   UNL     1      -3.734  12.798   0.036  0.00  0.00    -0.018 A 
ATOM      2  C   UNL     1      -3.398  14.038  -0.443  0.00  0.00    +0.006 A 
ATOM      3  C   UNL     1      -2.211  14.254  -1.127  0.00  0.00    +0.001 A 
ATOM      4  C   UNL     1      -1.345  13.194  -1.331  0.00  0.00    +0.017 A 
ATOM      5  C   UNL     1      -1.672  11.950  -0.855  0.00  0.00    +0.041 A 
ATOM      6  C   UNL     1      -2.873  11.693  -0.154  0.00  0.00    +0.084 A 
ATOM      7  N   UNL     1      -3.052  10.417   0.251  0.00  0.00    -0.224 NA
ATOM      8  C   UNL     1      -2.174   9.471   0.013  0.00  0.00    +0.166 A 
ATOM      9  S   UNL     1      -0.895  10.352  -0.872  0.00  0.00    -0.052 S 
ATOM     10  N   UNL     1      -2.222   8.132   0.364  0.00  0.00    -0.262 N 
ATOM     11  C   UNL     1      -1.210   7.309   0.025  0.00  0.00    +0.263 C 
ATOM     12  O   UNL     1      -0.256   7.742  -0.587  0.00  0.00    -0.271 OA
ATOM     13  H   UNL     1      -2.985   7.786   0.854  0.00  0.00    +0.157 HD
ENDROOT
BRANCH  11  14
ATOM     14  C   UNL     1      -1.263   5.852   0.407  0.00  0.00    +0.296 C 
ATOM     15  C   UNL     1      -2.424   5.167  -0.326  0.00  0.00    +0.283 C 
ATOM     16  O   UNL     1      -2.437   3.785   0.048  0.00  0.00    -0.484 OA
ATOM     17  C   UNL     1      -1.241   3.136   0.030  0.00  0.00    +0.162 A 
ATOM     18  C   UNL     1      -1.219   1.749   0.017  0.00  0.00    +0.049 A 
ATOM     19  C   UNL     1      -0.013   1.076   0.008  0.00  0.00    +0.004 A 
ATOM     20  C   UNL     1       1.176   1.782   0.000  0.00  0.00    +0.004 A 
ATOM     21  C   UNL     1       1.161   3.164   0.007  0.00  0.00    +0.049 A 
ATOM     22  C   UNL     1      -0.046   3.846   0.020  0.00  0.00    +0.163 A 
ATOM     23  O   UNL     1      -0.045   5.207   0.019  0.00  0.00    -0.473 OA
ENDBRANCH  11  14
BRANCH   1  25
ATOM     24  C   UNL     1      -5.053  13.509   2.012  0.00  0.00    +0.012 C 
ATOM     25  C   UNL     1      -5.035  12.612   0.773  0.00  0.00    +0.015 C 
ATOM     26  C   UNL     1      -6.200  12.987  -0.145  0.00  0.00    +0.012 C 
ENDBRANCH   1  25
TORSDOF 2
