REMARK  Name = ZINC36947746
REMARK  7 active torsions:
REMARK  status: ('A' for Active; 'I' for Inactive)
REMARK    1  A    between atoms: C_1  and  C_2
REMARK    2  A    between atoms: C_2  and  C_3
REMARK    3  A    between atoms: C_2  and  C_4
REMARK    4  A    between atoms: C_2  and  C_5
REMARK    5  A    between atoms: C_6  and  N_13
REMARK    6  A    between atoms: N_9  and  C_12
REMARK    7  A    between atoms: N_10  and  C_11
REMARK                            x       y       z     vdW  Elec       q    Type
REMARK                         _______ _______ _______ _____ _____    ______ ____
ROOT
ATOM      1  C   UNL     1       1.070  -0.456  -1.127  0.00  0.00    +0.067 A 
ATOM      2  C   UNL     1       0.974   0.291  -2.247  0.00  0.00    +0.113 A 
ATOM      3  C   UNL     1       0.931  -0.630  -3.383  0.00  0.00    +0.288 A 
ATOM      4  O   UNL     1       0.845  -0.328  -4.559  0.00  0.00    -0.264 OA
ATOM      5  N   UNL     1       1.004  -1.880  -2.879  0.00  0.00    -0.251 N 
ATOM      6  N   UNL     1       1.096  -1.781  -1.486  0.00  0.00    -0.286 N 
ATOM      7  C   UNL     1       1.200  -2.910  -0.559  0.00  0.00    +0.170 C 
ATOM      8  C   UNL     1       0.994  -3.123  -3.655  0.00  0.00    +0.174 C 
ENDROOT
BRANCH   1  10
ATOM      9  C   UNL     1       0.892   1.584   0.271  0.00  0.00    +0.017 C 
ATOM     10  C   UNL     1       1.144   0.075   0.281  0.00  0.00    +0.006 C 
ATOM     11  C   UNL     1       2.532  -0.207   0.860  0.00  0.00    +0.017 C 
ATOM     12  C   UNL     1       0.083  -0.613   1.142  0.00  0.00    +0.017 C 
ENDBRANCH   1  10
BRANCH   2  13
ATOM     13  N   UNL     1       0.923   1.700  -2.311  0.00  0.00    -0.352 N 
ATOM     14  H   UNL     1       0.465   2.201  -1.617  0.00  0.00    +0.143 HD
ATOM     15  H   UNL     1       1.345   2.168  -3.048  0.00  0.00    +0.143 HD
ENDBRANCH   2  13
TORSDOF 2
