REMARK  Name = ZINC16038309
REMARK  8 active torsions:
REMARK  status: ('A' for Active; 'I' for Inactive)
REMARK    1  A    between atoms: C_1  and  C_2
REMARK    2  A    between atoms: C_2  and  C_3
REMARK    3  A    between atoms: C_2  and  C_4
REMARK    4  A    between atoms: C_2  and  O_5
REMARK    5  A    between atoms: O_5  and  C_6
REMARK    6  A    between atoms: C_6  and  C_8
REMARK    7  A    between atoms: C_10  and  C_34
REMARK    8  A    between atoms: C_37  and  N_40
REMARK                            x       y       z     vdW  Elec       q    Type
REMARK                         _______ _______ _______ _____ _____    ______ ____
ROOT
ATOM      1  C   UNL     1       1.298   1.763  -0.218  0.00  0.00    +0.210 C 
ATOM      2  C   UNL     1       2.062   1.919   1.127  0.00  0.00    +0.075 C 
ATOM      3  C   UNL     1       1.321   3.110   1.770  0.00  0.00    +0.129 C 
ATOM      4  C   UNL     1       0.862   3.969   0.592  0.00  0.00    +0.146 C 
ATOM      5  N   UNL     1       1.030   3.145  -0.627  0.00  0.00    -0.232 N 
ATOM      6  N   UNL     1       0.989   3.687  -1.918  0.00  0.00    -0.191 NA
ATOM      7  C   UNL     1       1.462   4.899  -2.060  0.00  0.00    +0.138 C 
ATOM      8  C   UNL     1       2.022   5.610  -0.894  0.00  0.00    -0.000 A 
ATOM      9  C   UNL     1       1.739   5.180   0.408  0.00  0.00    -0.016 A 
ATOM     10  C   UNL     1       2.260   5.852   1.489  0.00  0.00    +0.006 A 
ATOM     11  C   UNL     1       3.070   6.958   1.292  0.00  0.00    +0.000 A 
ATOM     12  C   UNL     1       3.359   7.390   0.009  0.00  0.00    +0.001 A 
ATOM     13  C   UNL     1       2.841   6.725  -1.083  0.00  0.00    +0.010 A 
ATOM     14  C   UNL     1       0.159   2.633   2.598  0.00  0.00    +0.180 C 
ATOM     15  O   UNL     1      -0.789   1.986   2.209  0.00  0.00    -0.291 OA
ATOM     16  C   UNL     1       0.396   3.101   3.966  0.00  0.00    +0.029 A 
ATOM     17  C   UNL     1      -0.386   2.918   5.110  0.00  0.00    +0.012 A 
ATOM     18  C   UNL     1       0.084   3.477   6.292  0.00  0.00    +0.001 A 
ATOM     19  C   UNL     1       1.269   4.183   6.348  0.00  0.00    +0.001 A 
ATOM     20  C   UNL     1       2.064   4.379   5.227  0.00  0.00    +0.012 A 
ATOM     21  C   UNL     1       1.613   3.828   4.023  0.00  0.00    +0.029 A 
ATOM     22  C   UNL     1       2.231   3.871   2.696  0.00  0.00    +0.180 C 
ATOM     23  O   UNL     1       3.274   4.414   2.401  0.00  0.00    -0.291 OA
ENDROOT
BRANCH   2  24
ATOM     24  C   UNL     1       1.926   0.679   1.972  0.00  0.00    -0.040 A 
ATOM     25  C   UNL     1       1.844   0.786   3.348  0.00  0.00    +0.006 A 
ATOM     26  C   UNL     1       1.714  -0.351   4.123  0.00  0.00    +0.033 A 
ATOM     27  C   UNL     1       1.676  -1.596   3.523  0.00  0.00    +0.126 A 
ATOM     28  C   UNL     1       1.764  -1.703   2.148  0.00  0.00    +0.033 A 
ATOM     29  C   UNL     1       1.888  -0.566   1.373  0.00  0.00    +0.006 A 
BRANCH  27  30
ATOM     30  N   UNL     1       1.542  -2.814   4.354  0.00  0.00    +0.056 N 
ATOM     31  O   UNL     1       1.509  -3.911   3.825  0.00  0.00    -0.126 OA
ATOM     32  O   UNL     1       1.465  -2.720   5.565  0.00  0.00    -0.126 OA
ENDBRANCH  27  30
ENDBRANCH   2  24
BRANCH   1  33
ATOM     33  C   UNL     1       0.009   1.012  -0.011  0.00  0.00    +0.331 C 
ATOM     34  O   UNL     1      -1.036   1.614   0.068  0.00  0.00    -0.249 OA
BRANCH  33  35
ATOM     35  O   UNL     1       0.019  -0.328   0.079  0.00  0.00    -0.458 OA
BRANCH  35  37
ATOM     36  C   UNL     1      -2.119  -0.601  -1.054  0.00  0.00    +0.055 C 
ATOM     37  C   UNL     1      -1.269  -0.993   0.156  0.00  0.00    +0.105 C 
ATOM     38  C   UNL     1      -1.060  -2.509   0.163  0.00  0.00    +0.055 C 
ATOM     39  C   UNL     1      -1.985  -0.571   1.440  0.00  0.00    +0.055 C 
ENDBRANCH  35  37
ENDBRANCH  33  35
ENDBRANCH   1  33
TORSDOF 5
