REMARK  Name = ZINC16167831
REMARK  8 active torsions:
REMARK  status: ('A' for Active; 'I' for Inactive)
REMARK    1  A    between atoms: C_1  and  C_2
REMARK    2  A    between atoms: C_5  and  N_9
REMARK    3  A    between atoms: C_6  and  C_8
REMARK    4  A    between atoms: C_13  and  C_15
REMARK    5  A    between atoms: C_15  and  O_16
REMARK    6  A    between atoms: O_16  and  C_17
REMARK    7  A    between atoms: C_17  and  C_19
REMARK    8  A    between atoms: C_19  and  C_24
REMARK                            x       y       z     vdW  Elec       q    Type
REMARK                         _______ _______ _______ _____ _____    ______ ____
ROOT
ATOM      1  O   UNL     1       4.945   1.042   1.165  0.00  0.00    -0.455 OA
ENDROOT
BRANCH   1   2
ATOM      2  C   UNL     1       4.606  -0.253   1.075  0.00  0.00    +0.318 C 
ATOM      3  O   UNL     1       5.014  -1.044   1.892  0.00  0.00    -0.250 OA
BRANCH   2   4
ATOM      4  C   UNL     1       3.715  -0.722  -0.047  0.00  0.00    +0.093 C 
ATOM      5  C   UNL     1       4.400  -0.472  -1.407  0.00  0.00    +0.023 C 
ATOM      6  C   UNL     1       5.078  -1.823  -1.744  0.00  0.00    +0.001 C 
ATOM      7  C   UNL     1       4.044  -2.860  -1.240  0.00  0.00    +0.001 C 
ATOM      8  C   UNL     1       3.489  -2.240   0.059  0.00  0.00    +0.023 C 
BRANCH   4   9
ATOM      9  C   UNL     1       2.394   0.002   0.006  0.00  0.00    -0.027 A 
ATOM     10  C   UNL     1       1.473  -0.169  -1.010  0.00  0.00    +0.008 A 
ATOM     11  C   UNL     1       0.261   0.494  -0.966  0.00  0.00    +0.050 A 
ATOM     12  C   UNL     1      -0.034   1.333   0.099  0.00  0.00    +0.162 A 
ATOM     13  C   UNL     1       0.892   1.502   1.123  0.00  0.00    +0.162 A 
ATOM     14  C   UNL     1       2.107   0.835   1.071  0.00  0.00    +0.054 A 
ATOM     15  O   UNL     1       0.620   2.313   2.181  0.00  0.00    -0.485 OA
ATOM     16  C   UNL     1      -0.447   3.253   2.013  0.00  0.00    +0.270 C 
ATOM     17  C   UNL     1      -1.641   2.519   1.389  0.00  0.00    +0.270 C 
ATOM     18  O   UNL     1      -1.228   1.986   0.125  0.00  0.00    -0.485 OA
ENDBRANCH   4   9
ENDBRANCH   2   4
ENDBRANCH   1   2
BRANCH   1  19
ATOM     19  C   UNL     1       5.806   1.422   2.272  0.00  0.00    +0.328 C 
BRANCH  19  24
ATOM     20  N   UNL     1       7.883   5.389   4.021  0.00  0.00    -0.269 N 
ATOM     21  C   UNL     1       7.102   4.808   3.089  0.00  0.00    +0.310 C 
ATOM     22  O   UNL     1       6.617   5.479   2.199  0.00  0.00    -0.252 OA
ATOM     23  N   UNL     1       6.859   3.484   3.143  0.00  0.00    -0.237 N 
ATOM     24  C   UNL     1       6.078   2.903   2.211  0.00  0.00    +0.258 C 
ATOM     25  O   UNL     1       5.594   3.572   1.323  0.00  0.00    -0.272 OA
ATOM     26  H   UNL     1       8.316   4.845   4.698  0.00  0.00    +0.156 HD
ATOM     27  H   UNL     1       7.246   2.948   3.853  0.00  0.00    +0.159 HD
BRANCH  20  32
ATOM     28  C   UNL     1       8.635  11.012   3.990  0.00  0.00    +0.044 C 
ATOM     29  C   UNL     1       8.436   9.518   3.998  0.00  0.00    -0.050 A 
ATOM     30  C   UNL     1       8.115   8.858   2.826  0.00  0.00    +0.005 A 
ATOM     31  C   UNL     1       7.931   7.490   2.830  0.00  0.00    +0.024 A 
ATOM     32  C   UNL     1       8.069   6.776   4.013  0.00  0.00    +0.038 A 
ATOM     33  C   UNL     1       8.386   7.442   5.190  0.00  0.00    -0.029 A 
ATOM     34  C   UNL     1       8.574   8.810   5.178  0.00  0.00    +0.008 A 
ATOM     35  C   UNL     1       8.530   6.672   6.477  0.00  0.00    +0.045 C 
ENDBRANCH  20  32
ENDBRANCH  19  24
ENDBRANCH   1  19
TORSDOF 6
