REMARK  Name = ZINC47858288
REMARK  9 active torsions:
REMARK  status: ('A' for Active; 'I' for Inactive)
REMARK    1  A    between atoms: C_1  and  C_2
REMARK    2  A    between atoms: C_2  and  S_3
REMARK    3  A    between atoms: S_3  and  C_4
REMARK    4  A    between atoms: C_9  and  N_10
REMARK    5  A    between atoms: N_13  and  C_14
REMARK    6  A    between atoms: C_14  and  C_16
REMARK    7  A    between atoms: C_14  and  C_17
REMARK    8  A    between atoms: C_20  and  N_23
REMARK    9  A    between atoms: N_26  and  C_27
REMARK                            x       y       z     vdW  Elec       q    Type
REMARK                         _______ _______ _______ _____ _____    ______ ____
ROOT
ATOM      1  C   UNL     1      -7.385  -3.742  -0.245  0.00  0.00    +0.102 C 
ATOM      2  C   UNL     1      -7.599  -4.117  -1.713  0.00  0.00    +0.033 C 
ENDROOT
BRANCH   1   6
ATOM      3  N   UNL     1      -3.900  -2.612   0.070  0.00  0.00    -0.268 N 
ATOM      4  C   UNL     1      -4.979  -3.412  -0.037  0.00  0.00    +0.304 C 
ATOM      5  O   UNL     1      -4.842  -4.620  -0.050  0.00  0.00    -0.252 OA
ATOM      6  N   UNL     1      -6.211  -2.873  -0.129  0.00  0.00    -0.293 N 
ATOM      7  H   UNL     1      -4.013  -1.652   0.147  0.00  0.00    +0.156 HD
ATOM      8  H   UNL     1      -6.321  -1.909  -0.119  0.00  0.00    +0.151 HD
BRANCH   3  14
ATOM      9  C   UNL     1      -1.555  -2.484  -0.529  0.00  0.00    +0.029 A 
ATOM     10  C   UNL     1      -0.283  -3.038  -0.521  0.00  0.00    +0.016 A 
ATOM     11  C   UNL     1      -0.068  -4.266   0.075  0.00  0.00    +0.001 A 
ATOM     12  C   UNL     1      -1.118  -4.947   0.664  0.00  0.00    +0.002 A 
ATOM     13  C   UNL     1      -2.389  -4.403   0.660  0.00  0.00    +0.024 A 
ATOM     14  C   UNL     1      -2.613  -3.169   0.070  0.00  0.00    +0.048 A 
BRANCH   9  15
ATOM     15  S   UNL     1      -1.833  -0.918  -1.288  0.00  0.00    -0.124 S 
BRANCH  15  17
ATOM     16  C   UNL     1      -0.297   0.924  -2.603  0.00  0.00    +0.015 C 
ATOM     17  C   UNL     1      -0.198  -0.437  -1.911  0.00  0.00    +0.071 C 
ENDBRANCH  15  17
ENDBRANCH   9  15
ENDBRANCH   3  14
ENDBRANCH   1   6
BRANCH   1  18
ATOM     18  C   UNL     1      -8.601  -3.016   0.271  0.00  0.00    -0.027 A 
ATOM     19  C   UNL     1      -8.776  -1.675  -0.017  0.00  0.00    +0.007 A 
ATOM     20  C   UNL     1      -9.889  -1.006   0.455  0.00  0.00    +0.023 A 
ATOM     21  C   UNL     1     -10.833  -1.683   1.217  0.00  0.00    +0.035 A 
ATOM     22  C   UNL     1     -10.653  -3.029   1.504  0.00  0.00    +0.023 A 
ATOM     23  C   UNL     1      -9.540  -3.693   1.025  0.00  0.00    +0.007 A 
BRANCH  21  24
ATOM     24  N   UNL     1     -11.961  -1.008   1.696  0.00  0.00    -0.269 N 
ATOM     25  C   UNL     1     -12.536  -0.043   0.952  0.00  0.00    +0.304 C 
ATOM     26  O   UNL     1     -12.027   0.300  -0.098  0.00  0.00    -0.253 OA
ATOM     27  N   UNL     1     -13.675   0.543   1.371  0.00  0.00    -0.296 N 
ATOM     28  H   UNL     1     -12.330  -1.236   2.564  0.00  0.00    +0.156 HD
ATOM     29  H   UNL     1     -14.082   0.270   2.208  0.00  0.00    +0.151 HD
BRANCH  27  30
ATOM     30  C   UNL     1     -14.300   1.592   0.561  0.00  0.00    +0.075 C 
ATOM     31  C   UNL     1     -14.818   2.833   1.291  0.00  0.00    +0.024 C 
ATOM     32  C   UNL     1     -15.806   1.810   0.727  0.00  0.00    +0.024 C 
ENDBRANCH  27  30
ENDBRANCH  21  24
ENDBRANCH   1  18
TORSDOF 7
