REMARK  Name = ZINC15797174
REMARK  5 active torsions:
REMARK  status: ('A' for Active; 'I' for Inactive)
REMARK    1  A    between atoms: C_1  and  C_2
REMARK    2  A    between atoms: C_8  and  N_10
REMARK    3  A    between atoms: C_11  and  C_13
REMARK    4  A    between atoms: C_16  and  N_22
REMARK    5  A    between atoms: C_17  and  N_19
REMARK                            x       y       z     vdW  Elec       q    Type
REMARK                         _______ _______ _______ _____ _____    ______ ____
ROOT
ATOM      1  C   UNL     1      -1.237   3.135   0.022  0.00  0.00    +0.039 A 
ATOM      2  C   UNL     1      -1.206   1.740   0.100  0.00  0.00    +0.015 A 
ATOM      3  C   UNL     1       0.000   1.079   0.100  0.00  0.00    +0.026 A 
ATOM      4  C   UNL     1       1.190   1.797   0.010  0.00  0.00    +0.060 A 
ATOM      5  C   UNL     1       1.162   3.187  -0.074  0.00  0.00    +0.148 A 
ATOM      6  C   UNL     1      -0.042   3.854  -0.068  0.00  0.00    +0.047 A 
ENDROOT
BRANCH   4   7
ATOM      7  N   UNL     1       2.407   1.126   0.004  0.00  0.00    -0.328 N 
ATOM      8  C   UNL     1       2.519   0.216   1.173  0.00  0.00    +0.105 C 
ATOM      9  C   UNL     1       3.618  -0.786   0.738  0.00  0.00    +0.020 C 
ATOM     10  C   UNL     1       3.330  -0.983  -0.768  0.00  0.00    +0.020 C 
ATOM     11  C   UNL     1       2.532   0.264  -1.191  0.00  0.00    +0.105 C 
ENDBRANCH   4   7
BRANCH   1  13
ATOM     12  N   UNL     1      -3.681   3.153   0.116  0.00  0.00    -0.308 N 
ATOM     13  C   UNL     1      -2.529   3.848   0.029  0.00  0.00    +0.244 C 
ATOM     14  O   UNL     1      -2.554   5.061  -0.044  0.00  0.00    -0.270 OA
ATOM     15  H   UNL     1      -3.660   2.185   0.174  0.00  0.00    +0.149 HD
BRANCH  12  22
ATOM     16  C   UNL     1      -5.574   2.733   2.267  0.00  0.00    +0.009 C 
ATOM     17  C   UNL     1      -6.016   3.002   0.827  0.00  0.00    +0.006 C 
ATOM     18  C   UNL     1      -6.170   1.673   0.084  0.00  0.00    +0.005 C 
ATOM     19  C   UNL     1      -6.612   1.942  -1.356  0.00  0.00    +0.000 C 
ATOM     20  C   UNL     1      -5.560   2.801  -2.060  0.00  0.00    +0.002 C 
ATOM     21  C   UNL     1      -5.405   4.130  -1.318  0.00  0.00    +0.022 C 
ATOM     22  C   UNL     1      -4.964   3.861   0.122  0.00  0.00    +0.076 C 
ENDBRANCH  12  22
ENDBRANCH   1  13
BRANCH   5  23
ATOM     23  N   UNL     1       2.428   3.947  -0.170  0.00  0.00    +0.058 N 
ATOM     24  O   UNL     1       2.411   5.164  -0.144  0.00  0.00    -0.126 OA
ATOM     25  O   UNL     1       3.488   3.355  -0.274  0.00  0.00    -0.126 OA
ENDBRANCH   5  23
TORSDOF 4
