REMARK  Name = ZINC28928232
REMARK  7 active torsions:
REMARK  status: ('A' for Active; 'I' for Inactive)
REMARK    1  A    between atoms: C_1  and  N_2
REMARK    2  A    between atoms: N_2  and  C_3
REMARK    3  A    between atoms: N_2  and  C_20
REMARK    4  A    between atoms: C_3  and  C_4
REMARK    5  A    between atoms: C_8  and  C_17
REMARK    6  A    between atoms: C_20  and  C_21
REMARK    7  A    between atoms: C_20  and  C_27
REMARK                            x       y       z     vdW  Elec       q    Type
REMARK                         _______ _______ _______ _____ _____    ______ ____
ROOT
ATOM      1  C   UNL     1      -2.107   1.485  -1.210  0.00  0.00    +0.020 C 
ENDROOT
BRANCH   1   2
ATOM      2  C   UNL     1      -2.733   1.808  -2.542  0.00  0.00    +0.203 C 
ATOM      3  O   UNL     1      -2.123   2.471  -3.354  0.00  0.00    -0.277 OA
ATOM      4  N   UNL     1      -3.971   1.361  -2.831  0.00  0.00    -0.266 N 
ATOM      5  C   UNL     1      -4.785   0.663  -1.820  0.00  0.00    +0.168 C 
ATOM      6  C   UNL     1      -6.222   1.191  -1.937  0.00  0.00    +0.276 C 
ATOM      7  O   UNL     1      -6.693   0.955  -3.266  0.00  0.00    -0.476 OA
ATOM      8  C   UNL     1      -5.896   1.338  -4.298  0.00  0.00    +0.143 A 
ATOM      9  C   UNL     1      -4.534   1.549  -4.105  0.00  0.00    +0.078 A 
ATOM     10  C   UNL     1      -3.734   1.940  -5.166  0.00  0.00    +0.027 A 
ATOM     11  C   UNL     1      -4.293   2.127  -6.418  0.00  0.00    +0.002 A 
ATOM     12  C   UNL     1      -5.647   1.924  -6.609  0.00  0.00    +0.004 A 
ATOM     13  C   UNL     1      -6.445   1.524  -5.557  0.00  0.00    +0.047 A 
BRANCH   6  14
ATOM     14  C   UNL     1      -7.106   0.470  -0.952  0.00  0.00    +0.253 C 
ATOM     15  O   UNL     1      -8.000  -0.245  -1.351  0.00  0.00    -0.272 OA
ATOM     16  N   UNL     1      -6.904   0.621   0.371  0.00  0.00    -0.326 N 
ATOM     17  H   UNL     1      -7.549   0.095   1.090  0.00  0.00    +0.145 HD
ATOM     18  H   UNL     1      -6.093   1.270   0.733  0.00  0.00    +0.145 HD
ENDBRANCH   6  14
ENDBRANCH   1   2
BRANCH   1  20
ATOM     19  C   UNL     1      -1.037   3.649  -1.029  0.00  0.00    -0.094 C 
ATOM     20  N   UNL     1      -0.828   2.196  -1.085  0.00  0.00    +0.391 N 
ATOM     21  H   UNL     1      -0.229   1.975  -1.980  0.00  0.00    -0.080 HD
BRANCH  20  22
ATOM     22  C   UNL     1      -0.077   1.727   0.087  0.00  0.00    -0.007 C 
BRANCH  22  23
ATOM     23  C   UNL     1       0.202   0.253  -0.052  0.00  0.00    -0.057 A 
ATOM     24  C   UNL     1       0.549  -0.272  -1.283  0.00  0.00    +0.002 A 
ATOM     25  C   UNL     1       0.810  -1.623  -1.409  0.00  0.00    +0.000 A 
ATOM     26  C   UNL     1       0.713  -2.452  -0.307  0.00  0.00    +0.000 A 
ATOM     27  C   UNL     1       0.362  -1.929   0.923  0.00  0.00    +0.000 A 
ATOM     28  C   UNL     1       0.106  -0.576   1.050  0.00  0.00    +0.002 A 
ENDBRANCH  22  23
BRANCH  22  29
ATOM     29  C   UNL     1       1.226   2.478   0.183  0.00  0.00    -0.057 A 
ATOM     30  C   UNL     1       1.951   2.753  -0.962  0.00  0.00    +0.002 A 
ATOM     31  C   UNL     1       3.144   3.447  -0.875  0.00  0.00    +0.000 A 
ATOM     32  C   UNL     1       3.617   3.855   0.358  0.00  0.00    +0.000 A 
ATOM     33  C   UNL     1       2.895   3.576   1.503  0.00  0.00    +0.000 A 
ATOM     34  C   UNL     1       1.700   2.887   1.416  0.00  0.00    +0.002 A 
ENDBRANCH  22  29
ENDBRANCH  20  22
ENDBRANCH   1  20
TORSDOF 6
