REMARK  Name = ZINC12522093
REMARK  7 active torsions:
REMARK  status: ('A' for Active; 'I' for Inactive)
REMARK    1  A    between atoms: C_1  and  C_2
REMARK    2  A    between atoms: C_9  and  C_14
REMARK    3  A    between atoms: C_14  and  S_15
REMARK    4  A    between atoms: S_15  and  C_16
REMARK    5  A    between atoms: C_19  and  C_27
REMARK    6  A    between atoms: N_20  and  C_21
REMARK    7  A    between atoms: C_27  and  N_58
REMARK                            x       y       z     vdW  Elec       q    Type
REMARK                         _______ _______ _______ _____ _____    ______ ____
ROOT
ATOM      1  C   UNL     1      -5.176  -2.665   0.036  0.00  0.00    +0.196 A 
ATOM      2  N   UNL     1      -5.128  -3.977   0.023  0.00  0.00    -0.122 NA
ATOM      3  N   UNL     1      -6.319  -4.459   0.038  0.00  0.00    -0.135 NA
ATOM      4  C   UNL     1      -7.194  -3.493   0.051  0.00  0.00    +0.122 A 
ATOM      5  N   UNL     1      -6.498  -2.314   0.051  0.00  0.00    -0.276 N 
ENDROOT
BRANCH   5   6
ATOM      6  C   UNL     1      -7.029  -1.016   0.062  0.00  0.00    +0.050 A 
ATOM      7  C   UNL     1      -7.757  -0.572   1.158  0.00  0.00    +0.026 A 
ATOM      8  C   UNL     1      -8.276   0.708   1.168  0.00  0.00    +0.002 A 
ATOM      9  C   UNL     1      -8.079   1.544   0.084  0.00  0.00    +0.000 A 
ATOM     10  C   UNL     1      -7.358   1.103  -1.010  0.00  0.00    +0.002 A 
ATOM     11  C   UNL     1      -6.833  -0.174  -1.024  0.00  0.00    +0.026 A 
ENDBRANCH   5   6
BRANCH   1  12
ATOM     12  S   UNL     1      -3.799  -1.566   0.029  0.00  0.00    -0.078 S 
BRANCH  12  13
ATOM     13  C   UNL     1      -2.441  -2.763   0.010  0.00  0.00    +0.151 C 
BRANCH  13  22
ATOM     14  C   UNL     1      -1.330   2.131   0.020  0.00  0.00    +0.046 C 
ATOM     15  C   UNL     1      -0.017   1.392   0.010  0.00  0.00    -0.024 A 
ATOM     16  C   UNL     1       1.170   2.090   0.002  0.00  0.00    +0.005 A 
ATOM     17  C   UNL     1       2.388   1.423  -0.013  0.00  0.00    +0.001 A 
ATOM     18  C   UNL     1       2.432   0.046  -0.021  0.00  0.00    +0.015 A 
ATOM     19  C   UNL     1       1.243  -0.679  -0.013  0.00  0.00    +0.065 A 
ATOM     20  C   UNL     1       0.002  -0.004   0.002  0.00  0.00    +0.081 A 
ATOM     21  N   UNL     1      -1.143  -0.732   0.009  0.00  0.00    -0.233 NA
ATOM     22  C   UNL     1      -1.125  -2.030   0.001  0.00  0.00    +0.121 A 
ATOM     23  N   UNL     1       0.020  -2.761  -0.014  0.00  0.00    -0.310 N 
ATOM     24  H   UNL     1      -0.028  -3.730  -0.019  0.00  0.00    +0.170 HD
ATOM     25  C   UNL     1       1.228  -2.150  -0.022  0.00  0.00    +0.259 A 
ATOM     26  O   UNL     1       2.262  -2.793  -0.035  0.00  0.00    -0.267 OA
ENDBRANCH  13  22
ENDBRANCH  12  13
ENDBRANCH   1  12
BRANCH   4  27
ATOM     27  C   UNL     1      -8.693  -3.646   0.064  0.00  0.00    -0.001 C 
BRANCH  27  33
ATOM     28  C   UNL     1      -8.973  -2.405  -1.995  0.00  0.00    -0.078 C 
ATOM     29  C   UNL     1      -9.371  -2.530  -3.468  0.00  0.00    -0.019 C 
ATOM     30  C   UNL     1     -10.845  -2.932  -3.560  0.00  0.00    -0.004 C 
ATOM     31  C   UNL     1     -11.057  -4.247  -2.804  0.00  0.00    -0.019 C 
ATOM     32  C   UNL     1     -10.610  -4.072  -1.351  0.00  0.00    -0.078 C 
ATOM     33  N   UNL     1      -9.177  -3.709  -1.330  0.00  0.00    +0.384 N 
ATOM     34  H   UNL     1      -8.644  -4.427  -1.835  0.00  0.00    -0.081 HD
ENDBRANCH  27  33
ENDBRANCH   4  27
TORSDOF 6
