REMARK  Name = ZINC39694635
REMARK  6 active torsions:
REMARK  status: ('A' for Active; 'I' for Inactive)
REMARK    1  A    between atoms: N_4  and  C_6
REMARK    2  A    between atoms: C_6  and  C_7
REMARK    3  A    between atoms: C_7  and  N_8
REMARK    4  A    between atoms: C_9  and  C_11
REMARK    5  A    between atoms: C_22  and  C_24
REMARK    6  A    between atoms: C_27  and  C_29
REMARK                            x       y       z     vdW  Elec       q    Type
REMARK                         _______ _______ _______ _____ _____    ______ ____
ROOT
ATOM      1  C   UNL     1       4.523  -5.209  -2.208  0.00  0.00    +0.100 C 
ATOM      2  C   UNL     1       3.331  -6.189  -2.277  0.00  0.00    +0.121 C 
ATOM      3  N   UNL     1       3.179  -6.492  -3.720  0.00  0.00    -0.294 N 
ATOM      4  C   UNL     1       4.569  -6.599  -4.223  0.00  0.00    +0.115 C 
ATOM      5  C   UNL     1       5.335  -5.483  -3.485  0.00  0.00    -0.004 C 
ATOM      6  C   UNL     1       5.400  -4.228  -4.350  0.00  0.00    -0.010 C 
ATOM      7  C   UNL     1       6.259  -4.510  -5.586  0.00  0.00    -0.082 C 
ATOM      8  N   UNL     1       7.608  -4.908  -5.166  0.00  0.00    +0.379 N 
ATOM      9  C   UNL     1       7.546  -6.167  -4.412  0.00  0.00    -0.082 C 
ATOM     10  C   UNL     1       6.741  -5.955  -3.127  0.00  0.00    -0.010 C 
ATOM     11  C   UNL     1       2.035  -6.638  -4.417  0.00  0.00    +0.282 C 
ATOM     12  O   UNL     1       2.075  -6.888  -5.608  0.00  0.00    -0.267 OA
ATOM     13  H   UNL     1       8.190  -5.034  -5.981  0.00  0.00    -0.086 HD
ATOM     14  H   UNL     1       8.004  -4.187  -4.582  0.00  0.00    -0.086 HD
ENDROOT
BRANCH  11  15
ATOM     15  C   UNL     1       0.743  -6.494  -3.742  0.00  0.00    +0.190 A 
ATOM     16  C   UNL     1      -0.496  -6.623  -4.331  0.00  0.00    +0.055 A 
ATOM     17  C   UNL     1      -1.445  -6.408  -3.326  0.00  0.00    +0.050 A 
ATOM     18  C   UNL     1      -0.758  -6.159  -2.173  0.00  0.00    +0.136 A 
ATOM     19  O   UNL     1       0.558  -6.219  -2.434  0.00  0.00    -0.450 OA
BRANCH  18  20
ATOM     20  C   UNL     1      -1.363  -5.876  -0.855  0.00  0.00    +0.017 A 
ATOM     21  C   UNL     1      -2.752  -5.852  -0.712  0.00  0.00    +0.014 A 
ATOM     22  C   UNL     1      -3.311  -5.588   0.521  0.00  0.00    +0.039 A 
ATOM     23  C   UNL     1      -2.496  -5.346   1.616  0.00  0.00    +0.123 A 
ATOM     24  C   UNL     1      -1.117  -5.367   1.480  0.00  0.00    +0.039 A 
ATOM     25  C   UNL     1      -0.547  -5.636   0.253  0.00  0.00    +0.014 A 
ATOM     26  F   UNL     1      -3.049  -5.087   2.821  0.00  0.00    -0.205 F 
ENDBRANCH  18  20
ENDBRANCH  11  15
BRANCH   1  28
ATOM     27  N   UNL     1       4.760  -2.825  -1.593  0.00  0.00    -0.313 N 
ATOM     28  C   UNL     1       4.031  -3.785  -2.196  0.00  0.00    +0.218 C 
ATOM     29  O   UNL     1       2.979  -3.502  -2.728  0.00  0.00    -0.275 OA
ATOM     30  H   UNL     1       5.602  -3.051  -1.167  0.00  0.00    +0.149 HD
BRANCH  27  31
ATOM     31  C   UNL     1       4.282  -1.440  -1.580  0.00  0.00    +0.127 C 
BRANCH  31  32
ATOM     32  C   UNL     1       5.289  -0.559  -0.838  0.00  0.00    +0.162 C 
BRANCH  32  36
ATOM     33  C   UNL     1       4.179   2.800  -0.143  0.00  0.00    +0.041 A 
ATOM     34  C   UNL     1       4.080   2.769  -1.538  0.00  0.00    +0.134 A 
ATOM     35  N   UNL     1       4.458   1.586  -1.948  0.00  0.00    -0.180 NA
ATOM     36  N   UNL     1       4.810   0.825  -0.825  0.00  0.00    -0.270 N 
ATOM     37  C   UNL     1       4.630   1.593   0.270  0.00  0.00    +0.108 A 
ENDBRANCH  32  36
ENDBRANCH  31  32
ENDBRANCH  27  31
ENDBRANCH   1  28
TORSDOF 6
