REMARK  Name = ZINC67286396
REMARK  8 active torsions:
REMARK  status: ('A' for Active; 'I' for Inactive)
REMARK    1  A    between atoms: C_1  and  C_2
REMARK    2  A    between atoms: C_2  and  O_3
REMARK    3  A    between atoms: O_3  and  C_4
REMARK    4  A    between atoms: C_4  and  C_6
REMARK    5  A    between atoms: C_7  and  C_23
REMARK    6  A    between atoms: C_12  and  C_14
REMARK    7  A    between atoms: C_17  and  N_20
REMARK    8  A    between atoms: C_23  and  N_24
REMARK                            x       y       z     vdW  Elec       q    Type
REMARK                         _______ _______ _______ _____ _____    ______ ____
ROOT
ATOM      1  C   UNL     1       1.466  -2.376   2.361  0.00  0.00    +0.079 C 
ATOM      2  C   UNL     1       1.466  -3.699   2.634  0.00  0.00    +0.038 C 
ATOM      3  N   UNL     1       2.061  -4.186   3.762  0.00  0.00    -0.271 N 
ATOM      4  C   UNL     1       2.678  -3.417   4.668  0.00  0.00    +0.304 C 
ATOM      5  O   UNL     1       3.179  -3.943   5.642  0.00  0.00    -0.252 OA
ATOM      6  N   UNL     1       2.761  -2.079   4.534  0.00  0.00    -0.288 N 
ATOM      7  C   UNL     1       2.155  -1.454   3.346  0.00  0.00    +0.144 C 
ATOM      8  H   UNL     1       2.035  -5.144   3.916  0.00  0.00    +0.156 HD
ATOM      9  H   UNL     1       3.212  -1.540   5.203  0.00  0.00    +0.151 HD
ENDROOT
BRANCH   7  10
ATOM     10  C   UNL     1       3.235  -0.706   2.607  0.00  0.00    -0.022 A 
ATOM     11  C   UNL     1       4.447  -1.319   2.349  0.00  0.00    +0.008 A 
ATOM     12  C   UNL     1       5.437  -0.633   1.671  0.00  0.00    +0.033 A 
ATOM     13  C   UNL     1       5.215   0.664   1.250  0.00  0.00    +0.126 A 
ATOM     14  C   UNL     1       4.003   1.277   1.507  0.00  0.00    +0.033 A 
ATOM     15  C   UNL     1       3.011   0.590   2.182  0.00  0.00    +0.008 A 
BRANCH  13  16
ATOM     16  N   UNL     1       6.276   1.399   0.525  0.00  0.00    +0.056 N 
ATOM     17  O   UNL     1       7.337   0.864   0.300  0.00  0.00    -0.126 OA
ATOM     18  O   UNL     1       6.082   2.534   0.157  0.00  0.00    -0.126 OA
ENDBRANCH  13  16
ENDBRANCH   7  10
BRANCH   1  19
ATOM     19  C   UNL     1       0.851  -1.870   1.192  0.00  0.00    +0.339 C 
ATOM     20  O   UNL     1       1.528  -1.590   0.221  0.00  0.00    -0.245 OA
BRANCH  19  21
ATOM     21  O   UNL     1      -0.487  -1.697   1.155  0.00  0.00    -0.462 OA
BRANCH  21  23
ATOM     22  C   UNL     1      -2.559  -1.056   0.090  0.00  0.00    +0.048 C 
ATOM     23  C   UNL     1      -1.041  -1.182  -0.057  0.00  0.00    +0.229 C 
ENDBRANCH  21  23
ENDBRANCH  19  21
ENDBRANCH   1  19
BRANCH   2  24
ATOM     24  C   UNL     1       0.797  -4.652   1.677  0.00  0.00    +0.136 C 
BRANCH  24  25
ATOM     25  N   UNL     1       1.803  -5.553   1.100  0.00  0.00    -0.294 NA
ATOM     26  C   UNL     1       2.753  -4.812   0.259  0.00  0.00    +0.103 C 
ATOM     27  C   UNL     1       3.885  -5.749  -0.175  0.00  0.00    +0.122 C 
ATOM     28  N   UNL     1       3.292  -6.938  -0.806  0.00  0.00    -0.314 N 
ATOM     29  C   UNL     1       2.233  -7.656  -0.080  0.00  0.00    +0.122 C 
ATOM     30  C   UNL     1       1.166  -6.644   0.350  0.00  0.00    +0.103 C 
ATOM     31  C   UNL     1       3.721  -7.372  -2.055  0.00  0.00    +0.099 A 
ATOM     32  C   UNL     1       4.817  -6.763  -2.657  0.00  0.00    +0.042 A 
ATOM     33  C   UNL     1       5.233  -7.205  -3.900  0.00  0.00    +0.005 A 
ATOM     34  C   UNL     1       4.537  -8.245  -4.501  0.00  0.00    +0.018 A 
ATOM     35  C   UNL     1       3.457  -8.803  -3.847  0.00  0.00    +0.084 A 
ATOM     36  N   UNL     1       3.086  -8.365  -2.659  0.00  0.00    -0.350 N 
ATOM     37  H   UNL     1       2.326  -8.777  -2.218  0.00  0.00    +0.166 HD
ENDBRANCH  24  25
ENDBRANCH   2  24
TORSDOF 7
