REMARK  Name = ZINC58572067
REMARK  5 active torsions:
REMARK  status: ('A' for Active; 'I' for Inactive)
REMARK    1  A    between atoms: C_1  and  C_2
REMARK    2  A    between atoms: C_5  and  C_8
REMARK    3  A    between atoms: C_9  and  C_26
REMARK    4  A    between atoms: C_17  and  C_19
REMARK    5  A    between atoms: C_22  and  O_25
REMARK                            x       y       z     vdW  Elec       q    Type
REMARK                         _______ _______ _______ _____ _____    ______ ____
ROOT
ATOM      1  C   UNL     1       0.059  -4.255  -0.021  0.00  0.00    +0.007 A 
ATOM      2  C   UNL     1      -0.989  -4.956  -0.518  0.00  0.00    -0.003 A 
ATOM      3  S   UNL     1      -0.488  -6.653  -0.304  0.00  0.00    -0.073 S 
ATOM      4  C   UNL     1       1.101  -6.386   0.439  0.00  0.00    +0.117 A 
ATOM      5  C   UNL     1       1.209  -4.985   0.499  0.00  0.00    +0.080 A 
ATOM      6  C   UNL     1       2.422  -4.476   1.064  0.00  0.00    +0.261 A 
ATOM      7  O   UNL     1       2.601  -3.275   1.161  0.00  0.00    -0.267 OA
ATOM      8  N   UNL     1       3.361  -5.342   1.486  0.00  0.00    -0.306 N 
ATOM      9  H   UNL     1       4.184  -5.002   1.870  0.00  0.00    +0.170 HD
ATOM     10  C   UNL     1       3.175  -6.693   1.385  0.00  0.00    +0.142 A 
ATOM     11  N   UNL     1       2.064  -7.186   0.879  0.00  0.00    -0.222 NA
ATOM     12  C   UNL     1      -2.270  -4.427  -1.109  0.00  0.00    +0.052 C 
ENDROOT
BRANCH   1  17
ATOM     13  C   UNL     1      -0.018   1.503   0.010  0.00  0.00    +0.044 C 
ATOM     14  C   UNL     1       0.002  -0.004   0.002  0.00  0.00    -0.050 A 
ATOM     15  C   UNL     1       0.006  -0.686  -1.201  0.00  0.00    +0.004 A 
ATOM     16  C   UNL     1       0.024  -2.066  -1.215  0.00  0.00    +0.009 A 
ATOM     17  C   UNL     1       0.040  -2.772  -0.013  0.00  0.00    -0.016 A 
ATOM     18  C   UNL     1       0.036  -2.079   1.196  0.00  0.00    +0.009 A 
ATOM     19  C   UNL     1       0.023  -0.699   1.198  0.00  0.00    +0.004 A 
ENDBRANCH   1  17
BRANCH  10  20
ATOM     20  C   UNL     1       4.229  -7.611   1.859  0.00  0.00    +0.018 A 
ATOM     21  C   UNL     1       5.406  -7.101   2.413  0.00  0.00    +0.015 A 
ATOM     22  C   UNL     1       6.387  -7.961   2.855  0.00  0.00    +0.046 A 
ATOM     23  C   UNL     1       6.207  -9.335   2.751  0.00  0.00    +0.117 A 
ATOM     24  C   UNL     1       5.038  -9.847   2.200  0.00  0.00    +0.046 A 
ATOM     25  C   UNL     1       4.050  -8.994   1.761  0.00  0.00    +0.015 A 
BRANCH  23  26
ATOM     26  O   UNL     1       7.176 -10.179   3.188  0.00  0.00    -0.507 OA
ATOM     27  H   UNL     1       7.085 -10.436   4.115  0.00  0.00    +0.292 HD
ENDBRANCH  23  26
ENDBRANCH  10  20
TORSDOF 3
