REMARK  Name = ZINC20377466
REMARK  8 active torsions:
REMARK  status: ('A' for Active; 'I' for Inactive)
REMARK    1  A    between atoms: C_1  and  C_2
REMARK    2  A    between atoms: C_7  and  N_12
REMARK    3  A    between atoms: C_9  and  C_11
REMARK    4  A    between atoms: C_13  and  C_15
REMARK    5  A    between atoms: C_18  and  C_21
REMARK    6  A    between atoms: C_21  and  N_22
REMARK    7  A    between atoms: N_22  and  S_23
REMARK    8  A    between atoms: S_23  and  C_26
REMARK                            x       y       z     vdW  Elec       q    Type
REMARK                         _______ _______ _______ _____ _____    ______ ____
ROOT
ATOM      1  C   UNL     1       4.356   7.596  -4.063  0.00  0.00    +0.075 C 
ATOM      2  C   UNL     1       3.051   6.899  -4.456  0.00  0.00    +0.013 C 
ATOM      3  C   UNL     1       2.545   6.064  -3.278  0.00  0.00    +0.005 C 
ATOM      4  C   UNL     1       3.594   5.013  -2.909  0.00  0.00    +0.005 C 
ATOM      5  C   UNL     1       4.898   5.710  -2.517  0.00  0.00    +0.005 C 
ATOM      6  C   UNL     1       5.404   6.545  -3.694  0.00  0.00    +0.013 C 
ENDROOT
BRANCH   1   8
ATOM      7  N   UNL     1       5.120   9.216  -2.357  0.00  0.00    -0.312 N 
ATOM      8  C   UNL     1       4.108   8.495  -2.880  0.00  0.00    +0.216 C 
ATOM      9  O   UNL     1       2.997   8.572  -2.398  0.00  0.00    -0.276 OA
ATOM     10  H   UNL     1       6.127   9.147  -2.794  0.00  0.00    +0.149 HD
BRANCH   7  16
ATOM     11  C   UNL     1       8.363  11.723  -1.069  0.00  0.00    +0.008 C 
ATOM     12  C   UNL     1       7.321  10.603  -1.085  0.00  0.00    -0.009 C 
ATOM     13  C   UNL     1       7.428   9.788   0.206  0.00  0.00    +0.003 C 
ATOM     14  C   UNL     1       6.386   8.668   0.190  0.00  0.00    +0.002 C 
ATOM     15  C   UNL     1       4.986   9.275   0.085  0.00  0.00    +0.022 C 
ATOM     16  C   UNL     1       4.879  10.090  -1.206  0.00  0.00    +0.076 C 
ATOM     17  C   UNL     1       5.921  11.210  -1.190  0.00  0.00    +0.009 C 
ATOM     18  C   UNL     1       5.814  12.025  -2.481  0.00  0.00    +0.009 C 
ENDBRANCH   7  16
ENDBRANCH   1   8
BRANCH   4  19
ATOM     19  C   UNL     1       3.087   4.178  -1.732  0.00  0.00    +0.109 C 
BRANCH  19  20
ATOM     20  N   UNL     1       4.036   3.097  -1.455  0.00  0.00    -0.190 NA
ATOM     21  H   UNL     1       4.695   2.726  -2.254  0.00  0.00    +0.148 HD
BRANCH  20  22
ATOM     22  S   UNL     1       3.952   2.267  -0.025  0.00  0.00    +0.060 S 
ATOM     23  O   UNL     1       3.877   3.241   1.007  0.00  0.00    -0.153 OA
ATOM     24  O   UNL     1       4.973   1.280  -0.068  0.00  0.00    -0.153 OA
BRANCH  22  25
ATOM     25  C   UNL     1       2.416   1.403  -0.014  0.00  0.00    +0.131 A 
ATOM     26  C   UNL     1       2.398   0.042  -0.021  0.00  0.00    +0.031 A 
ATOM     27  C   UNL     1       1.195  -0.661  -0.013  0.00  0.00    +0.003 A 
ATOM     28  C   UNL     1       0.002  -0.004   0.002  0.00  0.00    +0.010 A 
ATOM     29  C   UNL     1      -0.017   1.400   0.010  0.00  0.00    +0.002 A 
ATOM     30  C   UNL     1       1.205   2.117   0.002  0.00  0.00    +0.097 A 
ATOM     31  N   UNL     1       1.192   3.454   0.008  0.00  0.00    -0.253 NA
ATOM     32  C   UNL     1       0.066   4.124   0.021  0.00  0.00    +0.111 A 
ATOM     33  C   UNL     1      -1.170   3.481   0.030  0.00  0.00    +0.020 A 
ATOM     34  C   UNL     1      -1.229   2.116   0.019  0.00  0.00    +0.011 A 
ENDBRANCH  22  25
ENDBRANCH  20  22
ENDBRANCH  19  20
ENDBRANCH   4  19
TORSDOF 6
