REMARK  Name = ZINC08747796
REMARK  9 active torsions:
REMARK  status: ('A' for Active; 'I' for Inactive)
REMARK    1  A    between atoms: C_1  and  C_2
REMARK    2  A    between atoms: C_2  and  C_3
REMARK    3  A    between atoms: C_6  and  C_9
REMARK    4  A    between atoms: C_11  and  C_30
REMARK    5  A    between atoms: C_12  and  C_14
REMARK    6  A    between atoms: N_16  and  C_17
REMARK    7  A    between atoms: C_17  and  C_18
REMARK    8  A    between atoms: C_18  and  C_20
REMARK    9  A    between atoms: C_18  and  N_57
REMARK                            x       y       z     vdW  Elec       q    Type
REMARK                         _______ _______ _______ _____ _____    ______ ____
ROOT
ATOM      1  C   UNL     1       2.948   6.063   2.244  0.00  0.00    +0.252 C 
ATOM      2  O   UNL     1       3.029   5.506   3.323  0.00  0.00    -0.270 OA
ATOM      3  N   UNL     1       2.384   5.427   1.198  0.00  0.00    -0.312 N 
ATOM      4  H   UNL     1       2.320   5.871   0.338  0.00  0.00    +0.149 HD
ENDROOT
BRANCH   1   8
ATOM      5  C   UNL     1       4.259   9.848   1.361  0.00  0.00    +0.109 A 
ATOM      6  N   UNL     1       4.451   9.443   2.609  0.00  0.00    -0.243 NA
ATOM      7  C   UNL     1       4.077   8.259   3.010  0.00  0.00    +0.058 A 
ATOM      8  C   UNL     1       3.465   7.425   2.082  0.00  0.00    +0.097 A 
ATOM      9  S   UNL     1       3.489   8.472   0.634  0.00  0.00    -0.062 S 
ATOM     10  C   UNL     1       4.300   7.810   4.431  0.00  0.00    +0.067 C 
BRANCH   5  14
ATOM     11  C   UNL     1       5.286  13.567  -0.414  0.00  0.00    -0.048 A 
ATOM     12  C   UNL     1       5.575  13.337   0.919  0.00  0.00    +0.004 A 
ATOM     13  C   UNL     1       5.244  12.132   1.502  0.00  0.00    +0.011 A 
ATOM     14  C   UNL     1       4.617  11.142   0.744  0.00  0.00    +0.007 A 
ATOM     15  C   UNL     1       4.333  11.378  -0.603  0.00  0.00    +0.011 A 
ATOM     16  C   UNL     1       4.665  12.590  -1.172  0.00  0.00    +0.004 A 
BRANCH  11  18
ATOM     17  C   UNL     1       7.062  14.800  -1.628  0.00  0.00    +0.009 C 
ATOM     18  C   UNL     1       5.651  14.886  -1.044  0.00  0.00    +0.032 C 
ENDBRANCH  11  18
ENDBRANCH   5  14
ENDBRANCH   1   8
BRANCH   3  19
ATOM     19  C   UNL     1       1.868   4.066   1.360  0.00  0.00    +0.094 C 
BRANCH  19  20
ATOM     20  C   UNL     1       1.410   3.529   0.003  0.00  0.00    -0.013 C 
BRANCH  20  26
ATOM     21  C   UNL     1      -0.703   4.679   0.290  0.00  0.00    -0.049 C 
ATOM     22  C   UNL     1      -1.645   5.706  -0.344  0.00  0.00    +0.141 C 
ATOM     23  O   UNL     1      -2.036   5.249  -1.641  0.00  0.00    -0.383 OA
ATOM     24  C   UNL     1      -0.937   5.033  -2.531  0.00  0.00    +0.141 C 
ATOM     25  C   UNL     1       0.012   3.999  -1.919  0.00  0.00    -0.049 C 
ATOM     26  N   UNL     1       0.462   4.491  -0.601  0.00  0.00    +0.389 N 
ATOM     27  H   UNL     1       0.937   5.394  -0.725  0.00  0.00    -0.081 HD
ENDBRANCH  20  26
BRANCH  20  28
ATOM     28  C   UNL     1       2.602   3.380  -0.907  0.00  0.00    -0.022 A 
ATOM     29  C   UNL     1       3.304   2.263  -1.218  0.00  0.00    +0.009 A 
ATOM     30  C   UNL     1       4.374   2.364  -2.087  0.00  0.00    +0.008 A 
ATOM     31  C   UNL     1       4.690   3.577  -2.603  0.00  0.00    +0.045 A 
ATOM     32  S   UNL     1       3.455   4.628  -1.856  0.00  0.00    -0.103 S 
ENDBRANCH  20  28
ENDBRANCH  19  20
ENDBRANCH   3  19
TORSDOF 7
