REMARK  Name = ZINC20294313
REMARK  8 active torsions:
REMARK  status: ('A' for Active; 'I' for Inactive)
REMARK    1  A    between atoms: C_1  and  C_2
REMARK    2  A    between atoms: C_3  and  N_20
REMARK    3  A    between atoms: C_4  and  C_19
REMARK    4  A    between atoms: N_5  and  C_7
REMARK    5  A    between atoms: C_7  and  C_8
REMARK    6  A    between atoms: N_20  and  S_21
REMARK    7  A    between atoms: S_21  and  C_24
REMARK    8  A    between atoms: C_27  and  N_30
REMARK                            x       y       z     vdW  Elec       q    Type
REMARK                         _______ _______ _______ _____ _____    ______ ____
ROOT
ATOM      1  C   UNL     1       0.201   1.593  -3.506  0.00  0.00    +0.069 C 
ATOM      2  C   UNL     1       1.607   1.824  -3.015  0.00  0.00    +0.082 A 
ATOM      3  C   UNL     1       1.986   2.035  -1.682  0.00  0.00    +0.091 A 
ATOM      4  C   UNL     1       3.332   2.207  -1.655  0.00  0.00    +0.059 A 
ATOM      5  N   UNL     1       3.785   2.099  -2.932  0.00  0.00    -0.262 N 
ATOM      6  N   UNL     1       2.681   1.862  -3.761  0.00  0.00    -0.174 NA
ATOM      7  C   UNL     1       4.171   2.468  -0.431  0.00  0.00    +0.067 C 
ENDROOT
BRANCH   3   8
ATOM      8  N   UNL     1       1.123   2.068  -0.570  0.00  0.00    -0.213 N 
ATOM      9  H   UNL     1       0.932   3.019  -0.051  0.00  0.00    +0.174 HD
BRANCH   8  10
ATOM     10  S   UNL     1       0.396   0.677  -0.044  0.00  0.00    +0.072 S 
ATOM     11  O   UNL     1      -0.129   0.032  -1.196  0.00  0.00    -0.150 OA
ATOM     12  O   UNL     1      -0.417   1.038   1.064  0.00  0.00    -0.150 OA
BRANCH  10  13
ATOM     13  C   UNL     1       1.667  -0.369   0.584  0.00  0.00    +0.109 A 
ATOM     14  C   UNL     1       2.223  -1.343  -0.224  0.00  0.00    +0.031 A 
ATOM     15  C   UNL     1       3.224  -2.161   0.267  0.00  0.00    +0.034 A 
ATOM     16  C   UNL     1       3.661  -2.012   1.570  0.00  0.00    +0.126 A 
ATOM     17  C   UNL     1       3.102  -1.041   2.380  0.00  0.00    +0.034 A 
ATOM     18  C   UNL     1       2.104  -0.221   1.887  0.00  0.00    +0.031 A 
BRANCH  16  19
ATOM     19  N   UNL     1       4.729  -2.891   2.097  0.00  0.00    +0.056 N 
ATOM     20  O   UNL     1       5.114  -2.759   3.245  0.00  0.00    -0.126 OA
ATOM     21  O   UNL     1       5.222  -3.746   1.384  0.00  0.00    -0.126 OA
ENDBRANCH  16  19
ENDBRANCH  10  13
ENDBRANCH   8  10
ENDBRANCH   3   8
BRANCH   5  22
ATOM     22  C   UNL     1       5.180   2.215  -3.365  0.00  0.00    +0.185 C 
BRANCH  22  23
ATOM     23  C   UNL     1       5.787   0.840  -3.478  0.00  0.00    +0.050 A 
ATOM     24  C   UNL     1       6.532   0.325  -2.430  0.00  0.00    +0.169 A 
ATOM     25  C   UNL     1       7.086  -0.941  -2.531  0.00  0.00    +0.197 A 
ATOM     26  C   UNL     1       6.904  -1.687  -3.685  0.00  0.00    +0.199 A 
ATOM     27  C   UNL     1       6.163  -1.168  -4.735  0.00  0.00    +0.197 A 
ATOM     28  C   UNL     1       5.605   0.096  -4.630  0.00  0.00    +0.169 A 
ATOM     29  F   UNL     1       4.883   0.602  -5.654  0.00  0.00    -0.202 F 
ATOM     30  F   UNL     1       5.986  -1.895  -5.860  0.00  0.00    -0.199 F 
ATOM     31  F   UNL     1       7.447  -2.920  -3.785  0.00  0.00    -0.199 F 
ATOM     32  F   UNL     1       7.808  -1.446  -1.507  0.00  0.00    -0.199 F 
ATOM     33  F   UNL     1       6.713   1.054  -1.308  0.00  0.00    -0.202 F 
ENDBRANCH  22  23
ENDBRANCH   5  22
TORSDOF 6
