REMARK  Name = ZINC56359656
REMARK  7 active torsions:
REMARK  status: ('A' for Active; 'I' for Inactive)
REMARK    1  A    between atoms: C_1  and  C_2
REMARK    2  A    between atoms: C_9  and  C_11
REMARK    3  A    between atoms: N_20  and  C_21
REMARK    4  A    between atoms: C_21  and  C_23
REMARK    5  A    between atoms: C_21  and  C_24
REMARK    6  A    between atoms: C_24  and  C_25
REMARK    7  A    between atoms: C_25  and  C_26
REMARK                            x       y       z     vdW  Elec       q    Type
REMARK                         _______ _______ _______ _____ _____    ______ ____
ROOT
ATOM      1  C   UNL     1      -0.129  -6.340  -0.949  0.00  0.00    +0.093 C 
ATOM      2  C   UNL     1      -0.230  -6.906  -2.368  0.00  0.00    +0.016 C 
ATOM      3  C   UNL     1      -0.293  -8.434  -2.306  0.00  0.00    +0.020 C 
ATOM      4  C   UNL     1      -1.541  -8.858  -1.526  0.00  0.00    +0.109 C 
ATOM      5  N   UNL     1      -1.524  -8.201  -0.211  0.00  0.00    -0.285 N 
ATOM      6  C   UNL     1      -1.375  -6.740  -0.153  0.00  0.00    +0.122 C 
ATOM      7  C   UNL     1      -1.642  -8.925   0.919  0.00  0.00    +0.302 C 
ATOM      8  O   UNL     1      -1.719  -8.363   1.995  0.00  0.00    -0.253 OA
ATOM      9  N   UNL     1      -1.676 -10.271   0.858  0.00  0.00    -0.297 N 
ATOM     10  H   UNL     1      -1.690 -10.716  -0.003  0.00  0.00    +0.151 HD
ENDROOT
BRANCH   1  19
ATOM     11  C   UNL     1      -0.014   1.494  -0.182  0.00  0.00    +0.045 C 
ATOM     12  C   UNL     1       0.007  -0.008  -0.062  0.00  0.00    -0.032 A 
ATOM     13  C   UNL     1       0.018  -0.611   1.188  0.00  0.00    +0.008 A 
ATOM     14  C   UNL     1       0.037  -1.993   1.253  0.00  0.00    +0.044 A 
ATOM     15  C   UNL     1       0.043  -2.726   0.072  0.00  0.00    +0.125 A 
ATOM     16  N   UNL     1       0.031  -2.114  -1.101  0.00  0.00    -0.240 NA
ATOM     17  C   UNL     1       0.008  -0.798  -1.195  0.00  0.00    +0.116 A 
ATOM     18  N   UNL     1       0.062  -4.119   0.124  0.00  0.00    -0.270 N 
ATOM     19  C   UNL     1      -0.035  -4.837  -1.013  0.00  0.00    +0.223 C 
ATOM     20  O   UNL     1      -0.046  -4.274  -2.087  0.00  0.00    -0.275 OA
ATOM     21  H   UNL     1       0.145  -4.572   0.978  0.00  0.00    +0.156 HD
ENDBRANCH   1  19
BRANCH   9  22
ATOM     22  C   UNL     1      -1.692 -11.060   2.092  0.00  0.00    +0.072 C 
ATOM     23  C   UNL     1      -0.258 -11.264   2.585  0.00  0.00    +0.028 C 
BRANCH  22  24
ATOM     24  C   UNL     1      -2.337 -12.420   1.819  0.00  0.00    +0.026 C 
BRANCH  24  25
ATOM     25  C   UNL     1      -3.807 -12.222   1.446  0.00  0.00    +0.037 C 
BRANCH  25  26
ATOM     26  C   UNL     1      -4.442 -13.562   1.177  0.00  0.00    -0.047 A 
ATOM     27  C   UNL     1      -4.424 -14.092  -0.100  0.00  0.00    +0.003 A 
ATOM     28  C   UNL     1      -5.006 -15.321  -0.346  0.00  0.00    +0.000 A 
ATOM     29  C   UNL     1      -5.606 -16.021   0.684  0.00  0.00    +0.000 A 
ATOM     30  C   UNL     1      -5.624 -15.492   1.961  0.00  0.00    +0.000 A 
ATOM     31  C   UNL     1      -5.038 -14.264   2.208  0.00  0.00    +0.003 A 
ENDBRANCH  25  26
ENDBRANCH  24  25
ENDBRANCH  22  24
ENDBRANCH   9  22
TORSDOF 5
