REMARK  Name = ZINC16955318
REMARK  9 active torsions:
REMARK  status: ('A' for Active; 'I' for Inactive)
REMARK    1  A    between atoms: C_1  and  C_2
REMARK    2  A    between atoms: C_2  and  N_3
REMARK    3  A    between atoms: N_3  and  C_4
REMARK    4  A    between atoms: C_4  and  C_5
REMARK    5  A    between atoms: C_6  and  C_8
REMARK    6  A    between atoms: C_8  and  C_9
REMARK    7  A    between atoms: C_12  and  N_15
REMARK    8  A    between atoms: C_20  and  C_21
REMARK    9  A    between atoms: C_20  and  C_22
REMARK                            x       y       z     vdW  Elec       q    Type
REMARK                         _______ _______ _______ _____ _____    ______ ____
ROOT
ATOM      1  N   UNL     1       8.287  -1.788   1.146  0.00  0.00    -0.250 N 
ATOM      2  C   UNL     1       9.096  -2.662   1.835  0.00  0.00    +0.189 C 
ATOM      3  N   UNL     1      10.158  -3.154   1.224  0.00  0.00    -0.187 NA
ATOM      4  C   UNL     1      10.461  -2.791  -0.034  0.00  0.00    +0.191 C 
ATOM      5  N   UNL     1       9.887  -1.773  -0.619  0.00  0.00    -0.337 N 
ATOM      6  C   UNL     1       8.912  -0.956   0.106  0.00  0.00    +0.109 C 
ATOM      7  C   UNL     1       7.841  -0.452  -0.863  0.00  0.00    +0.056 C 
ATOM      8  C   UNL     1       9.623   0.233   0.754  0.00  0.00    +0.056 C 
ATOM      9  N   UNL     1      11.407  -3.516  -0.731  0.00  0.00    -0.329 N 
ATOM     10  N   UNL     1       8.807  -3.013   3.124  0.00  0.00    -0.331 N 
ATOM     11  H   UNL     1      11.842  -4.274  -0.311  0.00  0.00    +0.145 HD
ATOM     12  H   UNL     1      11.636  -3.267  -1.639  0.00  0.00    +0.145 HD
ATOM     13  H   UNL     1       7.991  -2.696   3.542  0.00  0.00    +0.145 HD
ATOM     14  H   UNL     1       9.418  -3.580   3.621  0.00  0.00    +0.145 HD
ATOM     15  H   UNL     1      10.106  -1.559  -1.539  0.00  0.00    +0.164 HD
ENDROOT
BRANCH   1  19
ATOM     16  C   UNL     1       4.212  -1.518   1.967  0.00  0.00    -0.039 A 
ATOM     17  C   UNL     1       4.675  -2.466   1.073  0.00  0.00    +0.006 A 
ATOM     18  C   UNL     1       6.025  -2.558   0.799  0.00  0.00    +0.024 A 
ATOM     19  C   UNL     1       6.919  -1.697   1.422  0.00  0.00    +0.038 A 
ATOM     20  C   UNL     1       6.451  -0.746   2.319  0.00  0.00    +0.024 A 
ATOM     21  C   UNL     1       5.099  -0.655   2.585  0.00  0.00    +0.006 A 
BRANCH  16  22
ATOM     22  C   UNL     1       2.738  -1.420   2.264  0.00  0.00    +0.131 C 
BRANCH  22  24
ATOM     23  N   UNL     1       0.770  -0.218   1.370  0.00  0.00    -0.302 N 
ATOM     24  C   UNL     1       2.093  -0.464   1.294  0.00  0.00    +0.220 C 
ATOM     25  O   UNL     1       2.764   0.084   0.446  0.00  0.00    -0.275 OA
BRANCH  23  27
ATOM     26  C   UNL     1       0.179   2.128   1.006  0.00  0.00    +0.024 C 
ATOM     27  C   UNL     1       0.142   0.712   0.427  0.00  0.00    +0.104 C 
ENDBRANCH  23  27
BRANCH  23  28
ATOM     28  C   UNL     1      -0.041  -0.880   2.395  0.00  0.00    +0.104 C 
ATOM     29  C   UNL     1      -0.578  -2.202   1.845  0.00  0.00    +0.024 C 
ENDBRANCH  23  28
ENDBRANCH  22  24
ENDBRANCH  16  22
ENDBRANCH   1  19
TORSDOF 5
