REMARK  Name = ZINC39912605
REMARK  14 active torsions:
REMARK  status: ('A' for Active; 'I' for Inactive)
REMARK    1  A    between atoms: C_1  and  C_2
REMARK    2  A    between atoms: C_2  and  C_3
REMARK    3  A    between atoms: C_3  and  O_4
REMARK    4  A    between atoms: O_4  and  C_5
REMARK    5  A    between atoms: C_8  and  C_11
REMARK    6  A    between atoms: C_14  and  C_32
REMARK    7  A    between atoms: N_21  and  C_22
REMARK    8  A    between atoms: C_22  and  C_23
REMARK    9  A    between atoms: C_23  and  C_24
REMARK   10  A    between atoms: C_27  and  O_30
REMARK   11  A    between atoms: O_30  and  C_31
REMARK   12  A    between atoms: C_34  and  C_40
REMARK   13  A    between atoms: C_36  and  C_39
REMARK   14  A    between atoms: C_37  and  O_38
REMARK                            x       y       z     vdW  Elec       q    Type
REMARK                         _______ _______ _______ _____ _____    ______ ____
ROOT
ATOM      1  C   UNL     1       3.148  -4.493  -5.151  0.00  0.00    +0.141 C 
ATOM      2  C   UNL     1       4.610  -4.839  -5.076  0.00  0.00    +0.035 A 
ATOM      3  C   UNL     1       5.920  -4.389  -4.884  0.00  0.00    +0.102 A 
ATOM      4  N   UNL     1       6.716  -5.435  -4.985  0.00  0.00    -0.173 NA
ATOM      5  N   UNL     1       6.038  -6.501  -5.222  0.00  0.00    -0.272 N 
ATOM      6  H   UNL     1       6.415  -7.388  -5.333  0.00  0.00    +0.189 HD
ATOM      7  C   UNL     1       4.708  -6.201  -5.292  0.00  0.00    +0.126 A 
ATOM      8  C   UNL     1       3.359  -6.738  -5.502  0.00  0.00    +0.265 C 
ATOM      9  O   UNL     1       3.103  -7.907  -5.718  0.00  0.00    -0.268 OA
ATOM     10  N   UNL     1       2.444  -5.753  -5.423  0.00  0.00    -0.285 N 
ENDROOT
BRANCH   3  11
ATOM     11  C   UNL     1       6.338  -2.990  -4.616  0.00  0.00    +0.044 A 
ATOM     12  C   UNL     1       5.401  -1.960  -4.657  0.00  0.00    +0.017 A 
ATOM     13  C   UNL     1       5.794  -0.661  -4.407  0.00  0.00    -0.049 A 
ATOM     14  C   UNL     1       7.117  -0.377  -4.117  0.00  0.00    +0.010 A 
ATOM     15  C   UNL     1       8.055  -1.391  -4.074  0.00  0.00    -0.008 A 
ATOM     16  C   UNL     1       7.672  -2.701  -4.317  0.00  0.00    +0.129 A 
ATOM     17  C   UNL     1       9.493  -1.073  -3.758  0.00  0.00    +0.047 C 
ATOM     18  C   UNL     1       4.779   0.452  -4.452  0.00  0.00    +0.044 C 
BRANCH  16  19
ATOM     19  O   UNL     1       8.592  -3.700  -4.269  0.00  0.00    -0.506 OA
ATOM     20  H   UNL     1       9.026  -3.875  -5.115  0.00  0.00    +0.292 HD
ENDBRANCH  16  19
ENDBRANCH   3  11
BRANCH   1  24
ATOM     21  C   UNL     1       1.835  -2.847  -1.432  0.00  0.00    +0.121 A 
ATOM     22  C   UNL     1       2.189  -4.186  -1.513  0.00  0.00    +0.046 A 
ATOM     23  C   UNL     1       2.613  -4.716  -2.716  0.00  0.00    +0.009 A 
ATOM     24  C   UNL     1       2.685  -3.913  -3.840  0.00  0.00    -0.022 A 
ATOM     25  C   UNL     1       2.333  -2.578  -3.762  0.00  0.00    +0.009 A 
ATOM     26  C   UNL     1       1.903  -2.044  -2.562  0.00  0.00    +0.046 A 
BRANCH  21  27
ATOM     27  O   UNL     1       1.417  -2.323  -0.250  0.00  0.00    -0.492 OA
BRANCH  27  28
ATOM     28  C   UNL     1       1.373  -3.208   0.872  0.00  0.00    +0.229 C 
BRANCH  28  30
ATOM     29  C   UNL     1       0.834  -3.392   3.304  0.00  0.00    +0.007 C 
ATOM     30  C   UNL     1       0.882  -2.445   2.104  0.00  0.00    +0.038 C 
ENDBRANCH  28  30
ENDBRANCH  27  28
ENDBRANCH  21  27
ENDBRANCH   1  24
BRANCH  10  31
ATOM     31  C   UNL     1       0.996  -5.910  -5.580  0.00  0.00    +0.114 C 
BRANCH  31  32
ATOM     32  C   UNL     1       0.619  -5.731  -7.052  0.00  0.00    +0.054 C 
BRANCH  32  33
ATOM     33  C   UNL     1      -0.870  -5.892  -7.213  0.00  0.00    -0.046 A 
ATOM     34  C   UNL     1      -1.406  -7.142  -7.462  0.00  0.00    +0.007 A 
ATOM     35  C   UNL     1      -2.771  -7.293  -7.611  0.00  0.00    +0.046 A 
ATOM     36  C   UNL     1      -3.605  -6.189  -7.510  0.00  0.00    +0.120 A 
ATOM     37  C   UNL     1      -3.065  -4.936  -7.259  0.00  0.00    +0.046 A 
ATOM     38  C   UNL     1      -1.700  -4.791  -7.106  0.00  0.00    +0.007 A 
BRANCH  36  39
ATOM     39  O   UNL     1      -4.948  -6.334  -7.656  0.00  0.00    -0.495 OA
ATOM     40  C   UNL     1      -5.745  -5.154  -7.539  0.00  0.00    +0.277 C 
ENDBRANCH  36  39
ENDBRANCH  32  33
ENDBRANCH  31  32
ENDBRANCH  10  31
TORSDOF 10
