REMARK  Name = ZINC04363646
REMARK  8 active torsions:
REMARK  status: ('A' for Active; 'I' for Inactive)
REMARK    1  A    between atoms: C_4  and  C_7
REMARK    2  A    between atoms: N_8  and  N_9
REMARK    3  A    between atoms: C_10  and  C_12
REMARK    4  A    between atoms: C_12  and  S_13
REMARK    5  A    between atoms: S_13  and  C_14
REMARK    6  A    between atoms: N_16  and  C_18
REMARK    7  A    between atoms: C_18  and  C_19
REMARK    8  A    between atoms: C_18  and  C_25
REMARK                            x       y       z     vdW  Elec       q    Type
REMARK                         _______ _______ _______ _____ _____    ______ ____
ROOT
ATOM      1  C   UNL     1       7.638  -7.254  -0.114  0.00  0.00    +0.014 C 
ATOM      2  C   UNL     1       8.208  -7.456  -1.529  0.00  0.00    -0.065 C 
ATOM      3  N   UNL     1       8.697  -8.763  -1.039  0.00  0.00    +0.388 N 
ATOM      4  C   UNL     1       7.645  -8.789   0.001  0.00  0.00    -0.065 C 
ATOM      5  H   UNL     1       9.629  -8.716  -0.655  0.00  0.00    -0.080 HD
ENDROOT
BRANCH   1   6
ATOM      6  S   UNL     1       5.976  -6.528  -0.093  0.00  0.00    -0.152 S 
BRANCH   6   7
ATOM      7  C   UNL     1       6.278  -4.740  -0.086  0.00  0.00    +0.166 C 
BRANCH   7   9
ATOM      8  N   UNL     1       4.939  -2.660  -0.061  0.00  0.00    -0.206 N 
ATOM      9  C   UNL     1       4.961  -4.008  -0.069  0.00  0.00    +0.242 C 
ATOM     10  O   UNL     1       3.920  -4.631  -0.061  0.00  0.00    -0.273 OA
ATOM     11  H   UNL     1       5.771  -2.161  -0.067  0.00  0.00    +0.177 HD
BRANCH   8  13
ATOM     12  C   UNL     1       3.693  -0.682  -0.038  0.00  0.00    +0.138 C 
ATOM     13  N   UNL     1       3.714  -1.980  -0.045  0.00  0.00    -0.188 NA
BRANCH  12  17
ATOM     14  C   UNL     1      -0.017   1.379   0.010  0.00  0.00    +0.000 A 
ATOM     15  C   UNL     1       1.168   2.094   0.002  0.00  0.00    +0.001 A 
ATOM     16  C   UNL     1       2.377   1.431  -0.013  0.00  0.00    +0.009 A 
ATOM     17  C   UNL     1       2.404   0.034  -0.021  0.00  0.00    -0.005 A 
ATOM     18  C   UNL     1       1.204  -0.681  -0.013  0.00  0.00    +0.009 A 
ATOM     19  C   UNL     1       0.002  -0.004   0.002  0.00  0.00    +0.001 A 
ENDBRANCH  12  17
ENDBRANCH   8  13
ENDBRANCH   7   9
ENDBRANCH   6   7
ENDBRANCH   1   6
BRANCH   3  20
ATOM     20  C   UNL     1       8.551  -9.838  -2.030  0.00  0.00    -0.007 C 
BRANCH  20  21
ATOM     21  C   UNL     1       9.337  -9.490  -3.268  0.00  0.00    -0.057 A 
ATOM     22  C   UNL     1      10.583  -8.903  -3.154  0.00  0.00    +0.002 A 
ATOM     23  C   UNL     1      11.303  -8.584  -4.289  0.00  0.00    +0.000 A 
ATOM     24  C   UNL     1      10.778  -8.852  -5.539  0.00  0.00    +0.000 A 
ATOM     25  C   UNL     1       9.532  -9.441  -5.654  0.00  0.00    +0.000 A 
ATOM     26  C   UNL     1       8.813  -9.764  -4.518  0.00  0.00    +0.002 A 
ENDBRANCH  20  21
BRANCH  20  27
ATOM     27  C   UNL     1       9.072 -11.129  -1.451  0.00  0.00    -0.057 A 
ATOM     28  C   UNL     1      10.216 -11.127  -0.676  0.00  0.00    +0.002 A 
ATOM     29  C   UNL     1      10.694 -12.311  -0.145  0.00  0.00    +0.000 A 
ATOM     30  C   UNL     1      10.026 -13.496  -0.389  0.00  0.00    +0.000 A 
ATOM     31  C   UNL     1       8.880 -13.498  -1.163  0.00  0.00    +0.000 A 
ATOM     32  C   UNL     1       8.401 -12.313  -1.690  0.00  0.00    +0.002 A 
ENDBRANCH  20  27
ENDBRANCH   3  20
TORSDOF 8
