REMARK  Name = ZINC06197888
REMARK  15 active torsions:
REMARK  status: ('A' for Active; 'I' for Inactive)
REMARK    1  A    between atoms: C_1  and  C_2
REMARK    2  A    between atoms: C_2  and  C_3
REMARK    3  A    between atoms: C_10  and  C_15
REMARK    4  A    between atoms: C_15  and  C_17
REMARK    5  A    between atoms: C_15  and  N_77
REMARK    6  A    between atoms: N_21  and  C_22
REMARK    7  A    between atoms: C_22  and  C_23
REMARK    8  A    between atoms: C_22  and  C_24
REMARK    9  A    between atoms: C_22  and  C_25
REMARK   10  A    between atoms: C_26  and  C_27
REMARK   11  A    between atoms: C_26  and  N_77
REMARK   12  A    between atoms: C_31  and  O_33
REMARK   13  A    between atoms: O_33  and  C_34
REMARK   14  A    between atoms: C_35  and  C_36
REMARK   15  A    between atoms: C_35  and  N_77
REMARK                            x       y       z     vdW  Elec       q    Type
REMARK                         _______ _______ _______ _____ _____    ______ ____
ROOT
ATOM      1  C   UNL     1      -0.686   1.392   1.991  0.00  0.00    +0.039 C 
ENDROOT
BRANCH   1   9
ATOM      2  C   UNL     1      -2.063   2.717   7.876  0.00  0.00    -0.047 A 
ATOM      3  C   UNL     1      -3.316   2.118   7.881  0.00  0.00    +0.005 A 
ATOM      4  C   UNL     1      -3.805   1.501   6.751  0.00  0.00    +0.026 A 
ATOM      5  C   UNL     1      -3.038   1.477   5.590  0.00  0.00    +0.049 A 
ATOM      6  C   UNL     1      -1.769   2.087   5.588  0.00  0.00    -0.001 A 
ATOM      7  C   UNL     1      -1.292   2.706   6.748  0.00  0.00    +0.013 A 
ATOM      8  C   UNL     1      -0.968   2.053   4.364  0.00  0.00    +0.017 A 
ATOM      9  C   UNL     1      -1.484   1.441   3.269  0.00  0.00    +0.011 A 
ATOM     10  C   UNL     1      -2.762   0.845   3.323  0.00  0.00    +0.251 A 
ATOM     11  O   UNL     1      -3.205   0.297   2.329  0.00  0.00    -0.268 OA
ATOM     12  N   UNL     1      -3.503   0.868   4.445  0.00  0.00    -0.322 N 
ATOM     13  H   UNL     1      -4.405   0.436   4.448  0.00  0.00    +0.169 HD
BRANCH   2  15
ATOM     14  C   UNL     1      -0.778   2.368   9.968  0.00  0.00    +0.009 C 
ATOM     15  C   UNL     1      -1.550   3.385   9.125  0.00  0.00    +0.032 C 
ENDBRANCH   2  15
ENDBRANCH   1   9
BRANCH   1  16
ATOM     16  C   UNL     1      -0.083   0.020   1.827  0.00  0.00    +0.143 A 
ATOM     17  N   UNL     1      -0.731  -1.118   1.776  0.00  0.00    -0.115 NA
ATOM     18  N   UNL     1       0.134  -2.062   1.628  0.00  0.00    -0.023 NA
ATOM     19  N   UNL     1       1.317  -1.555   1.592  0.00  0.00    -0.043 NA
ATOM     20  N   UNL     1       1.225  -0.274   1.712  0.00  0.00    -0.225 N 
BRANCH  20  21
ATOM     21  C   UNL     1       2.336   0.681   1.720  0.00  0.00    +0.059 C 
ATOM     22  C   UNL     1       2.376   1.405   3.067  0.00  0.00    +0.036 C 
ATOM     23  C   UNL     1       3.653  -0.066   1.503  0.00  0.00    +0.036 C 
ATOM     24  C   UNL     1       2.138   1.703   0.598  0.00  0.00    +0.036 C 
ENDBRANCH  20  21
ENDBRANCH   1  16
BRANCH   1  25
ATOM     25  N   UNL     1      -1.595   1.667   0.858  0.00  0.00    +0.394 N 
ATOM     26  H   UNL     1      -2.521   1.277   1.070  0.00  0.00    -0.080 HD
BRANCH  25  27
ATOM     27  C   UNL     1      -1.077   1.030  -0.371  0.00  0.00    -0.041 C 
BRANCH  27  28
ATOM     28  C   UNL     1      -2.122   1.136  -1.452  0.00  0.00    -0.060 A 
ATOM     29  C   UNL     1      -2.125   2.224  -2.306  0.00  0.00    +0.002 A 
ATOM     30  C   UNL     1      -3.082   2.323  -3.298  0.00  0.00    +0.004 A 
ATOM     31  C   UNL     1      -4.039   1.337  -3.439  0.00  0.00    +0.045 A 
ATOM     32  C   UNL     1      -4.038   0.245  -2.583  0.00  0.00    +0.120 A 
ATOM     33  C   UNL     1      -3.073   0.144  -1.591  0.00  0.00    +0.047 A 
BRANCH  32  34
ATOM     34  O   UNL     1      -4.979  -0.727  -2.719  0.00  0.00    -0.495 OA
ATOM     35  C   UNL     1      -5.938  -0.559  -3.765  0.00  0.00    +0.277 C 
ENDBRANCH  32  34
ENDBRANCH  27  28
ENDBRANCH  25  27
BRANCH  25  36
ATOM     36  C   UNL     1      -1.722   3.125   0.655  0.00  0.00    -0.045 C 
BRANCH  36  37
ATOM     37  C   UNL     1      -2.636   3.694   1.743  0.00  0.00    +0.102 C 
ATOM     38  C   UNL     1      -3.067   5.133   1.385  0.00  0.00    +0.032 C 
ATOM     39  C   UNL     1      -3.085   5.868   2.744  0.00  0.00    +0.030 C 
ATOM     40  C   UNL     1      -2.663   4.786   3.762  0.00  0.00    +0.160 C 
ATOM     41  O   UNL     1      -1.916   3.823   2.988  0.00  0.00    -0.378 OA
ENDBRANCH  36  37
ENDBRANCH  25  36
ENDBRANCH   1  25
TORSDOF 10
