REMARK  Name = ZINC08589121
REMARK  8 active torsions:
REMARK  status: ('A' for Active; 'I' for Inactive)
REMARK    1  A    between atoms: C_1  and  C_2
REMARK    2  A    between atoms: C_7  and  C_8
REMARK    3  A    between atoms: C_8  and  S_9
REMARK    4  A    between atoms: S_9  and  C_10
REMARK    5  A    between atoms: C_14  and  C_16
REMARK    6  A    between atoms: C_25  and  C_33
REMARK    7  A    between atoms: C_28  and  C_31
REMARK    8  A    between atoms: C_31  and  O_32
REMARK                            x       y       z     vdW  Elec       q    Type
REMARK                         _______ _______ _______ _____ _____    ______ ____
ROOT
ATOM      1  C   UNL     1      -1.513   1.192   4.568  0.00  0.00    +0.108 A 
ATOM      2  C   UNL     1      -2.640   1.578   5.293  0.00  0.00    +0.051 A 
ATOM      3  C   UNL     1      -2.464   2.261   6.485  0.00  0.00    +0.229 A 
ATOM      4  N   UNL     1      -1.226   2.527   6.900  0.00  0.00    -0.193 NA
ATOM      5  C   UNL     1      -0.175   2.147   6.188  0.00  0.00    +0.165 A 
ATOM      6  N   UNL     1      -0.307   1.488   5.046  0.00  0.00    -0.221 NA
ATOM      7  O   UNL     1      -3.519   2.659   7.227  0.00  0.00    -0.436 OA
ATOM      8  C   UNL     1      -4.732   2.087   7.043  0.00  0.00    +0.155 A 
ATOM      9  C   UNL     1      -5.704   2.189   8.030  0.00  0.00    +0.081 A 
ATOM     10  N   UNL     1      -6.889   1.637   7.865  0.00  0.00    -0.256 NA
ATOM     11  C   UNL     1      -7.201   0.971   6.771  0.00  0.00    +0.117 A 
ATOM     12  C   UNL     1      -6.286   0.827   5.744  0.00  0.00    +0.003 A 
ATOM     13  C   UNL     1      -5.029   1.393   5.879  0.00  0.00    +0.008 A 
ATOM     14  C   UNL     1      -4.014   1.252   4.780  0.00  0.00    +0.082 C 
ATOM     15  C   UNL     1      -5.400   2.939   9.302  0.00  0.00    +0.069 C 
ENDROOT
BRANCH   5  16
ATOM     16  C   UNL     1       1.185   2.463   6.686  0.00  0.00    +0.022 A 
ATOM     17  C   UNL     1       2.306   2.079   5.951  0.00  0.00    +0.012 A 
ATOM     18  C   UNL     1       3.570   2.375   6.418  0.00  0.00    +0.003 A 
ATOM     19  C   UNL     1       3.728   3.054   7.613  0.00  0.00    +0.038 A 
ATOM     20  C   UNL     1       2.619   3.439   8.348  0.00  0.00    +0.124 A 
ATOM     21  C   UNL     1       1.348   3.151   7.887  0.00  0.00    +0.050 A 
ATOM     22  F   UNL     1       2.780   4.100   9.515  0.00  0.00    -0.205 F 
ENDBRANCH   5  16
BRANCH   1  23
ATOM     23  S   UNL     1      -1.684   0.321   3.046  0.00  0.00    -0.101 S 
BRANCH  23  24
ATOM     24  C   UNL     1       0.025   0.045   2.504  0.00  0.00    +0.111 C 
BRANCH  24  31
ATOM     25  C   UNL     1      -0.018   1.503   0.010  0.00  0.00    +0.044 C 
ATOM     26  C   UNL     1       0.002  -0.004   0.002  0.00  0.00    -0.046 A 
ATOM     27  C   UNL     1       0.006  -0.689  -1.199  0.00  0.00    +0.003 A 
ATOM     28  C   UNL     1       0.025  -2.071  -1.207  0.00  0.00    +0.000 A 
ATOM     29  C   UNL     1       0.040  -2.768  -0.013  0.00  0.00    +0.000 A 
ATOM     30  C   UNL     1       0.037  -2.084   1.188  0.00  0.00    +0.005 A 
ATOM     31  C   UNL     1       0.023  -0.702   1.195  0.00  0.00    -0.034 A 
ENDBRANCH  24  31
ENDBRANCH  23  24
ENDBRANCH   1  23
BRANCH  12  32
ATOM     32  C   UNL     1      -6.650   0.064   4.497  0.00  0.00    +0.193 C 
BRANCH  32  33
ATOM     33  O   UNL     1      -7.992  -0.416   4.607  0.00  0.00    -0.390 OA
ATOM     34  H   UNL     1      -8.295  -0.918   3.838  0.00  0.00    +0.210 HD
ENDBRANCH  32  33
ENDBRANCH  12  32
TORSDOF 6
