REMARK  Name = ZINC38786441
REMARK  10 active torsions:
REMARK  status: ('A' for Active; 'I' for Inactive)
REMARK    1  A    between atoms: C_1  and  C_2
REMARK    2  A    between atoms: C_2  and  N_3
REMARK    3  A    between atoms: N_3  and  C_4
REMARK    4  A    between atoms: N_3  and  C_6
REMARK    5  A    between atoms: C_4  and  C_5
REMARK    6  A    between atoms: C_6  and  C_7
REMARK    7  A    between atoms: C_7  and  N_8
REMARK    8  A    between atoms: C_11  and  S_15
REMARK    9  A    between atoms: S_15  and  C_16
REMARK   10  A    between atoms: C_16  and  C_17
REMARK                            x       y       z     vdW  Elec       q    Type
REMARK                         _______ _______ _______ _____ _____    ______ ____
ROOT
ATOM      1  N   UNL     1      -2.899  -4.091   0.188  0.00  0.00    -0.298 N 
ATOM      2  C   UNL     1      -2.728  -4.904  -0.895  0.00  0.00    +0.029 A 
ATOM      3  C   UNL     1      -2.723  -6.244  -0.720  0.00  0.00    +0.004 A 
ATOM      4  C   UNL     1      -2.897  -6.764   0.582  0.00  0.00    +0.107 A 
ATOM      5  N   UNL     1      -3.061  -5.934   1.605  0.00  0.00    -0.186 NA
ATOM      6  C   UNL     1      -3.057  -4.616   1.416  0.00  0.00    +0.350 A 
ATOM      7  O   UNL     1      -3.204  -3.873   2.372  0.00  0.00    -0.244 OA
ATOM      8  C   UNL     1      -2.520  -6.947  -2.043  0.00  0.00    +0.040 C 
ATOM      9  C   UNL     1      -2.830  -5.878  -3.115  0.00  0.00    +0.011 C 
ATOM     10  C   UNL     1      -2.527  -4.567  -2.357  0.00  0.00    +0.054 C 
ENDROOT
BRANCH   1  11
ATOM     11  C   UNL     1      -2.906  -2.636   0.013  0.00  0.00    +0.108 C 
BRANCH  11  12
ATOM     12  C   UNL     1      -1.479  -2.100   0.148  0.00  0.00    -0.057 C 
BRANCH  12  13
ATOM     13  N   UNL     1      -1.467  -0.661  -0.149  0.00  0.00    +0.380 N 
ATOM     14  H   UNL     1      -1.874  -0.502  -1.058  0.00  0.00    -0.082 HD
BRANCH  13  16
ATOM     15  C   UNL     1      -2.339   1.535   0.493  0.00  0.00    -0.017 C 
ATOM     16  C   UNL     1      -2.247   0.055   0.869  0.00  0.00    -0.082 C 
ENDBRANCH  13  16
BRANCH  13  17
ATOM     17  C   UNL     1      -0.082  -0.171  -0.139  0.00  0.00    -0.082 C 
ATOM     18  C   UNL     1       0.690  -0.801  -1.300  0.00  0.00    -0.017 C 
ENDBRANCH  13  17
ENDBRANCH  12  13
ENDBRANCH  11  12
ENDBRANCH   1  11
BRANCH   4  19
ATOM     19  S   UNL     1      -2.897  -8.506   0.847  0.00  0.00    -0.101 S 
BRANCH  19  20
ATOM     20  C   UNL     1      -3.147  -8.678   2.636  0.00  0.00    +0.111 C 
BRANCH  20  21
ATOM     21  C   UNL     1      -3.167 -10.139   3.002  0.00  0.00    -0.037 A 
ATOM     22  C   UNL     1      -4.361 -10.837   2.996  0.00  0.00    +0.006 A 
ATOM     23  C   UNL     1      -4.380 -12.177   3.331  0.00  0.00    +0.020 A 
ATOM     24  C   UNL     1      -3.204 -12.821   3.674  0.00  0.00    +0.041 A 
ATOM     25  C   UNL     1      -2.010 -12.123   3.680  0.00  0.00    +0.020 A 
ATOM     26  C   UNL     1      -1.991 -10.783   3.338  0.00  0.00    +0.006 A 
ATOM     27 CL   UNL     1      -3.228 -14.505   4.096  0.00  0.00    -0.084 Cl
ENDBRANCH  20  21
ENDBRANCH  19  20
ENDBRANCH   4  19
TORSDOF 8
