REMARK  Name = ZINC63376039
REMARK  8 active torsions:
REMARK  status: ('A' for Active; 'I' for Inactive)
REMARK    1  A    between atoms: C_1  and  C_2
REMARK    2  A    between atoms: C_2  and  C_3
REMARK    3  A    between atoms: C_3  and  C_5
REMARK    4  A    between atoms: C_3  and  N_6
REMARK    5  A    between atoms: C_7  and  C_9
REMARK    6  A    between atoms: C_12  and  N_15
REMARK    7  A    between atoms: C_31  and  C_36
REMARK    8  A    between atoms: C_39  and  C_42
REMARK                            x       y       z     vdW  Elec       q    Type
REMARK                         _______ _______ _______ _____ _____    ______ ____
ROOT
ATOM      1  N   UNL     1      -2.261   1.416   8.257  0.00  0.00    -0.193 N 
ATOM      2  C   UNL     1      -1.726   1.484   9.494  0.00  0.00    +0.248 C 
ATOM      3  O   UNL     1      -0.584   1.232   9.812  0.00  0.00    -0.273 OA
ATOM      4  C   UNL     1      -2.847   1.943  10.401  0.00  0.00    +0.169 C 
ATOM      5  C   UNL     1      -3.097   0.891  11.496  0.00  0.00    +0.065 C 
ATOM      6  C   UNL     1      -4.527   1.073  11.947  0.00  0.00    -0.034 C 
ATOM      7  C   UNL     1      -5.277   0.343  12.764  0.00  0.00    -0.001 A 
ATOM      8  C   UNL     1      -4.965  -0.838  13.586  0.00  0.00    +0.010 A 
ATOM      9  C   UNL     1      -5.995  -1.355  14.307  0.00  0.00    +0.001 A 
ATOM     10  C   UNL     1      -7.288  -0.823  14.292  0.00  0.00    +0.002 A 
ATOM     11  C   UNL     1      -7.662   0.264  13.571  0.00  0.00    +0.026 A 
ATOM     12  C   UNL     1      -6.664   0.900  12.777  0.00  0.00    +0.043 A 
ATOM     13  N   UNL     1      -6.738   1.951  12.015  0.00  0.00    -0.375 N 
ATOM     14  C   UNL     1      -5.406   2.222  11.470  0.00  0.00    +0.131 C 
ATOM     15  C   UNL     1      -5.408   2.182   9.936  0.00  0.00    +0.135 C 
ATOM     16  N   UNL     1      -4.017   1.981   9.499  0.00  0.00    -0.264 N 
ATOM     17  C   UNL     1      -3.563   1.735   8.264  0.00  0.00    +0.317 C 
ATOM     18  O   UNL     1      -4.252   1.790   7.264  0.00  0.00    -0.252 OA
ATOM     19  H   UNL     1      -7.540   2.467  11.838  0.00  0.00    +0.160 HD
ENDROOT
BRANCH  15  20
ATOM     20  C   UNL     1      -6.285   1.056   9.453  0.00  0.00    -0.025 A 
ATOM     21  C   UNL     1      -5.806  -0.241   9.452  0.00  0.00    +0.006 A 
ATOM     22  C   UNL     1      -6.611  -1.275   9.009  0.00  0.00    +0.004 A 
ATOM     23  C   UNL     1      -7.894  -1.011   8.568  0.00  0.00    -0.050 A 
ATOM     24  C   UNL     1      -8.373   0.286   8.570  0.00  0.00    +0.004 A 
ATOM     25  C   UNL     1      -7.570   1.318   9.017  0.00  0.00    +0.006 A 
ATOM     26  C   UNL     1      -8.771  -2.138   8.084  0.00  0.00    +0.044 C 
ENDBRANCH  15  20
BRANCH   1  30
ATOM     27  C   UNL     1      -0.126   0.363   4.835  0.00  0.00    +0.037 A 
ATOM     28  C   UNL     1      -1.508   0.554   4.767  0.00  0.00    +0.015 A 
ATOM     29  C   UNL     1      -2.211   0.902   5.899  0.00  0.00    +0.025 A 
ATOM     30  C   UNL     1      -1.545   1.063   7.110  0.00  0.00    +0.045 A 
ATOM     31  C   UNL     1      -0.169   0.874   7.181  0.00  0.00    +0.025 A 
ATOM     32  C   UNL     1       0.538   0.520   6.054  0.00  0.00    +0.015 A 
BRANCH  27  34
ATOM     33  N   UNL     1      -0.012  -0.163   2.449  0.00  0.00    -0.309 N 
ATOM     34  C   UNL     1       0.630  -0.011   3.624  0.00  0.00    +0.244 C 
ATOM     35  O   UNL     1       1.833  -0.182   3.686  0.00  0.00    -0.270 OA
ATOM     36  H   UNL     1      -0.971  -0.027   2.399  0.00  0.00    +0.149 HD
BRANCH  33  37
ATOM     37  C   UNL     1       0.738  -0.534   1.246  0.00  0.00    +0.070 C 
ATOM     38  C   UNL     1       0.893  -2.055   1.191  0.00  0.00    +0.028 C 
BRANCH  37  40
ATOM     39  C   UNL     1      -0.062   1.477  -0.002  0.00  0.00    +0.005 C 
ATOM     40  C   UNL     1      -0.016  -0.052   0.005  0.00  0.00    +0.018 C 
ENDBRANCH  37  40
ENDBRANCH  33  37
ENDBRANCH  27  34
ENDBRANCH   1  30
TORSDOF 5
