REMARK  Name = ZINC24048752
REMARK  13 active torsions:
REMARK  status: ('A' for Active; 'I' for Inactive)
REMARK    1  A    between atoms: C_1  and  C_2
REMARK    2  A    between atoms: C_2  and  C_4
REMARK    3  A    between atoms: C_2  and  S_13
REMARK    4  A    between atoms: C_6  and  C_9
REMARK    5  A    between atoms: C_9  and  C_10
REMARK    6  A    between atoms: C_9  and  C_11
REMARK    7  A    between atoms: C_9  and  C_12
REMARK    8  A    between atoms: S_13  and  C_14
REMARK    9  A    between atoms: C_17  and  C_25
REMARK   10  A    between atoms: N_18  and  C_19
REMARK   11  A    between atoms: C_19  and  C_20
REMARK   12  A    between atoms: C_25  and  C_26
REMARK   13  A    between atoms: C_25  and  C_27
REMARK                            x       y       z     vdW  Elec       q    Type
REMARK                         _______ _______ _______ _____ _____    ______ ____
ROOT
ATOM      1  C   UNL     1      -2.335  -0.110   1.573  0.00  0.00    +0.193 A 
ATOM      2  N   UNL     1      -1.692   0.581   2.486  0.00  0.00    -0.122 NA
ATOM      3  N   UNL     1      -2.458   0.785   3.498  0.00  0.00    -0.133 NA
ATOM      4  C   UNL     1      -3.625   0.243   3.293  0.00  0.00    +0.137 A 
ATOM      5  N   UNL     1      -3.590  -0.342   2.057  0.00  0.00    -0.298 N 
ENDROOT
BRANCH   4   6
ATOM      6  C   UNL     1      -4.797   0.261   4.240  0.00  0.00    +0.051 C 
ATOM      7  C   UNL     1      -4.402  -0.414   5.554  0.00  0.00    +0.015 C 
ATOM      8  C   UNL     1      -5.208   1.709   4.514  0.00  0.00    +0.015 C 
ENDBRANCH   4   6
BRANCH   1   9
ATOM      9  S   UNL     1      -1.700  -0.632   0.015  0.00  0.00    -0.073 S 
BRANCH   9  11
ATOM     10  C   UNL     1      -0.019   1.526   0.010  0.00  0.00    +0.029 C 
ATOM     11  C   UNL     1       0.002  -0.004   0.002  0.00  0.00    +0.140 C 
BRANCH  11  12
ATOM     12  C   UNL     1       0.707  -0.490  -1.238  0.00  0.00    +0.241 A 
ATOM     13  N   UNL     1       1.911  -0.991  -1.286  0.00  0.00    -0.195 NA
ATOM     14  C   UNL     1       2.222  -1.318  -2.545  0.00  0.00    +0.177 A 
ATOM     15  N   UNL     1       1.214  -1.028  -3.318  0.00  0.00    -0.061 NA
ATOM     16  O   UNL     1       0.204  -0.487  -2.479  0.00  0.00    -0.337 OA
BRANCH  14  17
ATOM     17  C   UNL     1       3.526  -1.924  -2.996  0.00  0.00    +0.025 C 
ATOM     18  C   UNL     1       3.739  -3.263  -2.287  0.00  0.00    +0.019 C 
ATOM     19  C   UNL     1       3.487  -2.149  -4.509  0.00  0.00    +0.019 C 
ATOM     20  C   UNL     1       4.675  -0.975  -2.651  0.00  0.00    +0.019 C 
ENDBRANCH  14  17
ENDBRANCH  11  12
ENDBRANCH   9  11
ENDBRANCH   1   9
BRANCH   5  21
ATOM     21  C   UNL     1      -4.674  -1.070   1.392  0.00  0.00    +0.199 C 
BRANCH  21  22
ATOM     22  C   UNL     1      -4.595  -2.530   1.755  0.00  0.00    +0.125 A 
ATOM     23  C   UNL     1      -5.205  -3.116   2.801  0.00  0.00    +0.046 A 
ATOM     24  C   UNL     1      -4.860  -4.486   2.761  0.00  0.00    +0.041 A 
ATOM     25  C   UNL     1      -4.060  -4.657   1.694  0.00  0.00    +0.195 A 
ATOM     26  O   UNL     1      -3.908  -3.470   1.084  0.00  0.00    -0.466 OA
ENDBRANCH  21  22
ENDBRANCH   5  21
TORSDOF 7
