REMARK  Name = ZINC09546572
REMARK  8 active torsions:
REMARK  status: ('A' for Active; 'I' for Inactive)
REMARK    1  A    between atoms: C_1  and  C_2
REMARK    2  A    between atoms: C_5  and  S_8
REMARK    3  A    between atoms: S_8  and  C_11
REMARK    4  A    between atoms: C_13  and  N_22
REMARK    5  A    between atoms: C_20  and  O_21
REMARK    6  A    between atoms: N_22  and  S_23
REMARK    7  A    between atoms: S_23  and  C_26
REMARK    8  A    between atoms: C_29  and  C_32
REMARK                            x       y       z     vdW  Elec       q    Type
REMARK                         _______ _______ _______ _____ _____    ______ ____
ROOT
ATOM      1  C   UNL     1       0.337   5.064   2.829  0.00  0.00    +0.139 A 
ATOM      2  C   UNL     1      -0.501   4.331   1.993  0.00  0.00    +0.056 A 
ATOM      3  C   UNL     1      -1.135   3.197   2.452  0.00  0.00    +0.059 A 
ATOM      4  C   UNL     1      -0.934   2.781   3.785  0.00  0.00    +0.026 A 
ATOM      5  C   UNL     1      -1.557   1.627   4.292  0.00  0.00    +0.013 A 
ATOM      6  C   UNL     1      -1.312   1.280   5.591  0.00  0.00    +0.020 A 
ATOM      7  C   UNL     1      -0.461   2.061   6.370  0.00  0.00    +0.111 A 
ATOM      8  N   UNL     1       0.121   3.134   5.891  0.00  0.00    -0.251 NA
ATOM      9  C   UNL     1      -0.076   3.527   4.629  0.00  0.00    +0.116 A 
ATOM     10  C   UNL     1       0.554   4.681   4.121  0.00  0.00    +0.168 A 
ENDROOT
BRANCH   1  11
ATOM     11  S   UNL     1       1.131   6.509   2.208  0.00  0.00    +0.029 S 
ATOM     12  O   UNL     1       2.504   6.400   2.559  0.00  0.00    -0.164 OA
ATOM     13  O   UNL     1       0.698   6.665   0.864  0.00  0.00    -0.164 OA
BRANCH  11  18
ATOM     14  C   UNL     1      -1.067  11.212   5.283  0.00  0.00    +0.044 C 
ATOM     15  C   UNL     1      -0.518  10.037   4.515  0.00  0.00    -0.050 A 
ATOM     16  C   UNL     1       0.601   9.371   4.978  0.00  0.00    +0.005 A 
ATOM     17  C   UNL     1       1.105   8.294   4.273  0.00  0.00    +0.027 A 
ATOM     18  C   UNL     1       0.489   7.882   3.106  0.00  0.00    +0.094 A 
ATOM     19  C   UNL     1      -0.628   8.551   2.641  0.00  0.00    +0.027 A 
ATOM     20  C   UNL     1      -1.134   9.626   3.348  0.00  0.00    +0.005 A 
ENDBRANCH  11  18
ENDBRANCH   1  11
BRANCH  10  21
ATOM     21  O   UNL     1       1.376   5.414   4.919  0.00  0.00    -0.503 OA
ATOM     22  H   UNL     1       0.926   6.115   5.410  0.00  0.00    +0.292 HD
ENDBRANCH  10  21
BRANCH   3  23
ATOM     23  N   UNL     1      -1.974   2.469   1.607  0.00  0.00    -0.216 N 
ATOM     24  H   UNL     1      -2.770   2.043   1.962  0.00  0.00    +0.174 HD
BRANCH  23  25
ATOM     25  S   UNL     1      -1.610   2.331  -0.003  0.00  0.00    +0.072 S 
ATOM     26  O   UNL     1      -1.431   3.653  -0.493  0.00  0.00    -0.150 OA
ATOM     27  O   UNL     1      -2.562   1.435  -0.559  0.00  0.00    -0.150 OA
BRANCH  25  28
ATOM     28  C   UNL     1      -0.043   1.535  -0.116  0.00  0.00    +0.109 A 
ATOM     29  C   UNL     1       1.116   2.288  -0.135  0.00  0.00    +0.029 A 
ATOM     30  C   UNL     1       2.345   1.664  -0.231  0.00  0.00    +0.005 A 
ATOM     31  C   UNL     1       2.416   0.285  -0.307  0.00  0.00    -0.050 A 
ATOM     32  C   UNL     1       1.258  -0.469  -0.288  0.00  0.00    +0.005 A 
ATOM     33  C   UNL     1       0.028   0.156  -0.193  0.00  0.00    +0.029 A 
ATOM     34  C   UNL     1       3.757  -0.396  -0.410  0.00  0.00    +0.044 C 
ENDBRANCH  25  28
ENDBRANCH  23  25
ENDBRANCH   3  23
TORSDOF 6
