REMARK  Name = ZINC09237991
REMARK  6 active torsions:
REMARK  status: ('A' for Active; 'I' for Inactive)
REMARK    1  A    between atoms: C_1  and  O_2
REMARK    2  A    between atoms: O_2  and  C_3
REMARK    3  A    between atoms: C_6  and  C_9
REMARK    4  A    between atoms: C_11  and  C_26
REMARK    5  A    between atoms: C_17  and  C_20
REMARK    6  A    between atoms: N_28  and  C_29
REMARK                            x       y       z     vdW  Elec       q    Type
REMARK                         _______ _______ _______ _____ _____    ______ ____
ROOT
ATOM      1  C   UNL     1      -2.208  -0.170   1.031  0.00  0.00    +0.140 C 
ATOM      2  C   UNL     1      -2.656   0.992   0.134  0.00  0.00    +0.166 C 
ATOM      3  S   UNL     1      -1.419   2.317   0.278  0.00  0.00    -0.069 S 
ATOM      4  C   UNL     1       0.028   1.312   0.160  0.00  0.00    +0.210 A 
ATOM      5  N   UNL     1       1.262   1.696  -0.029  0.00  0.00    -0.121 NA
ATOM      6  N   UNL     1       2.039   0.669  -0.043  0.00  0.00    -0.127 NA
ATOM      7  C   UNL     1       1.338  -0.428   0.133  0.00  0.00    +0.182 A 
ATOM      8  N   UNL     1       0.023  -0.051   0.262  0.00  0.00    -0.221 N 
ATOM      9  N   UNL     1      -1.056  -0.855   0.443  0.00  0.00    -0.272 N 
ATOM     10  H   UNL     1      -0.811  -1.674   0.978  0.00  0.00    +0.167 HD
ENDROOT
BRANCH   1  14
ATOM     11  C   UNL     1      -5.435  -2.940   1.452  0.00  0.00    +0.120 A 
ATOM     12  C   UNL     1      -5.183  -2.009   2.450  0.00  0.00    +0.046 A 
ATOM     13  C   UNL     1      -4.140  -1.115   2.311  0.00  0.00    +0.009 A 
ATOM     14  C   UNL     1      -3.346  -1.147   1.179  0.00  0.00    -0.024 A 
ATOM     15  C   UNL     1      -3.598  -2.070   0.181  0.00  0.00    +0.009 A 
ATOM     16  C   UNL     1      -4.637  -2.970   0.318  0.00  0.00    +0.046 A 
BRANCH  11  18
ATOM     17  C   UNL     1      -6.660  -4.751   0.520  0.00  0.00    +0.277 C 
ATOM     18  O   UNL     1      -6.460  -3.821   1.586  0.00  0.00    -0.495 OA
ENDBRANCH  11  18
ENDBRANCH   1  14
BRANCH   7  19
ATOM     19  C   UNL     1       1.864  -1.809   0.183  0.00  0.00    +0.021 A 
ATOM     20  C   UNL     1       1.004  -2.894   0.006  0.00  0.00    +0.011 A 
ATOM     21  C   UNL     1       1.503  -4.180   0.049  0.00  0.00    +0.001 A 
ATOM     22  C   UNL     1       2.850  -4.395   0.276  0.00  0.00    +0.000 A 
ATOM     23  C   UNL     1       3.707  -3.324   0.458  0.00  0.00    +0.001 A 
ATOM     24  C   UNL     1       3.223  -2.033   0.413  0.00  0.00    +0.011 A 
ENDBRANCH   7  19
BRANCH   2  25
ATOM     25  C   UNL     1      -2.743   0.528  -1.297  0.00  0.00    +0.233 C 
ATOM     26  O   UNL     1      -2.012  -0.356  -1.693  0.00  0.00    -0.274 OA
ATOM     27  N   UNL     1      -3.631   1.094  -2.137  0.00  0.00    -0.283 N 
ATOM     28  H   UNL     1      -4.170   1.844  -1.839  0.00  0.00    +0.155 HD
BRANCH  27  29
ATOM     29  C   UNL     1      -3.778   0.600  -3.438  0.00  0.00    +0.052 A 
ATOM     30  C   UNL     1      -2.720  -0.052  -4.058  0.00  0.00    +0.025 A 
ATOM     31  C   UNL     1      -2.870  -0.543  -5.340  0.00  0.00    +0.002 A 
ATOM     32  C   UNL     1      -4.067  -0.377  -6.012  0.00  0.00    +0.002 A 
ATOM     33  C   UNL     1      -5.121   0.278  -5.400  0.00  0.00    +0.022 A 
ATOM     34  C   UNL     1      -4.980   0.767  -4.115  0.00  0.00    +0.062 A 
ATOM     35 CL   UNL     1      -6.303   1.588  -3.348  0.00  0.00    -0.082 Cl
ENDBRANCH  27  29
ENDBRANCH   2  25
TORSDOF 5
