REMARK  Name = ZINC02708409
REMARK  8 active torsions:
REMARK  status: ('A' for Active; 'I' for Inactive)
REMARK    1  A    between atoms: C_1  and  C_2
REMARK    2  A    between atoms: C_2  and  C_3
REMARK    3  A    between atoms: C_10  and  N_17
REMARK    4  A    between atoms: C_11  and  C_12
REMARK    5  A    between atoms: C_12  and  O_14
REMARK    6  A    between atoms: O_14  and  C_15
REMARK    7  A    between atoms: C_15  and  C_16
REMARK    8  A    between atoms: C_18  and  C_20
REMARK                            x       y       z     vdW  Elec       q    Type
REMARK                         _______ _______ _______ _____ _____    ______ ____
ROOT
ATOM      1  C   UNL     1      -9.540   6.128  -0.273  0.00  0.00    -0.006 C 
ATOM      2  C   UNL     1      -9.277   6.456   1.200  0.00  0.00    +0.008 C 
ATOM      3  C   UNL     1      -7.771   6.553   1.450  0.00  0.00    +0.037 C 
ATOM      4  C   UNL     1      -7.104   5.289   0.922  0.00  0.00    -0.021 A 
ATOM      5  C   UNL     1      -7.734   4.488   0.037  0.00  0.00    -0.004 A 
ATOM      6  S   UNL     1      -6.589   3.176  -0.283  0.00  0.00    -0.077 S 
ATOM      7  C   UNL     1      -5.292   3.679   0.750  0.00  0.00    +0.086 A 
ATOM      8  C   UNL     1      -5.774   4.854   1.313  0.00  0.00    +0.091 A 
ATOM      9  C   UNL     1      -9.101   4.682  -0.544  0.00  0.00    +0.046 C 
ENDROOT
BRANCH   7  10
ATOM     10  N   UNL     1      -4.069   3.062   0.960  0.00  0.00    -0.276 N 
ATOM     11  C   UNL     1      -3.775   1.914   0.318  0.00  0.00    +0.259 C 
ATOM     12  O   UNL     1      -4.580   1.421  -0.443  0.00  0.00    -0.271 OA
ATOM     13  H   UNL     1      -3.425   3.456   1.569  0.00  0.00    +0.155 HD
BRANCH  11  14
ATOM     14  C   UNL     1      -2.445   1.242   0.546  0.00  0.00    +0.266 C 
ATOM     15  C   UNL     1      -1.324   2.139   0.020  0.00  0.00    +0.090 C 
ATOM     16  C   UNL     1      -0.017   1.391   0.010  0.00  0.00    -0.029 A 
ATOM     17  C   UNL     1       1.175   2.088   0.002  0.00  0.00    +0.004 A 
ATOM     18  C   UNL     1       2.378   1.405  -0.017  0.00  0.00    +0.000 A 
ATOM     19  C   UNL     1       2.400   0.021  -0.029  0.00  0.00    +0.001 A 
ATOM     20  C   UNL     1       1.216  -0.688  -0.019  0.00  0.00    +0.015 A 
ATOM     21  C   UNL     1       0.002  -0.004   0.002  0.00  0.00    +0.062 A 
ATOM     22  C   UNL     1      -1.278  -0.749   0.021  0.00  0.00    +0.340 C 
ATOM     23  O   UNL     1      -1.309  -1.952   0.193  0.00  0.00    -0.245 OA
ATOM     24  O   UNL     1      -2.415  -0.031  -0.162  0.00  0.00    -0.448 OA
ENDBRANCH  11  14
ENDBRANCH   7  10
BRANCH   1  26
ATOM     25  C   UNL     1     -11.275   6.055  -2.069  0.00  0.00    +0.004 C 
ATOM     26  C   UNL     1     -11.033   6.276  -0.575  0.00  0.00    +0.000 C 
ENDBRANCH   1  26
BRANCH   8  27
ATOM     27  C   UNL     1      -4.972   5.624   2.266  0.00  0.00    +0.342 C 
ATOM     28  O   UNL     1      -4.223   6.495   1.866  0.00  0.00    -0.245 OA
BRANCH  27  29
ATOM     29  O   UNL     1      -5.062   5.367   3.587  0.00  0.00    -0.461 OA
BRANCH  29  30
ATOM     30  C   UNL     1      -4.238   6.169   4.473  0.00  0.00    +0.229 C 
ATOM     31  C   UNL     1      -4.475   5.736   5.921  0.00  0.00    +0.048 C 
ENDBRANCH  29  30
ENDBRANCH  27  29
ENDBRANCH   8  27
TORSDOF 6
