REMARK  Name = ZINC32109687
REMARK  10 active torsions:
REMARK  status: ('A' for Active; 'I' for Inactive)
REMARK    1  A    between atoms: C_1  and  C_2
REMARK    2  A    between atoms: C_3  and  N_34
REMARK    3  A    between atoms: C_4  and  C_33
REMARK    4  A    between atoms: N_5  and  C_7
REMARK    5  A    between atoms: C_7  and  C_8
REMARK    6  A    between atoms: C_10  and  C_16
REMARK    7  A    between atoms: C_13  and  O_14
REMARK    8  A    between atoms: O_14  and  C_15
REMARK    9  A    between atoms: C_22  and  O_28
REMARK   10  A    between atoms: O_28  and  C_29
REMARK                            x       y       z     vdW  Elec       q    Type
REMARK                         _______ _______ _______ _____ _____    ______ ____
ROOT
ATOM      1  C   UNL     1      -0.664   4.124   4.760  0.00  0.00    +0.016 A 
ATOM      2  C   UNL     1      -1.672   5.005   5.101  0.00  0.00    +0.011 A 
ATOM      3  C   UNL     1      -1.411   6.361   5.174  0.00  0.00    -0.055 A 
ATOM      4  C   UNL     1      -0.144   6.840   4.895  0.00  0.00    +0.006 A 
ATOM      5  C   UNL     1       0.865   5.963   4.548  0.00  0.00    +0.046 A 
ATOM      6  C   UNL     1       0.608   4.602   4.480  0.00  0.00    +0.125 A 
ENDROOT
BRANCH   3   7
ATOM      7  C   UNL     1      -2.511   7.319   5.552  0.00  0.00    +0.007 C 
ATOM      8  C   UNL     1      -3.066   7.972   4.308  0.00  0.00    +0.010 A 
ATOM      9  C   UNL     1      -3.338   9.295   4.228  0.00  0.00    -0.022 A 
ATOM     10  C   UNL     1      -3.846   9.548   2.898  0.00  0.00    +0.006 A 
ATOM     11  C   UNL     1      -4.285  10.710   2.254  0.00  0.00    +0.056 A 
ATOM     12  C   UNL     1      -4.716  10.572   0.943  0.00  0.00    +0.121 A 
ATOM     13  C   UNL     1      -4.715   9.342   0.297  0.00  0.00    +0.047 A 
ATOM     14  C   UNL     1      -4.285   8.183   0.918  0.00  0.00    +0.030 A 
ATOM     15  C   UNL     1      -3.846   8.293   2.235  0.00  0.00    +0.047 A 
ATOM     16  N   UNL     1      -3.367   7.366   3.119  0.00  0.00    -0.359 N 
ATOM     17  H   UNL     1      -3.209   6.284   2.998  0.00  0.00    +0.166 HD
ATOM     18  C   UNL     1      -3.125  10.258   5.369  0.00  0.00    +0.018 C 
ATOM     19  C   UNL     1      -2.955   9.438   6.656  0.00  0.00    -0.076 C 
ATOM     20  N   UNL     1      -1.972   8.368   6.433  0.00  0.00    +0.387 N 
ATOM     21  H   UNL     1      -1.708   7.928   7.407  0.00  0.00    -0.084 HD
ATOM     22  H   UNL     1      -1.075   8.807   5.974  0.00  0.00    -0.084 HD
BRANCH  12  23
ATOM     23  O   UNL     1      -5.152  11.672   0.272  0.00  0.00    -0.495 OA
ATOM     24  C   UNL     1      -5.587  11.479  -1.076  0.00  0.00    +0.277 C 
ENDBRANCH  12  23
ENDBRANCH   3   7
BRANCH   6  25
ATOM     25  O   UNL     1       1.599   3.738   4.138  0.00  0.00    -0.495 OA
ATOM     26  C   UNL     1       2.884   4.300   3.863  0.00  0.00    +0.277 C 
ENDBRANCH   6  25
BRANCH   1  27
ATOM     27  C   UNL     1      -0.948   2.646   4.686  0.00  0.00    +0.182 C 
BRANCH  27  32
ATOM     28  C   UNL     1      -0.013   1.086   0.008  0.00  0.00    +0.070 C 
ATOM     29  C   UNL     1      -0.718   1.572   1.248  0.00  0.00    +0.090 A 
ATOM     30  C   UNL     1      -2.088   1.831   1.364  0.00  0.00    +0.169 A 
ATOM     31  C   UNL     1      -2.327   2.246   2.630  0.00  0.00    +0.067 A 
ATOM     32  N   UNL     1      -1.150   2.256   3.289  0.00  0.00    -0.262 N 
ATOM     33  N   UNL     1      -0.154   1.829   2.400  0.00  0.00    -0.174 NA
ATOM     34  C   UNL     1      -3.668   2.632   3.199  0.00  0.00    +0.068 C 
BRANCH  30  35
ATOM     35  N   UNL     1      -3.097   1.677   0.292  0.00  0.00    +0.060 N 
ATOM     36  O   UNL     1      -3.677   0.615   0.150  0.00  0.00    -0.126 OA
ATOM     37  O   UNL     1      -3.348   2.612  -0.447  0.00  0.00    -0.126 OA
ENDBRANCH  30  35
ENDBRANCH  27  32
ENDBRANCH   1  27
TORSDOF 6
