REMARK  Name = ZINC09505935
REMARK  8 active torsions:
REMARK  status: ('A' for Active; 'I' for Inactive)
REMARK    1  A    between atoms: C_1  and  C_2
REMARK    2  A    between atoms: C_9  and  N_15
REMARK    3  A    between atoms: C_10  and  C_11
REMARK    4  A    between atoms: C_11  and  O_13
REMARK    5  A    between atoms: O_13  and  C_14
REMARK    6  A    between atoms: C_16  and  C_18
REMARK    7  A    between atoms: N_23  and  S_24
REMARK    8  A    between atoms: S_24  and  C_27
REMARK                            x       y       z     vdW  Elec       q    Type
REMARK                         _______ _______ _______ _____ _____    ______ ____
ROOT
ATOM      1  N   UNL     1       2.342   3.289  -0.003  0.00  0.00    -0.278 N 
ATOM      2  C   UNL     1       1.634   4.436   0.011  0.00  0.00    +0.236 C 
ATOM      3  O   UNL     1       0.422   4.401   0.022  0.00  0.00    -0.274 OA
ATOM      4  H   UNL     1       3.311   3.318  -0.012  0.00  0.00    +0.155 HD
ENDROOT
BRANCH   1  12
ATOM      5  C   UNL     1      -1.748  -3.377  -0.092  0.00  0.00    +0.008 C 
ATOM      6  C   UNL     1      -0.661  -2.341  -0.384  0.00  0.00    -0.009 C 
ATOM      7  C   UNL     1       0.589  -2.663   0.440  0.00  0.00    +0.008 C 
ATOM      8  C   UNL     1       1.756  -1.789  -0.024  0.00  0.00    +0.037 C 
ATOM      9  C   UNL     1       1.312  -0.332  -0.012  0.00  0.00    -0.021 A 
ATOM     10  C   UNL     1       0.002  -0.004   0.002  0.00  0.00    -0.004 A 
ATOM     11  S   UNL     1      -0.022   1.766   0.012  0.00  0.00    -0.077 S 
ATOM     12  C   UNL     1       1.684   2.069  -0.003  0.00  0.00    +0.086 A 
ATOM     13  C   UNL     1       2.232   0.793  -0.015  0.00  0.00    +0.091 A 
ATOM     14  C   UNL     1      -1.164  -0.944   0.007  0.00  0.00    +0.046 C 
BRANCH  13  15
ATOM     15  C   UNL     1       3.682   0.590  -0.030  0.00  0.00    +0.342 C 
ATOM     16  O   UNL     1       4.274   0.511  -1.090  0.00  0.00    -0.245 OA
BRANCH  15  17
ATOM     17  O   UNL     1       4.361   0.489   1.130  0.00  0.00    -0.464 OA
ATOM     18  C   UNL     1       5.796   0.287   1.039  0.00  0.00    +0.280 C 
ENDBRANCH  15  17
ENDBRANCH  13  15
ENDBRANCH   1  12
BRANCH   2  19
ATOM     19  C   UNL     1       2.350   5.763   0.011  0.00  0.00    +0.166 C 
ATOM     20  C   UNL     1       3.191   5.906  -1.275  0.00  0.00    +0.031 C 
ATOM     21  C   UNL     1       3.013   7.402  -1.642  0.00  0.00    +0.019 C 
ATOM     22  C   UNL     1       1.547   7.656  -1.213  0.00  0.00    +0.110 C 
ATOM     23  N   UNL     1       1.370   6.859   0.019  0.00  0.00    -0.164 NA
BRANCH  23  24
ATOM     24  S   UNL     1       0.256   7.149   1.210  0.00  0.00    +0.068 S 
ATOM     25  O   UNL     1      -0.800   7.885   0.607  0.00  0.00    -0.152 OA
ATOM     26  O   UNL     1       0.040   5.912   1.874  0.00  0.00    -0.152 OA
BRANCH  24  27
ATOM     27  C   UNL     1       1.014   8.225   2.382  0.00  0.00    +0.143 A 
ATOM     28  C   UNL     1       1.030   9.580   2.411  0.00  0.00    +0.036 A 
ATOM     29  C   UNL     1       1.693  10.220   3.442  0.00  0.00    +0.010 A 
ATOM     30  C   UNL     1       2.315   9.474   4.387  0.00  0.00    +0.047 A 
ATOM     31  S   UNL     1       1.966   7.812   3.835  0.00  0.00    -0.077 S 
ENDBRANCH  24  27
ENDBRANCH  23  24
ENDBRANCH   2  19
TORSDOF 6
