REMARK  Name = ZINC46710012
REMARK  11 active torsions:
REMARK  status: ('A' for Active; 'I' for Inactive)
REMARK    1  A    between atoms: C_1  and  C_2
REMARK    2  A    between atoms: C_2  and  C_3
REMARK    3  A    between atoms: C_2  and  C_4
REMARK    4  A    between atoms: C_4  and  C_6
REMARK    5  A    between atoms: C_4  and  N_21
REMARK    6  A    between atoms: N_12  and  C_15
REMARK    7  A    between atoms: C_15  and  C_16
REMARK    8  A    between atoms: N_21  and  S_22
REMARK    9  A    between atoms: S_22  and  C_25
REMARK   10  A    between atoms: C_28  and  O_31
REMARK   11  A    between atoms: O_31  and  C_32
REMARK                            x       y       z     vdW  Elec       q    Type
REMARK                         _______ _______ _______ _____ _____    ______ ____
ROOT
ATOM      1  C   UNL     1      -1.657  -0.592  -0.177  0.00  0.00    +0.165 C 
ENDROOT
BRANCH   1   2
ATOM      2  C   UNL     1      -2.727  -0.400  -1.221  0.00  0.00    +0.234 C 
ATOM      3  O   UNL     1      -2.892  -1.238  -2.082  0.00  0.00    -0.274 OA
ATOM      4  N   UNL     1      -3.501   0.704  -1.197  0.00  0.00    -0.302 N 
ATOM      5  C   UNL     1      -3.204   1.760  -0.208  0.00  0.00    +0.106 C 
ATOM      6  C   UNL     1      -3.336   3.159  -0.836  0.00  0.00    +0.000 C 
ATOM      7  C   UNL     1      -2.768   3.137  -2.238  0.00  0.00    -0.077 C 
ATOM      8  N   UNL     1      -3.845   2.872  -3.190  0.00  0.00    +0.384 N 
ATOM      9  C   UNL     1      -4.100   1.504  -3.435  0.00  0.00    -0.059 C 
ATOM     10  C   UNL     1      -4.589   0.814  -2.147  0.00  0.00    +0.089 C 
ATOM     11  H   UNL     1      -4.691   3.296  -2.840  0.00  0.00    -0.081 HD
BRANCH   8  12
ATOM     12  C   UNL     1      -3.505   3.516  -4.466  0.00  0.00    -0.036 C 
BRANCH  12  13
ATOM     13  C   UNL     1      -4.654   3.363  -5.428  0.00  0.00    -0.027 A 
ATOM     14  C   UNL     1      -5.714   4.184  -5.630  0.00  0.00    +0.009 A 
ATOM     15  C   UNL     1      -6.658   3.838  -6.578  0.00  0.00    +0.008 A 
ATOM     16  C   UNL     1      -6.497   2.689  -7.278  0.00  0.00    +0.045 A 
ATOM     17  S   UNL     1      -4.970   2.057  -6.604  0.00  0.00    -0.103 S 
ENDBRANCH  12  13
ENDBRANCH   8  12
ENDBRANCH   1   2
BRANCH   1  19
ATOM     18  C   UNL     1       0.680   0.005   0.473  0.00  0.00    +0.009 C 
ATOM     19  C   UNL     1      -0.363   0.077  -0.644  0.00  0.00    +0.010 C 
ATOM     20  C   UNL     1       0.167  -0.646  -1.884  0.00  0.00    +0.009 C 
ENDBRANCH   1  19
BRANCH   1  21
ATOM     21  N   UNL     1      -1.422  -2.025   0.022  0.00  0.00    -0.178 NA
ATOM     22  H   UNL     1      -1.123  -2.575  -0.719  0.00  0.00    +0.149 HD
BRANCH  21  23
ATOM     23  S   UNL     1      -1.667  -2.704   1.512  0.00  0.00    +0.059 S 
ATOM     24  O   UNL     1      -1.479  -4.104   1.356  0.00  0.00    -0.153 OA
ATOM     25  O   UNL     1      -0.914  -1.933   2.438  0.00  0.00    -0.153 OA
BRANCH  23  26
ATOM     26  C   UNL     1      -3.364  -2.467   1.921  0.00  0.00    +0.105 A 
ATOM     27  C   UNL     1      -3.758  -1.327   2.597  0.00  0.00    +0.032 A 
ATOM     28  C   UNL     1      -5.088  -1.138   2.919  0.00  0.00    +0.047 A 
ATOM     29  C   UNL     1      -6.029  -2.094   2.563  0.00  0.00    +0.120 A 
ATOM     30  C   UNL     1      -5.631  -3.236   1.884  0.00  0.00    +0.047 A 
ATOM     31  C   UNL     1      -4.300  -3.418   1.560  0.00  0.00    +0.032 A 
BRANCH  29  32
ATOM     32  O   UNL     1      -7.338  -1.911   2.879  0.00  0.00    -0.495 OA
ATOM     33  C   UNL     1      -8.251  -2.936   2.482  0.00  0.00    +0.277 C 
ENDBRANCH  29  32
ENDBRANCH  23  26
ENDBRANCH  21  23
ENDBRANCH   1  21
TORSDOF 8
