REMARK  Name = ZINC51044335
REMARK  7 active torsions:
REMARK  status: ('A' for Active; 'I' for Inactive)
REMARK    1  A    between atoms: C_1  and  C_2
REMARK    2  A    between atoms: C_7  and  C_8
REMARK    3  A    between atoms: N_13  and  C_14
REMARK    4  A    between atoms: C_14  and  C_16
REMARK    5  A    between atoms: C_16  and  N_17
REMARK    6  A    between atoms: C_21  and  C_24
REMARK    7  A    between atoms: N_26  and  C_27
REMARK                            x       y       z     vdW  Elec       q    Type
REMARK                         _______ _______ _______ _____ _____    ______ ____
ROOT
ATOM      1  C   UNL     1      -0.014   0.088   7.203  0.00  0.00    +0.222 C 
ATOM      2  O   UNL     1      -0.208   1.279   7.053  0.00  0.00    -0.276 OA
ENDROOT
BRANCH   1   8
ATOM      3  C   UNL     1      -0.107  -0.136   2.571  0.00  0.00    +0.055 A 
ATOM      4  C   UNL     1      -0.314   1.194   2.701  0.00  0.00    +0.074 A 
ATOM      5  S   UNL     1      -0.298   1.399   4.472  0.00  0.00    -0.060 S 
ATOM      6  C   UNL     1      -0.032  -0.200   4.916  0.00  0.00    +0.163 A 
ATOM      7  N   UNL     1       0.034  -0.853   3.726  0.00  0.00    -0.335 N 
ATOM      8  N   UNL     1       0.083  -0.707   6.145  0.00  0.00    -0.158 NA
ATOM      9  H   UNL     1       0.181  -1.812   3.697  0.00  0.00    +0.168 HD
BRANCH   3  16
ATOM     10  C   UNL     1       2.245  -1.653   1.834  0.00  0.00    +0.044 C 
ATOM     11  C   UNL     1       1.088  -1.518   0.877  0.00  0.00    -0.041 A 
ATOM     12  C   UNL     1       1.141  -2.125  -0.361  0.00  0.00    +0.004 A 
ATOM     13  C   UNL     1       0.081  -2.002  -1.241  0.00  0.00    +0.000 A 
ATOM     14  C   UNL     1      -1.040  -1.272  -0.885  0.00  0.00    +0.001 A 
ATOM     15  C   UNL     1      -1.105  -0.660   0.349  0.00  0.00    +0.010 A 
ATOM     16  C   UNL     1      -0.041  -0.784   1.243  0.00  0.00    +0.002 A 
ENDBRANCH   3  16
ENDBRANCH   1   8
BRANCH   1  17
ATOM     17  C   UNL     1       0.116  -0.485   8.591  0.00  0.00    +0.021 C 
BRANCH  17  18
ATOM     18  N   UNL     1      -0.028   0.590   9.580  0.00  0.00    +0.386 N 
ATOM     19  C   UNL     1      -1.385   1.144   9.505  0.00  0.00    -0.078 C 
ATOM     20  C   UNL     1      -1.515   2.319  10.478  0.00  0.00    -0.018 C 
ATOM     21  C   UNL     1      -1.240   1.828  11.902  0.00  0.00    +0.009 C 
ATOM     22  C   UNL     1       0.149   1.186  11.951  0.00  0.00    +0.058 C 
ATOM     23  C   UNL     1       0.218   0.053  10.924  0.00  0.00    -0.065 C 
ATOM     24  H   UNL     1       0.642   1.319   9.383  0.00  0.00    -0.081 HD
BRANCH  22  25
ATOM     25  C   UNL     1       0.399   0.632  13.330  0.00  0.00    +0.215 C 
ATOM     26  O   UNL     1       0.615  -0.553  13.478  0.00  0.00    -0.276 OA
ATOM     27  N   UNL     1       0.383   1.452  14.399  0.00  0.00    -0.312 N 
ATOM     28  H   UNL     1       0.210   2.400  14.280  0.00  0.00    +0.149 HD
BRANCH  27  29
ATOM     29  C   UNL     1       0.626   0.914  15.739  0.00  0.00    +0.073 C 
ATOM     30  C   UNL     1      -0.282   1.399  16.871  0.00  0.00    +0.024 C 
ATOM     31  C   UNL     1       1.171   1.875  16.799  0.00  0.00    +0.024 C 
ENDBRANCH  27  29
ENDBRANCH  22  25
ENDBRANCH  17  18
ENDBRANCH   1  17
TORSDOF 6
