REMARK  Name = ZINC64588813
REMARK  4 active torsions:
REMARK  status: ('A' for Active; 'I' for Inactive)
REMARK    1  A    between atoms: C_5  and  C_7
REMARK    2  A    between atoms: N_9  and  C_10
REMARK    3  A    between atoms: C_13  and  N_19
REMARK    4  A    between atoms: C_15  and  C_16
REMARK                            x       y       z     vdW  Elec       q    Type
REMARK                         _______ _______ _______ _____ _____    ______ ____
ROOT
ATOM      1  C   UNL     1       0.128  -4.244  -0.124  0.00  0.00    +0.048 A 
ATOM      2  C   UNL     1       1.384  -4.836  -0.127  0.00  0.00    +0.026 A 
ATOM      3  C   UNL     1       1.504  -6.207  -0.217  0.00  0.00    +0.025 A 
ATOM      4  C   UNL     1       0.370  -7.009  -0.304  0.00  0.00    +0.031 A 
ATOM      5  C   UNL     1      -0.889  -6.436  -0.302  0.00  0.00    +0.040 A 
ATOM      6  C   UNL     1      -1.021  -5.046  -0.206  0.00  0.00    +0.086 A 
ENDROOT
BRANCH   4   7
ATOM      7  N   UNL     1       0.503  -8.399  -0.395  0.00  0.00    -0.330 N 
ATOM      8  C   UNL     1      -0.674  -9.251  -0.610  0.00  0.00    +0.105 C 
ATOM      9  C   UNL     1      -0.419 -10.146  -1.827  0.00  0.00    +0.019 C 
ATOM     10  C   UNL     1       0.887 -10.917  -1.624  0.00  0.00    +0.003 C 
ATOM     11  C   UNL     1       2.050  -9.930  -1.498  0.00  0.00    +0.019 C 
ATOM     12  C   UNL     1       1.824  -9.033  -0.283  0.00  0.00    +0.105 C 
ENDBRANCH   4   7
BRANCH   1  15
ATOM     13  C   UNL     1       0.987  -2.135   0.543  0.00  0.00    +0.251 C 
ATOM     14  O   UNL     1       1.925  -2.695   1.077  0.00  0.00    -0.270 OA
ATOM     15  N   UNL     1       0.008  -2.860  -0.034  0.00  0.00    -0.281 N 
ATOM     16  H   UNL     1      -0.779  -2.417  -0.387  0.00  0.00    +0.155 HD
BRANCH  13  21
ATOM     17  C   UNL     1      -0.211   1.365  -0.095  0.00  0.00    +0.001 A 
ATOM     18  C   UNL     1       0.795   2.108   0.499  0.00  0.00    +0.003 A 
ATOM     19  C   UNL     1       1.863   1.477   1.107  0.00  0.00    +0.039 A 
ATOM     20  C   UNL     1       1.934   0.096   1.126  0.00  0.00    +0.135 A 
ATOM     21  C   UNL     1       0.920  -0.660   0.528  0.00  0.00    +0.072 A 
ATOM     22  C   UNL     1      -0.155  -0.012  -0.084  0.00  0.00    +0.016 A 
ATOM     23  F   UNL     1       2.979  -0.521   1.720  0.00  0.00    -0.205 F 
ENDBRANCH  13  21
ENDBRANCH   1  15
BRANCH   6  24
ATOM     24  C   UNL     1      -2.357  -4.429  -0.197  0.00  0.00    +0.388 C 
ATOM     25  O   UNL     1      -3.352  -5.121  -0.366  0.00  0.00    -0.241 OA
ATOM     26  O   UNL     1      -2.472  -3.224  -0.021  0.00  0.00    -0.241 OA
ENDBRANCH   6  24
TORSDOF 4
