REMARK  Name = ZINC12856340
REMARK  5 active torsions:
REMARK  status: ('A' for Active; 'I' for Inactive)
REMARK    1  A    between atoms: C_1  and  C_2
REMARK    2  A    between atoms: C_9  and  C_19
REMARK    3  A    between atoms: C_12  and  C_13
REMARK    4  A    between atoms: N_21  and  N_22
REMARK    5  A    between atoms: C_23  and  C_25
REMARK                            x       y       z     vdW  Elec       q    Type
REMARK                         _______ _______ _______ _____ _____    ______ ____
ROOT
ATOM      1  C   UNL     1      -2.525   1.261  -0.519  0.00  0.00    +0.051 C 
ATOM      2  C   UNL     1      -1.222   1.964  -0.240  0.00  0.00    +0.040 A 
ATOM      3  C   UNL     1      -0.004   1.243  -0.262  0.00  0.00    +0.196 A 
ATOM      4  O   UNL     1       0.021   0.048  -0.503  0.00  0.00    -0.287 OA
ATOM      5  C   UNL     1       1.235   1.998   0.014  0.00  0.00    +0.065 A 
ATOM      6  C   UNL     1       2.480   1.371   0.008  0.00  0.00    +0.015 A 
ATOM      7  C   UNL     1       3.620   2.104   0.270  0.00  0.00    +0.002 A 
ATOM      8  C   UNL     1       3.538   3.458   0.538  0.00  0.00    +0.017 A 
ATOM      9  C   UNL     1       2.301   4.104   0.548  0.00  0.00    +0.081 A 
ATOM     10  C   UNL     1       1.135   3.370   0.284  0.00  0.00    +0.151 A 
ATOM     11  O   UNL     1      -0.072   3.968   0.287  0.00  0.00    -0.454 OA
ATOM     12  C   UNL     1      -1.207   3.296   0.038  0.00  0.00    +0.142 A 
ENDROOT
BRANCH  12  13
ATOM     13  C   UNL     1      -2.487   4.030   0.061  0.00  0.00    +0.018 A 
ATOM     14  C   UNL     1      -2.641   5.196  -0.692  0.00  0.00    +0.011 A 
ATOM     15  C   UNL     1      -3.842   5.874  -0.671  0.00  0.00    +0.001 A 
ATOM     16  C   UNL     1      -4.889   5.409   0.105  0.00  0.00    +0.000 A 
ATOM     17  C   UNL     1      -4.742   4.258   0.859  0.00  0.00    +0.001 A 
ATOM     18  C   UNL     1      -3.548   3.566   0.842  0.00  0.00    +0.011 A 
ENDBRANCH  12  13
BRANCH   9  19
ATOM     19  C   UNL     1       2.221   5.549   0.834  0.00  0.00    +0.264 C 
ATOM     20  O   UNL     1       1.141   6.108   0.842  0.00  0.00    -0.269 OA
ATOM     21  N   UNL     1       3.344   6.249   1.087  0.00  0.00    -0.230 N 
ATOM     22  H   UNL     1       4.206   5.803   1.081  0.00  0.00    +0.173 HD
BRANCH  21  23
ATOM     23  N   UNL     1       3.268   7.622   1.359  0.00  0.00    -0.231 N 
ATOM     24  C   UNL     1       4.391   8.322   1.612  0.00  0.00    +0.273 C 
ATOM     25  O   UNL     1       5.468   7.764   1.605  0.00  0.00    -0.270 OA
ATOM     26  H   UNL     1       2.407   8.068   1.365  0.00  0.00    +0.173 HD
BRANCH  24  27
ATOM     27  C   UNL     1       4.309   9.798   1.905  0.00  0.00    +0.297 C 
ATOM     28  C   UNL     1       3.575  10.022   3.233  0.00  0.00    +0.283 C 
ATOM     29  O   UNL     1       3.526  11.431   3.486  0.00  0.00    -0.484 OA
ATOM     30  C   UNL     1       4.684  12.124   3.308  0.00  0.00    +0.162 A 
ATOM     31  C   UNL     1       4.813  13.388   3.864  0.00  0.00    +0.049 A 
ATOM     32  C   UNL     1       5.981  14.105   3.689  0.00  0.00    +0.004 A 
ATOM     33  C   UNL     1       7.024  13.566   2.959  0.00  0.00    +0.004 A 
ATOM     34  C   UNL     1       6.902  12.307   2.402  0.00  0.00    +0.049 A 
ATOM     35  C   UNL     1       5.733  11.581   2.575  0.00  0.00    +0.163 A 
ATOM     36  O   UNL     1       5.629  10.341   2.024  0.00  0.00    -0.472 OA
ENDBRANCH  24  27
ENDBRANCH  21  23
ENDBRANCH   9  19
TORSDOF 4
