REMARK  Name = ZINC11974933
REMARK  10 active torsions:
REMARK  status: ('A' for Active; 'I' for Inactive)
REMARK    1  A    between atoms: C_1  and  C_2
REMARK    2  A    between atoms: C_2  and  C_3
REMARK    3  A    between atoms: C_2  and  C_4
REMARK    4  A    between atoms: C_4  and  N_5
REMARK    5  A    between atoms: C_6  and  N_33
REMARK    6  A    between atoms: C_7  and  C_14
REMARK    7  A    between atoms: C_14  and  C_16
REMARK    8  A    between atoms: C_16  and  S_17
REMARK    9  A    between atoms: S_17  and  C_18
REMARK   10  A    between atoms: C_21  and  C_27
REMARK                            x       y       z     vdW  Elec       q    Type
REMARK                         _______ _______ _______ _____ _____    ______ ____
ROOT
ATOM      1  C   UNL     1       4.814   9.399  -0.003  0.00  0.00    +0.182 C 
ATOM      2  O   UNL     1       3.600   9.362   0.023  0.00  0.00    -0.291 OA
ENDROOT
BRANCH   1   5
ATOM      3  N   UNL     1       5.457  13.028  -0.083  0.00  0.00    -0.281 N 
ATOM      4  C   UNL     1       4.767  11.850  -0.093  0.00  0.00    +0.116 A 
ATOM      5  C   UNL     1       5.481  10.643  -0.002  0.00  0.00    +0.120 A 
ATOM      6  C   UNL     1       6.945  10.717   0.088  0.00  0.00    +0.266 A 
ATOM      7  O   UNL     1       7.615   9.704   0.165  0.00  0.00    -0.267 OA
ATOM      8  N   UNL     1       7.532  11.932   0.085  0.00  0.00    -0.274 N 
ATOM      9  H   UNL     1       8.528  11.999   0.146  0.00  0.00    +0.173 HD
ATOM     10  C   UNL     1       6.796  13.052   0.001  0.00  0.00    +0.331 A 
ATOM     11  O   UNL     1       7.364  14.127   0.002  0.00  0.00    -0.246 OA
BRANCH   4  12
ATOM     12  N   UNL     1       3.409  11.844  -0.185  0.00  0.00    -0.344 N 
ATOM     13  H   UNL     1       2.922  11.009  -0.114  0.00  0.00    +0.144 HD
ATOM     14  H   UNL     1       2.929  12.676  -0.321  0.00  0.00    +0.144 HD
ENDBRANCH   4  12
BRANCH   3  15
ATOM     15  C   UNL     1       4.721  14.292  -0.172  0.00  0.00    +0.131 C 
BRANCH  15  17
ATOM     16  C   UNL     1       3.675  13.652  -2.348  0.00  0.00    +0.009 C 
ATOM     17  C   UNL     1       4.555  14.684  -1.641  0.00  0.00    +0.003 C 
ATOM     18  C   UNL     1       3.898  16.063  -1.731  0.00  0.00    +0.009 C 
ENDBRANCH  15  17
ENDBRANCH   3  15
ENDBRANCH   1   5
BRANCH   1  19
ATOM     19  C   UNL     1       5.607   8.118  -0.035  0.00  0.00    +0.155 C 
BRANCH  19  20
ATOM     20  S   UNL     1       4.474   6.707  -0.028  0.00  0.00    -0.097 S 
BRANCH  20  21
ATOM     21  C   UNL     1       5.635   5.382  -0.068  0.00  0.00    +0.109 A 
ATOM     22  C   UNL     1       5.187   4.030  -0.075  0.00  0.00    +0.040 A 
ATOM     23  C   UNL     1       3.838   3.504  -0.052  0.00  0.00    +0.029 A 
ATOM     24  C   UNL     1       3.657   2.160  -0.065  0.00  0.00    +0.022 A 
ATOM     25  S   UNL     1       5.320   1.520  -0.102  0.00  0.00    -0.069 S 
ATOM     26  C   UNL     1       6.209   3.054  -0.108  0.00  0.00    +0.113 A 
ATOM     27  N   UNL     1       7.483   3.394  -0.131  0.00  0.00    -0.228 NA
ATOM     28  C   UNL     1       7.835   4.665  -0.123  0.00  0.00    +0.223 A 
ATOM     29  N   UNL     1       6.935   5.631  -0.092  0.00  0.00    -0.229 NA
BRANCH  24  30
ATOM     30  C   UNL     1       2.385   1.407  -0.047  0.00  0.00    -0.011 A 
ATOM     31  C   UNL     1       1.167   2.088  -0.012  0.00  0.00    +0.009 A 
ATOM     32  C   UNL     1      -0.016   1.379   0.004  0.00  0.00    +0.001 A 
ATOM     33  C   UNL     1       0.003  -0.004  -0.013  0.00  0.00    +0.000 A 
ATOM     34  C   UNL     1       1.207  -0.686  -0.047  0.00  0.00    +0.001 A 
ATOM     35  C   UNL     1       2.397   0.011  -0.064  0.00  0.00    +0.009 A 
ENDBRANCH  24  30
ENDBRANCH  20  21
ENDBRANCH  19  20
ENDBRANCH   1  19
TORSDOF 8
