REMARK  Name = ZINC04858854
REMARK  9 active torsions:
REMARK  status: ('A' for Active; 'I' for Inactive)
REMARK    1  A    between atoms: C_1  and  C_2
REMARK    2  A    between atoms: C_2  and  C_3
REMARK    3  A    between atoms: C_3  and  C_5
REMARK    4  A    between atoms: C_3  and  N_6
REMARK    5  A    between atoms: N_6  and  C_7
REMARK    6  A    between atoms: C_7  and  C_9
REMARK    7  A    between atoms: C_7  and  C_15
REMARK    8  A    between atoms: N_17  and  C_18
REMARK    9  A    between atoms: C_24  and  C_26
REMARK                            x       y       z     vdW  Elec       q    Type
REMARK                         _______ _______ _______ _____ _____    ______ ____
ROOT
ATOM      1  C   UNL     1      -0.788   0.941   0.604  0.00  0.00    +0.194 C 
ENDROOT
BRANCH   1   2
ATOM      2  C   UNL     1      -1.445   1.423   1.871  0.00  0.00    -0.000 A 
ATOM      3  C   UNL     1      -1.407   0.648   3.021  0.00  0.00    +0.009 A 
ATOM      4  C   UNL     1      -2.026   1.131   4.163  0.00  0.00    +0.020 A 
ATOM      5  C   UNL     1      -2.655   2.361   4.120  0.00  0.00    +0.111 A 
ATOM      6  N   UNL     1      -2.671   3.071   3.009  0.00  0.00    -0.263 NA
ATOM      7  C   UNL     1      -2.089   2.645   1.905  0.00  0.00    +0.116 A 
ENDBRANCH   1   2
BRANCH   1   8
ATOM      8  C   UNL     1      -1.813   0.869  -0.498  0.00  0.00    +0.238 C 
ATOM      9  O   UNL     1      -1.783   1.671  -1.408  0.00  0.00    -0.273 OA
ATOM     10  N   UNL     1      -2.764  -0.086  -0.473  0.00  0.00    -0.311 N 
ATOM     11  H   UNL     1      -2.788  -0.727   0.255  0.00  0.00    +0.149 HD
BRANCH  10  12
ATOM     12  C   UNL     1      -3.761  -0.155  -1.544  0.00  0.00    +0.073 C 
ATOM     13  C   UNL     1      -4.916   0.797  -1.228  0.00  0.00    +0.022 C 
ATOM     14  C   UNL     1      -5.957   0.724  -2.347  0.00  0.00    +0.002 C 
ATOM     15  C   UNL     1      -6.490  -0.706  -2.456  0.00  0.00    +0.000 C 
ATOM     16  C   UNL     1      -5.335  -1.658  -2.771  0.00  0.00    +0.002 C 
ATOM     17  C   UNL     1      -4.293  -1.585  -1.652  0.00  0.00    +0.022 C 
ENDBRANCH  10  12
ENDBRANCH   1   8
BRANCH   1  18
ATOM     18  N   UNL     1       0.276   1.873   0.221  0.00  0.00    -0.278 N 
ATOM     19  C   UNL     1       1.560   1.463   0.211  0.00  0.00    +0.268 C 
ATOM     20  O   UNL     1       1.832   0.311   0.490  0.00  0.00    -0.268 OA
BRANCH  19  21
ATOM     21  C   UNL     1       2.633   2.409  -0.145  0.00  0.00    +0.156 A 
ATOM     22  C   UNL     1       3.975   2.058  -0.196  0.00  0.00    +0.101 A 
ATOM     23  S   UNL     1       4.693   3.564  -0.659  0.00  0.00    +0.029 S 
ATOM     24  N   UNL     1       3.394   4.453  -0.752  0.00  0.00    -0.110 NA
ATOM     25  N   UNL     1       2.413   3.680  -0.455  0.00  0.00    -0.136 NA
ENDBRANCH  19  21
BRANCH  18  26
ATOM     26  C   UNL     1      -0.056   3.251  -0.150  0.00  0.00    +0.074 C 
ATOM     27  C   UNL     1       0.531   4.213   0.884  0.00  0.00    +0.028 C 
BRANCH  26  29
ATOM     28  C   UNL     1      -0.521   3.292  -2.605  0.00  0.00    +0.005 C 
ATOM     29  C   UNL     1       0.532   3.563  -1.528  0.00  0.00    +0.019 C 
ENDBRANCH  26  29
ENDBRANCH  18  26
ENDBRANCH   1  18
TORSDOF 7
