REMARK  Name = ZINC17215225
REMARK  10 active torsions:
REMARK  status: ('A' for Active; 'I' for Inactive)
REMARK    1  A    between atoms: C_1  and  N_2
REMARK    2  A    between atoms: N_2  and  C_3
REMARK    3  A    between atoms: N_2  and  N_4
REMARK    4  A    between atoms: C_5  and  C_6
REMARK    5  A    between atoms: C_5  and  C_13
REMARK    6  A    between atoms: C_6  and  C_7
REMARK    7  A    between atoms: C_7  and  N_8
REMARK    8  A    between atoms: C_13  and  C_14
REMARK    9  A    between atoms: C_14  and  C_16
REMARK   10  A    between atoms: C_14  and  C_22
REMARK                            x       y       z     vdW  Elec       q    Type
REMARK                         _______ _______ _______ _____ _____    ______ ____
ROOT
ATOM      1  C   UNL     1      -0.779   1.621  -3.498  0.00  0.00    +0.065 C 
ENDROOT
BRANCH   1   2
ATOM      2  C   UNL     1      -0.529   0.865  -4.778  0.00  0.00    +0.092 A 
ATOM      3  C   UNL     1      -1.607   0.513  -5.617  0.00  0.00    +0.200 A 
ATOM      4  O   UNL     1      -2.756   0.809  -5.332  0.00  0.00    -0.287 OA
ATOM      5  C   UNL     1      -1.289  -0.227  -6.855  0.00  0.00    +0.065 A 
ATOM      6  C   UNL     1      -2.289  -0.616  -7.745  0.00  0.00    +0.015 A 
ATOM      7  C   UNL     1      -1.950  -1.305  -8.889  0.00  0.00    +0.001 A 
ATOM      8  C   UNL     1      -0.623  -1.609  -9.155  0.00  0.00    +0.004 A 
ATOM      9  C   UNL     1       0.374  -1.229  -8.283  0.00  0.00    +0.047 A 
ATOM     10  C   UNL     1       0.053  -0.534  -7.123  0.00  0.00    +0.143 A 
ATOM     11  O   UNL     1       1.014  -0.152  -6.256  0.00  0.00    -0.422 OA
ATOM     12  C   UNL     1       0.737   0.524  -5.133  0.00  0.00    +0.345 A 
ATOM     13  O   UNL     1       1.755   0.874  -4.320  0.00  0.00    -0.245 OA
ENDBRANCH   1   2
BRANCH   1  14
ATOM     14  C   UNL     1      -0.162   2.992  -3.595  0.00  0.00    -0.039 A 
ATOM     15  C   UNL     1      -0.929   4.069  -3.997  0.00  0.00    +0.004 A 
ATOM     16  C   UNL     1      -0.363   5.328  -4.082  0.00  0.00    +0.000 A 
ATOM     17  C   UNL     1       0.972   5.507  -3.774  0.00  0.00    +0.000 A 
ATOM     18  C   UNL     1       1.741   4.429  -3.377  0.00  0.00    +0.000 A 
ATOM     19  C   UNL     1       1.174   3.171  -3.288  0.00  0.00    +0.004 A 
ENDBRANCH   1  14
BRANCH   1  20
ATOM     20  C   UNL     1      -0.154   0.862  -2.327  0.00  0.00    +0.065 C 
BRANCH  20  22
ATOM     21  N   UNL     1      -1.594   1.101  -0.401  0.00  0.00    -0.194 NA
ATOM     22  C   UNL     1      -0.559   1.515  -1.031  0.00  0.00    +0.036 C 
BRANCH  21  24
ATOM     23  C   UNL     1      -2.389  -1.246  -0.255  0.00  0.00    +0.151 C 
ATOM     24  N   UNL     1      -2.363   0.055  -0.928  0.00  0.00    -0.262 N 
ATOM     25  C   UNL     1      -3.140   0.262  -2.153  0.00  0.00    +0.151 C 
ENDBRANCH  21  24
BRANCH  22  26
ATOM     26  C   UNL     1       0.254   2.656  -0.475  0.00  0.00    +0.034 C 
BRANCH  26  27
ATOM     27  C   UNL     1      -0.368   3.134   0.838  0.00  0.00    -0.073 C 
BRANCH  27  28
ATOM     28  N   UNL     1       0.424   4.246   1.379  0.00  0.00    +0.380 N 
ATOM     29  C   UNL     1       0.611   5.312   0.361  0.00  0.00    -0.079 C 
ATOM     30  C   UNL     1       0.966   6.557   1.213  0.00  0.00    -0.020 C 
ATOM     31  C   UNL     1       0.068   6.391   2.460  0.00  0.00    -0.020 C 
ATOM     32  C   UNL     1      -0.272   4.890   2.514  0.00  0.00    -0.079 C 
ATOM     33  H   UNL     1       1.383   3.806   1.691  0.00  0.00    -0.082 HD
ENDBRANCH  27  28
ENDBRANCH  26  27
ENDBRANCH  22  26
ENDBRANCH  20  22
ENDBRANCH   1  20
TORSDOF 8
