REMARK  Name = ZINC58171495
REMARK  7 active torsions:
REMARK  status: ('A' for Active; 'I' for Inactive)
REMARK    1  A    between atoms: C_3  and  O_33
REMARK    2  A    between atoms: C_6  and  C_7
REMARK    3  A    between atoms: C_7  and  C_8
REMARK    4  A    between atoms: C_8  and  C_9
REMARK    5  A    between atoms: N_17  and  C_18
REMARK    6  A    between atoms: C_18  and  C_20
REMARK    7  A    between atoms: C_18  and  C_30
REMARK                            x       y       z     vdW  Elec       q    Type
REMARK                         _______ _______ _______ _____ _____    ______ ____
ROOT
ATOM      1  C   UNL     1      -3.008  -1.832  -1.443  0.00  0.00    -0.008 C 
ATOM      2  C   UNL     1      -2.799  -3.218  -0.828  0.00  0.00    +0.022 C 
ATOM      3  C   UNL     1      -4.138  -3.961  -0.787  0.00  0.00    +0.109 C 
ATOM      4  N   UNL     1      -4.709  -3.982  -2.140  0.00  0.00    -0.286 N 
ATOM      5  C   UNL     1      -4.869  -2.711  -2.859  0.00  0.00    +0.109 C 
ATOM      6  C   UNL     1      -3.522  -1.981  -2.877  0.00  0.00    +0.022 C 
ATOM      7  C   UNL     1      -5.079  -5.145  -2.712  0.00  0.00    +0.303 C 
ATOM      8  O   UNL     1      -4.854  -6.198  -2.148  0.00  0.00    -0.253 OA
ATOM      9  N   UNL     1      -5.698  -5.141  -3.909  0.00  0.00    -0.292 N 
ATOM     10  H   UNL     1      -5.825  -4.306  -4.386  0.00  0.00    +0.151 HD
ENDROOT
BRANCH   1  11
ATOM     11  C   UNL     1      -1.679  -1.074  -1.454  0.00  0.00    +0.008 C 
BRANCH  11  12
ATOM     12  C   UNL     1      -1.227  -0.816  -0.016  0.00  0.00    +0.035 C 
BRANCH  12  18
ATOM     13  C   UNL     1       0.087   1.314  -0.032  0.00  0.00    +0.007 A 
ATOM     14  C   UNL     1       1.285   2.002  -0.042  0.00  0.00    +0.045 A 
ATOM     15  C   UNL     1       2.484   1.303  -0.046  0.00  0.00    +0.117 A 
ATOM     16  C   UNL     1       2.476  -0.084  -0.041  0.00  0.00    +0.045 A 
ATOM     17  C   UNL     1       1.275  -0.766  -0.031  0.00  0.00    +0.007 A 
ATOM     18  C   UNL     1       0.081  -0.068  -0.027  0.00  0.00    -0.047 A 
BRANCH  15  19
ATOM     19  O   UNL     1       3.664   1.977  -0.056  0.00  0.00    -0.507 OA
ATOM     20  H   UNL     1       4.011   2.176   0.824  0.00  0.00    +0.292 HD
ENDBRANCH  15  19
ENDBRANCH  12  18
ENDBRANCH  11  12
ENDBRANCH   1  11
BRANCH   9  21
ATOM     21  C   UNL     1      -6.178  -6.397  -4.490  0.00  0.00    +0.108 C 
BRANCH  21  22
ATOM     22  C   UNL     1      -7.311  -6.110  -5.441  0.00  0.00    -0.023 A 
ATOM     23  C   UNL     1      -7.248  -5.011  -6.277  0.00  0.00    +0.009 A 
ATOM     24  C   UNL     1      -8.286  -4.744  -7.150  0.00  0.00    +0.050 A 
ATOM     25  C   UNL     1      -9.393  -5.578  -7.190  0.00  0.00    +0.162 A 
ATOM     26  C   UNL     1      -9.455  -6.685  -6.351  0.00  0.00    +0.162 A 
ATOM     27  C   UNL     1      -8.408  -6.950  -5.480  0.00  0.00    +0.055 A 
ATOM     28  O   UNL     1     -10.528  -7.521  -6.379  0.00  0.00    -0.485 OA
ATOM     29  C   UNL     1     -11.717  -7.021  -7.000  0.00  0.00    +0.270 C 
ATOM     30  C   UNL     1     -11.326  -6.364  -8.330  0.00  0.00    +0.270 C 
ATOM     31  O   UNL     1     -10.409  -5.300  -8.052  0.00  0.00    -0.485 OA
ENDBRANCH  21  22
BRANCH  21  32
ATOM     32  C   UNL     1      -5.036  -7.078  -5.247  0.00  0.00    +0.014 C 
ATOM     33  C   UNL     1      -4.747  -8.545  -4.921  0.00  0.00    +0.006 C 
ATOM     34  C   UNL     1      -3.784  -7.453  -4.451  0.00  0.00    +0.006 C 
ENDBRANCH  21  32
ENDBRANCH   9  21
TORSDOF 7
