REMARK  Name = ZINC06059728
REMARK  11 active torsions:
REMARK  status: ('A' for Active; 'I' for Inactive)
REMARK    1  A    between atoms: C_1  and  C_2
REMARK    2  A    between atoms: C_5  and  N_8
REMARK    3  A    between atoms: N_8  and  C_9
REMARK    4  A    between atoms: N_8  and  S_20
REMARK    5  A    between atoms: C_9  and  C_10
REMARK    6  A    between atoms: C_10  and  C_12
REMARK    7  A    between atoms: C_10  and  O_19
REMARK    8  A    between atoms: C_12  and  N_60
REMARK    9  A    between atoms: C_15  and  C_18
REMARK   10  A    between atoms: S_20  and  C_23
REMARK   11  A    between atoms: C_26  and  N_29
REMARK                            x       y       z     vdW  Elec       q    Type
REMARK                         _______ _______ _______ _____ _____    ______ ____
ROOT
ATOM      1  N   UNL     1      -2.006   2.552   1.769  0.00  0.00    -0.201 N 
ENDROOT
BRANCH   1   6
ATOM      2  C   UNL     1      -1.339   6.854   5.403  0.00  0.00    +0.044 C 
ATOM      3  C   UNL     1      -1.517   5.710   4.438  0.00  0.00    -0.050 A 
ATOM      4  C   UNL     1      -2.788   5.281   4.103  0.00  0.00    +0.005 A 
ATOM      5  C   UNL     1      -2.954   4.234   3.218  0.00  0.00    +0.025 A 
ATOM      6  C   UNL     1      -1.842   3.611   2.664  0.00  0.00    +0.051 A 
ATOM      7  C   UNL     1      -0.567   4.042   3.007  0.00  0.00    +0.025 A 
ATOM      8  C   UNL     1      -0.408   5.093   3.888  0.00  0.00    +0.005 A 
ENDBRANCH   1   6
BRANCH   1   9
ATOM      9  S   UNL     1      -1.439   2.682   0.219  0.00  0.00    +0.075 S 
ATOM     10  O   UNL     1      -1.235   4.067  -0.025  0.00  0.00    -0.150 OA
ATOM     11  O   UNL     1      -2.288   1.882  -0.593  0.00  0.00    -0.150 OA
BRANCH   9  12
ATOM     12  C   UNL     1       0.152   1.925   0.181  0.00  0.00    +0.109 A 
ATOM     13  C   UNL     1       1.283   2.679   0.434  0.00  0.00    +0.031 A 
ATOM     14  C   UNL     1       2.531   2.087   0.398  0.00  0.00    +0.034 A 
ATOM     15  C   UNL     1       2.649   0.740   0.110  0.00  0.00    +0.126 A 
ATOM     16  C   UNL     1       1.519  -0.014  -0.142  0.00  0.00    +0.034 A 
ATOM     17  C   UNL     1       0.270   0.578  -0.107  0.00  0.00    +0.031 A 
BRANCH  15  18
ATOM     18  N   UNL     1       3.986   0.106   0.072  0.00  0.00    +0.056 N 
ATOM     19  O   UNL     1       4.090  -1.081  -0.181  0.00  0.00    -0.126 OA
ATOM     20  O   UNL     1       4.982   0.771   0.294  0.00  0.00    -0.126 OA
ENDBRANCH  15  18
ENDBRANCH   9  12
ENDBRANCH   1   9
BRANCH   1  21
ATOM     21  C   UNL     1      -2.680   1.325   2.202  0.00  0.00    +0.161 C 
BRANCH  21  22
ATOM     22  C   UNL     1      -1.671   0.404   2.890  0.00  0.00    +0.117 C 
BRANCH  22  23
ATOM     23  O   UNL     1      -1.212   1.018   4.096  0.00  0.00    -0.392 OA
ATOM     24  H   UNL     1      -1.900   1.132   4.766  0.00  0.00    +0.210 HD
ENDBRANCH  22  23
BRANCH  22  25
ATOM     25  C   UNL     1      -2.342  -0.931   3.221  0.00  0.00    -0.046 C 
BRANCH  25  32
ATOM     26  C   UNL     1      -2.005  -3.038   4.363  0.00  0.00    -0.078 C 
ATOM     27  C   UNL     1      -0.969  -3.891   5.101  0.00  0.00    -0.016 C 
ATOM     28  C   UNL     1       0.142  -4.291   4.127  0.00  0.00    -0.018 C 
ATOM     29  C   UNL     1       0.771  -3.027   3.534  0.00  0.00    -0.016 C 
ATOM     30  C   UNL     1      -0.315  -2.199   2.842  0.00  0.00    -0.078 C 
ATOM     31  C   UNL     1       1.211  -5.092   4.872  0.00  0.00    +0.007 C 
ATOM     32  N   UNL     1      -1.341  -1.826   3.838  0.00  0.00    +0.381 N 
ATOM     33  H   UNL     1      -0.887  -1.332   4.615  0.00  0.00    -0.082 HD
ENDBRANCH  25  32
ENDBRANCH  22  25
ENDBRANCH  21  22
ENDBRANCH   1  21
TORSDOF 9
