REMARK  Name = ZINC01763093
REMARK  10 active torsions:
REMARK  status: ('A' for Active; 'I' for Inactive)
REMARK    1  A    between atoms: C_1  and  C_2
REMARK    2  A    between atoms: C_5  and  C_8
REMARK    3  A    between atoms: C_11  and  S_20
REMARK    4  A    between atoms: N_12  and  C_13
REMARK    5  A    between atoms: S_20  and  C_21
REMARK    6  A    between atoms: C_21  and  C_22
REMARK    7  A    between atoms: N_24  and  N_25
REMARK    8  A    between atoms: C_26  and  C_27
REMARK    9  A    between atoms: C_28  and  C_29
REMARK   10  A    between atoms: C_34  and  N_35
REMARK                            x       y       z     vdW  Elec       q    Type
REMARK                         _______ _______ _______ _____ _____    ______ ____
ROOT
ATOM      1  C   UNL     1       1.951  -4.402  -0.869  0.00  0.00    +0.169 A 
ATOM      2  N   UNL     1       1.763  -5.218  -1.879  0.00  0.00    -0.128 NA
ATOM      3  N   UNL     1       1.677  -6.429  -1.456  0.00  0.00    -0.122 NA
ATOM      4  C   UNL     1       1.805  -6.461  -0.148  0.00  0.00    +0.197 A 
ATOM      5  N   UNL     1       1.989  -5.173   0.272  0.00  0.00    -0.270 N 
ENDROOT
BRANCH   1  10
ATOM      6  C   UNL     1       2.527   1.317  -1.154  0.00  0.00    +0.044 C 
ATOM      7  C   UNL     1       2.376  -0.181  -1.080  0.00  0.00    -0.050 A 
ATOM      8  C   UNL     1       2.489  -0.943  -2.229  0.00  0.00    +0.004 A 
ATOM      9  C   UNL     1       2.352  -2.314  -2.168  0.00  0.00    +0.012 A 
ATOM     10  C   UNL     1       2.099  -2.933  -0.942  0.00  0.00    +0.020 A 
ATOM     11  C   UNL     1       1.987  -2.158   0.214  0.00  0.00    +0.012 A 
ATOM     12  C   UNL     1       2.131  -0.788   0.139  0.00  0.00    +0.004 A 
ENDBRANCH   1  10
BRANCH   5  13
ATOM     13  C   UNL     1       2.176  -4.729   1.589  0.00  0.00    +0.051 A 
ATOM     14  C   UNL     1       3.377  -4.141   1.961  0.00  0.00    +0.028 A 
ATOM     15  C   UNL     1       3.559  -3.705   3.259  0.00  0.00    +0.022 A 
ATOM     16  C   UNL     1       2.545  -3.855   4.189  0.00  0.00    +0.041 A 
ATOM     17  C   UNL     1       1.347  -4.442   3.821  0.00  0.00    +0.022 A 
ATOM     18  C   UNL     1       1.158  -4.873   2.522  0.00  0.00    +0.028 A 
ATOM     19 CL   UNL     1       2.776  -3.306   5.819  0.00  0.00    -0.084 Cl
ENDBRANCH   5  13
BRANCH   4  20
ATOM     20  S   UNL     1       1.754  -7.897   0.872  0.00  0.00    -0.076 S 
BRANCH  20  21
ATOM     21  C   UNL     1       1.493  -9.258  -0.299  0.00  0.00    +0.174 C 
BRANCH  21  22
ATOM     22  C   UNL     1       1.429 -10.562   0.453  0.00  0.00    +0.242 C 
ATOM     23  O   UNL     1       1.548 -10.573   1.660  0.00  0.00    -0.273 OA
ATOM     24  N   UNL     1       1.240 -11.717  -0.215  0.00  0.00    -0.206 N 
ATOM     25  H   UNL     1       1.145 -11.709  -1.181  0.00  0.00    +0.177 HD
BRANCH  24  26
ATOM     26  N   UNL     1       1.181 -12.930   0.484  0.00  0.00    -0.188 NA
ATOM     27  C   UNL     1       0.998 -14.046  -0.162  0.00  0.00    +0.130 C 
BRANCH  27  28
ATOM     28  C   UNL     1       0.939 -15.273   0.546  0.00  0.00    +0.022 C 
ATOM     29  C   UNL     1       0.749 -16.429  -0.123  0.00  0.00    +0.012 C 
BRANCH  29  30
ATOM     30  C   UNL     1       0.687 -17.703   0.611  0.00  0.00    +0.005 A 
ATOM     31  C   UNL     1       1.142 -17.776   1.932  0.00  0.00    +0.010 A 
ATOM     32  C   UNL     1       1.081 -18.973   2.613  0.00  0.00    +0.001 A 
ATOM     33  C   UNL     1       0.571 -20.100   1.994  0.00  0.00    +0.002 A 
ATOM     34  C   UNL     1       0.119 -20.036   0.688  0.00  0.00    +0.033 A 
ATOM     35  C   UNL     1       0.168 -18.845  -0.005  0.00  0.00    +0.133 A 
BRANCH  35  36
ATOM     36  N   UNL     1      -0.323 -18.777  -1.401  0.00  0.00    +0.057 N 
ATOM     37  O   UNL     1      -0.908 -17.792  -1.789  0.00  0.00    -0.126 OA
ATOM     38  O   UNL     1      -0.139 -19.706  -2.152  0.00  0.00    -0.126 OA
ENDBRANCH  35  36
ENDBRANCH  29  30
ENDBRANCH  27  28
ENDBRANCH  24  26
ENDBRANCH  21  22
ENDBRANCH  20  21
ENDBRANCH   4  20
TORSDOF 9
