REMARK  Name = ZINC52569865
REMARK  10 active torsions:
REMARK  status: ('A' for Active; 'I' for Inactive)
REMARK    1  A    between atoms: C_1  and  O_2
REMARK    2  A    between atoms: O_2  and  C_3
REMARK    3  A    between atoms: C_3  and  C_5
REMARK    4  A    between atoms: C_8  and  N_11
REMARK    5  A    between atoms: N_11  and  C_12
REMARK    6  A    between atoms: C_12  and  C_14
REMARK    7  A    between atoms: C_12  and  C_20
REMARK    8  A    between atoms: N_22  and  C_23
REMARK    9  A    between atoms: C_29  and  C_31
REMARK   10  A    between atoms: C_31  and  C_32
REMARK                            x       y       z     vdW  Elec       q    Type
REMARK                         _______ _______ _______ _____ _____    ______ ____
ROOT
ATOM      1  N   UNL     1      -1.369  -6.275   0.543  0.00  0.00    -0.255 N 
ATOM      2  C   UNL     1      -0.332  -7.136   0.562  0.00  0.00    +0.225 C 
ATOM      3  O   UNL     1       0.757  -6.764   0.944  0.00  0.00    -0.275 OA
ENDROOT
BRANCH   1   7
ATOM      4  C   UNL     1      -0.769  -2.269   1.516  0.00  0.00    +0.059 A 
ATOM      5  C   UNL     1      -1.489  -3.100   2.379  0.00  0.00    +0.017 A 
ATOM      6  C   UNL     1      -1.686  -4.423   2.055  0.00  0.00    +0.024 A 
ATOM      7  C   UNL     1      -1.168  -4.934   0.869  0.00  0.00    +0.037 A 
ATOM      8  C   UNL     1      -0.450  -4.111   0.007  0.00  0.00    +0.024 A 
ATOM      9  C   UNL     1      -0.255  -2.785   0.322  0.00  0.00    +0.017 A 
BRANCH   4  10
ATOM     10  C   UNL     1      -0.556  -0.851   1.860  0.00  0.00    +0.339 C 
ATOM     11  O   UNL     1       0.066  -0.130   1.105  0.00  0.00    -0.245 OA
BRANCH  10  13
ATOM     12  C   UNL     1      -0.808   1.026   3.280  0.00  0.00    +0.280 C 
ATOM     13  O   UNL     1      -1.052  -0.356   3.010  0.00  0.00    -0.464 OA
ENDBRANCH  10  13
ENDBRANCH   4  10
ENDBRANCH   1   7
BRANCH   1  14
ATOM     14  C   UNL     1      -2.708  -6.748   0.181  0.00  0.00    +0.199 C 
BRANCH  14  15
ATOM     15  C   UNL     1      -3.702  -5.630   0.361  0.00  0.00    +0.000 A 
ATOM     16  C   UNL     1      -4.795  -5.792   1.199  0.00  0.00    +0.009 A 
ATOM     17  C   UNL     1      -5.684  -4.736   1.334  0.00  0.00    +0.020 A 
ATOM     18  C   UNL     1      -5.452  -3.566   0.635  0.00  0.00    +0.111 A 
ATOM     19  N   UNL     1      -4.401  -3.448  -0.152  0.00  0.00    -0.263 NA
ATOM     20  C   UNL     1      -3.532  -4.429  -0.300  0.00  0.00    +0.116 A 
ENDBRANCH  14  15
BRANCH  14  21
ATOM     21  C   UNL     1      -2.710  -7.195  -1.258  0.00  0.00    +0.239 C 
ATOM     22  O   UNL     1      -1.844  -6.807  -2.015  0.00  0.00    -0.273 OA
ATOM     23  N   UNL     1      -3.673  -8.024  -1.705  0.00  0.00    -0.311 N 
ATOM     24  H   UNL     1      -4.365  -8.334  -1.100  0.00  0.00    +0.149 HD
BRANCH  23  25
ATOM     25  C   UNL     1      -3.675  -8.458  -3.104  0.00  0.00    +0.073 C 
ATOM     26  C   UNL     1      -4.385  -7.409  -3.963  0.00  0.00    +0.022 C 
ATOM     27  C   UNL     1      -4.387  -7.863  -5.424  0.00  0.00    +0.002 C 
ATOM     28  C   UNL     1      -5.121  -9.200  -5.542  0.00  0.00    +0.000 C 
ATOM     29  C   UNL     1      -4.412 -10.249  -4.684  0.00  0.00    +0.002 C 
ATOM     30  C   UNL     1      -4.409  -9.796  -3.223  0.00  0.00    +0.022 C 
ENDBRANCH  23  25
ENDBRANCH  14  21
ENDBRANCH   1  14
BRANCH   2  31
ATOM     31  C   UNL     1      -0.527  -8.560   0.109  0.00  0.00    +0.129 C 
BRANCH  31  32
ATOM     32  C   UNL     1       0.776  -9.307   0.228  0.00  0.00    -0.033 C 
ATOM     33  C   UNL     1       1.180 -10.078   1.263  0.00  0.00    -0.001 A 
ATOM     34  C   UNL     1       0.551 -10.437   2.540  0.00  0.00    +0.010 A 
ATOM     35  C   UNL     1       1.217 -11.247   3.394  0.00  0.00    +0.001 A 
ATOM     36  C   UNL     1       2.490 -11.751   3.092  0.00  0.00    +0.002 A 
ATOM     37  C   UNL     1       3.132 -11.466   1.939  0.00  0.00    +0.026 A 
ATOM     38  C   UNL     1       2.524 -10.623   0.967  0.00  0.00    +0.043 A 
ATOM     39  N   UNL     1       2.935 -10.206  -0.205  0.00  0.00    -0.380 N 
ATOM     40  C   UNL     1       1.895  -9.352  -0.789  0.00  0.00    +0.145 C 
ATOM     41  H   UNL     1       3.784 -10.427  -0.620  0.00  0.00    +0.160 HD
ENDBRANCH  31  32
ENDBRANCH   2  31
TORSDOF 9
