REMARK  Name = ZINC03094443
REMARK  10 active torsions:
REMARK  status: ('A' for Active; 'I' for Inactive)
REMARK    1  A    between atoms: C_1  and  C_2
REMARK    2  A    between atoms: C_2  and  C_3
REMARK    3  A    between atoms: C_3  and  O_4
REMARK    4  A    between atoms: O_4  and  C_5
REMARK    5  A    between atoms: C_5  and  C_7
REMARK    6  A    between atoms: C_8  and  C_29
REMARK    7  A    between atoms: C_12  and  C_14
REMARK    8  A    between atoms: C_17  and  C_20
REMARK    9  A    between atoms: C_20  and  O_22
REMARK   10  A    between atoms: O_22  and  C_23
REMARK                            x       y       z     vdW  Elec       q    Type
REMARK                         _______ _______ _______ _____ _____    ______ ____
ROOT
ATOM      1  C   UNL     1      -2.451   1.209   0.458  0.00  0.00    +0.065 C 
ATOM      2  C   UNL     1      -2.332  -0.130   0.439  0.00  0.00    +0.016 C 
ATOM      3  N   UNL     1      -1.168  -0.715   0.025  0.00  0.00    -0.321 N 
ATOM      4  C   UNL     1       0.002  -0.004   0.002  0.00  0.00    +0.015 C 
ATOM      5  C   UNL     1      -0.016   1.346   0.009  0.00  0.00    +0.024 C 
ATOM      6  C   UNL     1      -1.323   2.098   0.020  0.00  0.00    +0.092 C 
ATOM      7  C   UNL     1       1.178   2.088   0.002  0.00  0.00    +0.162 C 
ATOM      8  O   UNL     1       1.126   3.302  -0.003  0.00  0.00    -0.292 OA
ATOM      9  C   UNL     1       2.519   1.406  -0.000  0.00  0.00    +0.080 C 
ATOM     10  C   UNL     1       2.388   0.045   0.691  0.00  0.00    +0.014 C 
ATOM     11  C   UNL     1       1.305  -0.763  -0.029  0.00  0.00    +0.051 C 
ATOM     12  C   UNL     1      -3.488  -0.991   0.877  0.00  0.00    +0.061 C 
ATOM     13  H   UNL     1      -1.165  -1.768  -0.294  0.00  0.00    +0.152 HD
ENDROOT
BRANCH   6  14
ATOM     14  C   UNL     1      -1.605   2.618  -1.366  0.00  0.00    -0.035 A 
ATOM     15  C   UNL     1      -1.725   1.733  -2.423  0.00  0.00    +0.005 A 
ATOM     16  C   UNL     1      -1.989   2.202  -3.693  0.00  0.00    +0.015 A 
ATOM     17  C   UNL     1      -2.124   3.574  -3.913  0.00  0.00    +0.059 A 
ATOM     18  C   UNL     1      -1.997   4.462  -2.844  0.00  0.00    +0.015 A 
ATOM     19  C   UNL     1      -1.738   3.979  -1.577  0.00  0.00    +0.005 A 
BRANCH  17  20
ATOM     20  C   UNL     1      -2.400   4.084  -5.272  0.00  0.00    +0.339 C 
ATOM     21  O   UNL     1      -2.516   5.278  -5.461  0.00  0.00    -0.245 OA
BRANCH  20  22
ATOM     22  O   UNL     1      -2.522   3.224  -6.302  0.00  0.00    -0.464 OA
ATOM     23  C   UNL     1      -2.793   3.796  -7.609  0.00  0.00    +0.280 C 
ENDBRANCH  20  22
ENDBRANCH  17  20
ENDBRANCH   6  14
BRANCH   1  24
ATOM     24  C   UNL     1      -3.664   1.791   0.897  0.00  0.00    +0.338 C 
ATOM     25  O   UNL     1      -4.586   1.081   1.252  0.00  0.00    -0.245 OA
BRANCH  24  26
ATOM     26  O   UNL     1      -3.798   3.134   0.921  0.00  0.00    -0.461 OA
BRANCH  26  27
ATOM     27  C   UNL     1      -5.049   3.653   1.375  0.00  0.00    +0.232 C 
BRANCH  27  29
ATOM     28  C   UNL     1      -6.353   5.737   1.820  0.00  0.00    +0.007 C 
ATOM     29  C   UNL     1      -5.013   5.182   1.333  0.00  0.00    +0.038 C 
ENDBRANCH  27  29
ENDBRANCH  26  27
ENDBRANCH  24  26
ENDBRANCH   1  24
TORSDOF 7
