REMARK  Name = ZINC33129329
REMARK  7 active torsions:
REMARK  status: ('A' for Active; 'I' for Inactive)
REMARK    1  A    between atoms: C_7  and  C_24
REMARK    2  A    between atoms: N_9  and  C_10
REMARK    3  A    between atoms: C_10  and  C_11
REMARK    4  A    between atoms: N_13  and  C_14
REMARK    5  A    between atoms: C_19  and  C_20
REMARK    6  A    between atoms: C_27  and  C_29
REMARK    7  A    between atoms: C_29  and  N_30
REMARK                            x       y       z     vdW  Elec       q    Type
REMARK                         _______ _______ _______ _____ _____    ______ ____
ROOT
ATOM      1  C   UNL     1      -0.640   5.609   0.020  0.00  0.00    +0.001 A 
ATOM      2  C   UNL     1       0.747   5.577   0.003  0.00  0.00    +0.002 A 
ATOM      3  C   UNL     1       1.422   4.376  -0.003  0.00  0.00    +0.026 A 
ATOM      4  C   UNL     1       0.708   3.182   0.008  0.00  0.00    +0.050 A 
ATOM      5  C   UNL     1      -0.697   3.221   0.025  0.00  0.00    +0.012 A 
ATOM      6  C   UNL     1      -1.360   4.447   0.030  0.00  0.00    +0.011 A 
ATOM      7  C   UNL     1      -1.142   1.817   0.026  0.00  0.00    +0.064 A 
ATOM      8  C   UNL     1      -0.018   1.053   0.019  0.00  0.00    +0.100 A 
ATOM      9  N   UNL     1       1.083   1.855   0.005  0.00  0.00    -0.337 N 
ENDROOT
BRANCH   7  10
ATOM     10  C   UNL     1      -2.535   1.334   0.037  0.00  0.00    +0.250 A 
ATOM     11  N   UNL     1      -3.619   2.078   0.049  0.00  0.00    -0.107 NA
ATOM     12  N   UNL     1      -4.656   1.317   0.053  0.00  0.00    -0.114 NA
ATOM     13  C   UNL     1      -4.282   0.069   0.052  0.00  0.00    +0.202 A 
ATOM     14  O   UNL     1      -2.936   0.046   0.042  0.00  0.00    -0.422 OA
BRANCH  13  15
ATOM     15  C   UNL     1      -5.192  -1.132   0.061  0.00  0.00    +0.021 C 
BRANCH  15  16
ATOM     16  N   UNL     1      -5.498  -1.525  -1.320  0.00  0.00    +0.386 N 
ATOM     17  C   UNL     1      -6.286  -0.489  -2.000  0.00  0.00    -0.078 C 
ATOM     18  C   UNL     1      -6.461  -0.864  -3.474  0.00  0.00    -0.019 C 
ATOM     19  C   UNL     1      -7.171  -2.217  -3.570  0.00  0.00    -0.004 C 
ATOM     20  C   UNL     1      -6.355  -3.268  -2.813  0.00  0.00    -0.019 C 
ATOM     21  C   UNL     1      -6.183  -2.824  -1.359  0.00  0.00    -0.078 C 
ATOM     22  H   UNL     1      -4.546  -1.632  -1.862  0.00  0.00    -0.081 HD
ENDBRANCH  15  16
ENDBRANCH  13  15
ENDBRANCH   7  10
BRANCH   9  23
ATOM     23  C   UNL     1       2.468   1.377  -0.011  0.00  0.00    +0.217 C 
BRANCH  23  24
ATOM     24  C   UNL     1       3.000   1.332   1.398  0.00  0.00    +0.237 C 
ATOM     25  O   UNL     1       2.292   1.666   2.325  0.00  0.00    -0.274 OA
ATOM     26  N   UNL     1       4.262   0.920   1.629  0.00  0.00    -0.284 N 
ATOM     27  H   UNL     1       4.880   0.547   0.799  0.00  0.00    +0.155 HD
BRANCH  26  28
ATOM     28  C   UNL     1       4.787   0.967   2.925  0.00  0.00    +0.045 A 
ATOM     29  C   UNL     1       3.966   0.723   4.018  0.00  0.00    +0.024 A 
ATOM     30  C   UNL     1       4.489   0.765   5.296  0.00  0.00    +0.002 A 
ATOM     31  C   UNL     1       5.826   1.061   5.488  0.00  0.00    +0.001 A 
ATOM     32  C   UNL     1       6.645   1.309   4.402  0.00  0.00    +0.014 A 
ATOM     33  C   UNL     1       6.130   1.263   3.122  0.00  0.00    +0.076 A 
BRANCH  33  34
ATOM     34  C   UNL     1       7.023   1.535   1.939  0.00  0.00    +0.419 C 
ATOM     35  F   UNL     1       8.320   1.807   2.387  0.00  0.00    -0.166 F 
ATOM     36  F   UNL     1       7.044   0.414   1.103  0.00  0.00    -0.166 F 
ATOM     37  F   UNL     1       6.535   2.637   1.229  0.00  0.00    -0.166 F 
ENDBRANCH  33  34
ENDBRANCH  26  28
ENDBRANCH  23  24
ENDBRANCH   9  23
TORSDOF 7
