REMARK  Name = ZINC00921792
REMARK  7 active torsions:
REMARK  status: ('A' for Active; 'I' for Inactive)
REMARK    1  A    between atoms: C_1  and  C_2
REMARK    2  A    between atoms: C_4  and  C_28
REMARK    3  A    between atoms: C_6  and  S_8
REMARK    4  A    between atoms: S_8  and  C_9
REMARK    5  A    between atoms: C_15  and  N_17
REMARK    6  A    between atoms: N_17  and  S_18
REMARK    7  A    between atoms: S_18  and  C_21
REMARK                            x       y       z     vdW  Elec       q    Type
REMARK                         _______ _______ _______ _____ _____    ______ ____
ROOT
ATOM      1  C   UNL     1       0.041  -1.542   3.919  0.00  0.00    +0.073 C 
ATOM      2  C   UNL     1      -1.277  -0.771   3.830  0.00  0.00    +0.016 C 
ATOM      3  C   UNL     1      -1.288   0.344   4.878  0.00  0.00    +0.001 C 
ATOM      4  C   UNL     1      -1.147  -0.266   6.274  0.00  0.00    +0.002 C 
ATOM      5  C   UNL     1       0.171  -1.037   6.363  0.00  0.00    +0.021 C 
ATOM      6  C   UNL     1       0.182  -2.152   5.315  0.00  0.00    +0.090 C 
ENDROOT
BRANCH   6   7
ATOM      7  N   UNL     1       1.444  -2.891   5.401  0.00  0.00    -0.186 NA
ATOM      8  H   UNL     1       2.228  -2.568   4.929  0.00  0.00    +0.148 HD
BRANCH   7   9
ATOM      9  S   UNL     1       1.533  -4.277   6.302  0.00  0.00    +0.059 S 
ATOM     10  O   UNL     1       2.860  -4.766   6.165  0.00  0.00    -0.153 OA
ATOM     11  O   UNL     1       0.958  -3.977   7.567  0.00  0.00    -0.153 OA
BRANCH   9  12
ATOM     12  C   UNL     1       0.478  -5.464   5.539  0.00  0.00    +0.105 A 
ATOM     13  C   UNL     1      -0.852  -5.546   5.909  0.00  0.00    +0.030 A 
ATOM     14  C   UNL     1      -1.680  -6.476   5.311  0.00  0.00    +0.022 A 
ATOM     15  C   UNL     1      -1.178  -7.326   4.341  0.00  0.00    +0.041 A 
ATOM     16  C   UNL     1       0.152  -7.243   3.971  0.00  0.00    +0.022 A 
ATOM     17  C   UNL     1       0.978  -6.308   4.566  0.00  0.00    +0.030 A 
ATOM     18 CL   UNL     1      -2.218  -8.495   3.589  0.00  0.00    -0.084 Cl
ENDBRANCH   9  12
ENDBRANCH   7   9
ENDBRANCH   6   7
BRANCH   1  19
ATOM     19  S   UNL     1       0.053  -2.864   2.678  0.00  0.00    -0.081 S 
BRANCH  19  25
ATOM     20  C   UNL     1      -0.018   1.503   0.010  0.00  0.00    +0.066 C 
ATOM     21  C   UNL     1       0.002  -0.004   0.002  0.00  0.00    +0.043 A 
ATOM     22  C   UNL     1       0.006  -0.699  -1.198  0.00  0.00    +0.046 A 
ATOM     23  C   UNL     1       0.025  -2.084  -1.161  0.00  0.00    +0.043 A 
ATOM     24  N   UNL     1       0.039  -2.699   0.010  0.00  0.00    -0.227 NA
ATOM     25  C   UNL     1       0.035  -2.005   1.140  0.00  0.00    +0.189 A 
ATOM     26  N   UNL     1       0.022  -0.679   1.139  0.00  0.00    -0.227 NA
ATOM     27  C   UNL     1       0.029  -2.881  -2.440  0.00  0.00    +0.066 C 
ENDBRANCH  19  25
ENDBRANCH   1  19
TORSDOF 5
