REMARK  Name = ZINC08918309
REMARK  13 active torsions:
REMARK  status: ('A' for Active; 'I' for Inactive)
REMARK    1  A    between atoms: C_1  and  C_2
REMARK    2  A    between atoms: C_2  and  C_3
REMARK    3  A    between atoms: C_3  and  C_4
REMARK    4  A    between atoms: C_4  and  O_5
REMARK    5  A    between atoms: O_5  and  C_6
REMARK    6  A    between atoms: C_6  and  C_7
REMARK    7  A    between atoms: C_7  and  C_8
REMARK    8  A    between atoms: C_8  and  N_9
REMARK    9  A    between atoms: C_10  and  C_12
REMARK   10  A    between atoms: C_17  and  N_18
REMARK   11  A    between atoms: C_21  and  C_39
REMARK   12  A    between atoms: C_26  and  O_32
REMARK   13  A    between atoms: O_32  and  C_33
REMARK                            x       y       z     vdW  Elec       q    Type
REMARK                         _______ _______ _______ _____ _____    ______ ____
ROOT
ATOM      1  N   UNL     1       2.350   3.920   0.001  0.00  0.00    -0.191 N 
ATOM      2  C   UNL     1       2.991   4.316  -1.121  0.00  0.00    +0.257 C 
ATOM      3  O   UNL     1       2.685   4.071  -2.268  0.00  0.00    -0.272 OA
ATOM      4  C   UNL     1       4.169   5.133  -0.643  0.00  0.00    +0.153 C 
ATOM      5  C   UNL     1       5.473   4.580  -1.166  0.00  0.00    +0.053 A 
ATOM      6  C   UNL     1       6.495   4.218  -0.358  0.00  0.00    -0.015 A 
ATOM      7  C   UNL     1       7.567   3.762  -1.226  0.00  0.00    +0.007 A 
ATOM      8  C   UNL     1       8.855   3.285  -0.961  0.00  0.00    +0.056 A 
ATOM      9  C   UNL     1       9.626   2.932  -2.059  0.00  0.00    +0.121 A 
ATOM     10  C   UNL     1       9.147   3.045  -3.358  0.00  0.00    +0.047 A 
ATOM     11  C   UNL     1       7.876   3.516  -3.637  0.00  0.00    +0.030 A 
ATOM     12  C   UNL     1       7.081   3.879  -2.552  0.00  0.00    +0.047 A 
ATOM     13  N   UNL     1       5.808   4.371  -2.476  0.00  0.00    -0.356 N 
ATOM     14  H   UNL     1       5.231   4.546  -3.235  0.00  0.00    +0.166 HD
ATOM     15  C   UNL     1       6.509   4.278   1.148  0.00  0.00    +0.056 C 
ATOM     16  C   UNL     1       5.345   5.141   1.657  0.00  0.00    +0.115 C 
ATOM     17  N   UNL     1       4.181   4.862   0.815  0.00  0.00    -0.265 N 
ATOM     18  C   UNL     1       3.005   4.307   1.107  0.00  0.00    +0.317 C 
ATOM     19  O   UNL     1       2.578   4.168   2.237  0.00  0.00    -0.252 OA
ATOM     20  C   UNL     1       4.016   6.624  -0.952  0.00  0.00    +0.048 C 
ENDROOT
BRANCH   1  26
ATOM     21  C   UNL     1       1.187   1.791   0.000  0.00  0.00    +0.059 A 
ATOM     22  C   UNL     1      -0.013   1.076   0.008  0.00  0.00    +0.015 A 
ATOM     23  C   UNL     1      -1.215   1.750   0.017  0.00  0.00    +0.001 A 
ATOM     24  C   UNL     1      -1.240   3.135   0.030  0.00  0.00    +0.002 A 
ATOM     25  C   UNL     1      -0.062   3.855   0.022  0.00  0.00    +0.025 A 
ATOM     26  C   UNL     1       1.157   3.193   0.008  0.00  0.00    +0.058 A 
BRANCH  21  28
ATOM     27  N   UNL     1       2.501  -0.271  -0.023  0.00  0.00    -0.311 N 
ATOM     28  C   UNL     1       2.478   1.076  -0.016  0.00  0.00    +0.246 C 
ATOM     29  O   UNL     1       3.520   1.703  -0.022  0.00  0.00    -0.270 OA
ATOM     30  H   UNL     1       1.670  -0.771  -0.018  0.00  0.00    +0.149 HD
BRANCH  27  31
ATOM     31  C   UNL     1       3.783  -0.981  -0.039  0.00  0.00    +0.107 C 
BRANCH  31  32
ATOM     32  C   UNL     1       3.530  -2.490  -0.045  0.00  0.00    +0.047 C 
BRANCH  32  33
ATOM     33  C   UNL     1       4.868  -3.231  -0.062  0.00  0.00    +0.161 C 
BRANCH  33  34
ATOM     34  O   UNL     1       4.632  -4.641  -0.067  0.00  0.00    -0.380 OA
BRANCH  34  35
ATOM     35  C   UNL     1       5.823  -5.430  -0.083  0.00  0.00    +0.160 C 
BRANCH  35  36
ATOM     36  C   UNL     1       5.452  -6.914  -0.087  0.00  0.00    +0.028 C 
BRANCH  36  38
ATOM     37  C   UNL     1       6.356  -9.243  -0.108  0.00  0.00    +0.004 C 
ATOM     38  C   UNL     1       6.727  -7.759  -0.104  0.00  0.00    -0.001 C 
ENDBRANCH  36  38
ENDBRANCH  35  36
ENDBRANCH  34  35
ENDBRANCH  33  34
ENDBRANCH  32  33
ENDBRANCH  31  32
ENDBRANCH  27  31
ENDBRANCH  21  28
ENDBRANCH   1  26
BRANCH   9  39
ATOM     39  O   UNL     1      10.886   2.462  -1.857  0.00  0.00    -0.495 OA
ATOM     40  C   UNL     1      11.641   2.111  -3.019  0.00  0.00    +0.277 C 
ENDBRANCH   9  39
TORSDOF 10
