REMARK  Name = ZINC01568757
REMARK  7 active torsions:
REMARK  status: ('A' for Active; 'I' for Inactive)
REMARK    1  A    between atoms: C_4  and  S_7
REMARK    2  A    between atoms: S_7  and  O_10
REMARK    3  A    between atoms: O_10  and  C_11
REMARK    4  A    between atoms: C_15  and  O_18
REMARK    5  A    between atoms: C_16  and  N_17
REMARK    6  A    between atoms: O_18  and  S_19
REMARK    7  A    between atoms: S_19  and  C_22
REMARK                            x       y       z     vdW  Elec       q    Type
REMARK                         _______ _______ _______ _____ _____    ______ ____
ROOT
ATOM      1  C   UNL     1       4.766   0.077  -2.123  0.00  0.00    +0.181 A 
ATOM      2  C   UNL     1       3.878   0.918  -2.775  0.00  0.00    +0.051 A 
ATOM      3  C   UNL     1       4.338   2.060  -3.404  0.00  0.00    +0.007 A 
ATOM      4  C   UNL     1       5.686   2.364  -3.394  0.00  0.00    +0.051 A 
ATOM      5  C   UNL     1       6.583   1.527  -2.749  0.00  0.00    +0.181 A 
ATOM      6  C   UNL     1       6.124   0.379  -2.110  0.00  0.00    +0.115 A 
ENDROOT
BRANCH   6   7
ATOM      7  N   UNL     1       7.028  -0.471  -1.455  0.00  0.00    -0.352 N 
ATOM      8  H   UNL     1       6.706  -1.270  -1.010  0.00  0.00    +0.143 HD
ATOM      9  H   UNL     1       7.974  -0.259  -1.447  0.00  0.00    +0.143 HD
ENDBRANCH   6   7
BRANCH   1  10
ATOM     10  O   UNL     1       4.312  -1.044  -1.501  0.00  0.00    -0.340 OA
BRANCH  10  11
ATOM     11  S   UNL     1       3.934  -0.832  -0.042  0.00  0.00    +0.151 S 
ATOM     12  O   UNL     1       4.902   0.054   0.504  0.00  0.00    -0.131 OA
ATOM     13  O   UNL     1       3.686  -2.120   0.505  0.00  0.00    -0.131 OA
BRANCH  11  17
ATOM     14  C   UNL     1      -0.017   1.378   0.010  0.00  0.00    +0.000 A 
ATOM     15  C   UNL     1       1.171   2.086   0.002  0.00  0.00    +0.002 A 
ATOM     16  C   UNL     1       2.377   1.411  -0.014  0.00  0.00    +0.030 A 
ATOM     17  C   UNL     1       2.396   0.029  -0.022  0.00  0.00    +0.128 A 
ATOM     18  C   UNL     1       1.208  -0.679  -0.014  0.00  0.00    +0.030 A 
ATOM     19  C   UNL     1       0.002  -0.004   0.002  0.00  0.00    +0.002 A 
ENDBRANCH  11  17
ENDBRANCH  10  11
ENDBRANCH   1  10
BRANCH   5  20
ATOM     20  O   UNL     1       7.910   1.828  -2.739  0.00  0.00    -0.340 OA
BRANCH  20  21
ATOM     21  S   UNL     1       8.685   1.242  -3.910  0.00  0.00    +0.151 S 
ATOM     22  O   UNL     1      10.062   1.468  -3.640  0.00  0.00    -0.131 OA
ATOM     23  O   UNL     1       8.158  -0.058  -4.138  0.00  0.00    -0.131 OA
BRANCH  21  24
ATOM     24  C   UNL     1       8.287   2.203  -5.332  0.00  0.00    +0.128 A 
ATOM     25  C   UNL     1       7.219   1.843  -6.133  0.00  0.00    +0.030 A 
ATOM     26  C   UNL     1       6.903   2.600  -7.245  0.00  0.00    +0.002 A 
ATOM     27  C   UNL     1       7.662   3.711  -7.564  0.00  0.00    +0.000 A 
ATOM     28  C   UNL     1       8.734   4.067  -6.766  0.00  0.00    +0.002 A 
ATOM     29  C   UNL     1       9.046   3.313  -5.651  0.00  0.00    +0.030 A 
ENDBRANCH  21  24
ENDBRANCH  20  21
ENDBRANCH   5  20
TORSDOF 7
