REMARK  Name = ZINC39942485
REMARK  9 active torsions:
REMARK  status: ('A' for Active; 'I' for Inactive)
REMARK    1  A    between atoms: C_1  and  C_2
REMARK    2  A    between atoms: C_4  and  C_8
REMARK    3  A    between atoms: C_8  and  C_10
REMARK    4  A    between atoms: C_8  and  C_12
REMARK    5  A    between atoms: C_12  and  C_14
REMARK    6  A    between atoms: C_14  and  S_15
REMARK    7  A    between atoms: S_15  and  C_16
REMARK    8  A    between atoms: C_19  and  C_24
REMARK    9  A    between atoms: N_20  and  C_21
REMARK                            x       y       z     vdW  Elec       q    Type
REMARK                         _______ _______ _______ _____ _____    ______ ____
ROOT
ATOM      1  C   UNL     1       3.284  -7.623  -2.707  0.00  0.00    +0.193 A 
ATOM      2  N   UNL     1       4.415  -6.974  -2.854  0.00  0.00    -0.122 NA
ATOM      3  N   UNL     1       5.363  -7.796  -3.134  0.00  0.00    -0.128 NA
ATOM      4  C   UNL     1       4.894  -9.022  -3.183  0.00  0.00    +0.167 A 
ATOM      5  N   UNL     1       3.549  -8.951  -2.905  0.00  0.00    -0.299 N 
ENDROOT
BRANCH   4   6
ATOM      6  C   UNL     1       5.667 -10.246  -3.475  0.00  0.00    +0.044 A 
ATOM      7  C   UNL     1       7.074 -10.317  -3.902  0.00  0.00    +0.010 A 
ATOM      8  C   UNL     1       8.058  -9.363  -4.152  0.00  0.00    +0.011 A 
ATOM      9  C   UNL     1       9.314  -9.766  -4.549  0.00  0.00    +0.001 A 
ATOM     10  C   UNL     1       9.602 -11.115  -4.701  0.00  0.00    +0.002 A 
ATOM     11  C   UNL     1       8.639 -12.070  -4.458  0.00  0.00    +0.026 A 
ATOM     12  C   UNL     1       7.365 -11.684  -4.056  0.00  0.00    +0.047 A 
ATOM     13  N   UNL     1       6.220 -12.386  -3.745  0.00  0.00    -0.360 N 
ATOM     14  C   UNL     1       5.219 -11.526  -3.397  0.00  0.00    +0.095 A 
ATOM     15  H   UNL     1       6.138 -13.352  -3.767  0.00  0.00    +0.165 HD
ENDBRANCH   4   6
BRANCH   5  16
ATOM     16  C   UNL     1       2.598 -10.063  -2.838  0.00  0.00    +0.091 C 
ATOM     17  C   UNL     1       1.107  -9.722  -2.879  0.00  0.00    +0.027 C 
ATOM     18  C   UNL     1       1.749 -10.191  -1.572  0.00  0.00    +0.027 C 
ENDBRANCH   5  16
BRANCH   1  19
ATOM     19  S   UNL     1       1.717  -6.917  -2.319  0.00  0.00    -0.078 S 
BRANCH  19  20
ATOM     20  C   UNL     1       2.056  -5.139  -2.191  0.00  0.00    +0.153 C 
BRANCH  20  21
ATOM     21  C   UNL     1       0.782  -4.407  -1.858  0.00  0.00    +0.163 C 
ATOM     22  O   UNL     1      -0.249  -5.021  -1.721  0.00  0.00    -0.295 OA
BRANCH  21  23
ATOM     23  C   UNL     1       0.794  -2.909  -1.696  0.00  0.00    +0.192 C 
BRANCH  23  27
ATOM     24  C   UNL     1      -0.525   1.039   0.628  0.00  0.00    +0.061 C 
ATOM     25  C   UNL     1      -0.420  -0.461   0.524  0.00  0.00    +0.022 C 
ATOM     26  N   UNL     1      -0.390  -1.025  -0.598  0.00  0.00    -0.276 NA
ATOM     27  C   UNL     1      -0.288  -2.495  -0.696  0.00  0.00    +0.186 C 
ATOM     28  S   UNL     1       0.202  -2.921   1.033  0.00  0.00    -0.127 S 
ATOM     29  C   UNL     1      -0.343  -1.322   1.777  0.00  0.00    +0.121 C 
ENDBRANCH  23  27
BRANCH  23  30
ATOM     30  C   UNL     1       0.529  -2.273  -2.997  0.00  0.00    +0.077 C 
ATOM     31  N   UNL     1       0.325  -1.782  -4.000  0.00  0.00    -0.196 NA
ENDBRANCH  23  30
ENDBRANCH  21  23
ENDBRANCH  20  21
ENDBRANCH  19  20
ENDBRANCH   1  19
TORSDOF 8
