REMARK  Name = ZINC63205687
REMARK  7 active torsions:
REMARK  status: ('A' for Active; 'I' for Inactive)
REMARK    1  A    between atoms: C_4  and  C_7
REMARK    2  A    between atoms: C_7  and  C_9
REMARK    3  A    between atoms: C_7  and  C_27
REMARK    4  A    between atoms: C_9  and  N_10
REMARK    5  A    between atoms: N_10  and  C_11
REMARK    6  A    between atoms: C_11  and  C_13
REMARK    7  A    between atoms: C_11  and  C_19
REMARK                            x       y       z     vdW  Elec       q    Type
REMARK                         _______ _______ _______ _____ _____    ______ ____
ROOT
ATOM      1  C   UNL     1       3.534  -2.372   1.410  0.00  0.00    +0.094 C 
ENDROOT
BRANCH   1   2
ATOM      2  N   UNL     1       3.580  -1.186   2.275  0.00  0.00    -0.301 NA
ATOM      3  H   UNL     1       4.205  -0.488   1.900  0.00  0.00    +0.123 HD
BRANCH   2   4
ATOM      4  C   UNL     1       3.961  -1.550   3.647  0.00  0.00    +0.171 C 
BRANCH   4   5
ATOM      5  C   UNL     1       3.428  -0.517   4.607  0.00  0.00    +0.237 C 
ATOM      6  O   UNL     1       3.275   0.629   4.241  0.00  0.00    -0.274 OA
ATOM      7  N   UNL     1       3.121  -0.867   5.871  0.00  0.00    -0.296 N 
ATOM      8  C   UNL     1       3.398  -2.224   6.370  0.00  0.00    +0.136 C 
ATOM      9  C   UNL     1       4.157  -2.107   7.696  0.00  0.00    +0.179 C 
ATOM     10  O   UNL     1       3.436  -1.241   8.576  0.00  0.00    -0.377 OA
ATOM     11  C   UNL     1       3.304   0.100   8.100  0.00  0.00    +0.179 C 
ATOM     12  C   UNL     1       2.506   0.098   6.797  0.00  0.00    +0.136 C 
ENDBRANCH   4   5
BRANCH   4  13
ATOM     13  C   UNL     1       5.463  -1.607   3.753  0.00  0.00    -0.022 A 
ATOM     14  C   UNL     1       6.231  -0.577   3.243  0.00  0.00    +0.005 A 
ATOM     15  C   UNL     1       7.609  -0.630   3.340  0.00  0.00    +0.000 A 
ATOM     16  C   UNL     1       8.219  -1.711   3.949  0.00  0.00    +0.000 A 
ATOM     17  C   UNL     1       7.450  -2.740   4.460  0.00  0.00    +0.000 A 
ATOM     18  C   UNL     1       6.072  -2.686   4.366  0.00  0.00    +0.005 A 
ENDBRANCH   4  13
ENDBRANCH   2   4
ENDBRANCH   1   2
BRANCH   1  19
ATOM     19  C   UNL     1       3.135  -1.954  -0.007  0.00  0.00    +0.061 C 
BRANCH  19  20
ATOM     20  C   UNL     1       3.206  -3.149  -0.922  0.00  0.00    -0.033 C 
ATOM     21  C   UNL     1       3.984  -3.288  -2.020  0.00  0.00    -0.000 A 
ATOM     22  C   UNL     1       4.958  -2.401  -2.667  0.00  0.00    +0.010 A 
ATOM     23  C   UNL     1       5.594  -2.827  -3.781  0.00  0.00    +0.001 A 
ATOM     24  C   UNL     1       5.347  -4.091  -4.333  0.00  0.00    +0.002 A 
ATOM     25  C   UNL     1       4.466  -4.962  -3.796  0.00  0.00    +0.026 A 
ATOM     26  C   UNL     1       3.741  -4.618  -2.622  0.00  0.00    +0.043 A 
ATOM     27  N   UNL     1       2.847  -5.276  -1.924  0.00  0.00    -0.380 N 
ATOM     28  C   UNL     1       2.427  -4.439  -0.795  0.00  0.00    +0.145 C 
ATOM     29  H   UNL     1       2.522  -6.169  -2.119  0.00  0.00    +0.160 HD
ENDBRANCH  19  20
BRANCH  19  33
ATOM     30  C   UNL     1      -0.853  -0.424   0.027  0.00  0.00    +0.000 A 
ATOM     31  C   UNL     1       0.192   0.380  -0.389  0.00  0.00    +0.000 A 
ATOM     32  C   UNL     1       1.482  -0.116  -0.400  0.00  0.00    +0.004 A 
ATOM     33  C   UNL     1       1.728  -1.414   0.006  0.00  0.00    -0.039 A 
ATOM     34  C   UNL     1       0.683  -2.217   0.423  0.00  0.00    +0.004 A 
ATOM     35  C   UNL     1      -0.608  -1.722   0.433  0.00  0.00    +0.000 A 
ENDBRANCH  19  33
ENDBRANCH   1  19
TORSDOF 7
