REMARK  Name = ZINC20242650
REMARK  8 active torsions:
REMARK  status: ('A' for Active; 'I' for Inactive)
REMARK    1  A    between atoms: C_1  and  C_2
REMARK    2  A    between atoms: C_2  and  C_3
REMARK    3  A    between atoms: C_3  and  N_4
REMARK    4  A    between atoms: C_5  and  C_7
REMARK    5  A    between atoms: N_13  and  C_24
REMARK    6  A    between atoms: C_24  and  C_25
REMARK    7  A    between atoms: C_27  and  C_32
REMARK    8  A    between atoms: C_30  and  C_31
REMARK                            x       y       z     vdW  Elec       q    Type
REMARK                         _______ _______ _______ _____ _____    ______ ____
ROOT
ATOM      1  C   UNL     1       1.941   3.970   1.518  0.00  0.00    +0.039 A 
ATOM      2  C   UNL     1       3.093   3.888   0.734  0.00  0.00    +0.014 A 
ATOM      3  C   UNL     1       3.170   2.943  -0.267  0.00  0.00    +0.020 A 
ATOM      4  C   UNL     1       2.115   2.077  -0.499  0.00  0.00    +0.065 A 
ATOM      5  C   UNL     1       0.964   2.148   0.269  0.00  0.00    +0.054 A 
ATOM      6  C   UNL     1       0.881   3.100   1.284  0.00  0.00    +0.037 A 
ATOM      7  N   UNL     1      -0.115   1.306   0.066  0.00  0.00    -0.262 N 
ATOM      8  C   UNL     1      -0.161   0.015  -0.128  0.00  0.00    +0.252 C 
ATOM      9  O   UNL     1      -1.274  -0.458  -0.251  0.00  0.00    -0.270 OA
ATOM     10  C   UNL     1       0.945  -0.942  -0.217  0.00  0.00    +0.053 A 
ATOM     11  C   UNL     1       0.839  -2.175   0.440  0.00  0.00    +0.014 A 
ATOM     12  C   UNL     1       1.869  -3.087   0.371  0.00  0.00    +0.001 A 
ATOM     13  C   UNL     1       3.014  -2.792  -0.347  0.00  0.00    +0.001 A 
ATOM     14  C   UNL     1       3.128  -1.578  -1.001  0.00  0.00    +0.018 A 
ATOM     15  C   UNL     1       2.102  -0.659  -0.940  0.00  0.00    +0.056 A 
ATOM     16  S   UNL     1       2.254   0.880  -1.785  0.00  0.00    +0.088 S 
ATOM     17  O   UNL     1       1.033   1.001  -2.502  0.00  0.00    -0.247 OA
ENDROOT
BRANCH   1  19
ATOM     18  N   UNL     1       2.829   5.890   2.752  0.00  0.00    -0.311 N 
ATOM     19  C   UNL     1       1.848   4.979   2.595  0.00  0.00    +0.244 C 
ATOM     20  O   UNL     1       0.887   4.987   3.339  0.00  0.00    -0.270 OA
ATOM     21  H   UNL     1       3.699   5.883   2.079  0.00  0.00    +0.149 HD
BRANCH  18  22
ATOM     22  C   UNL     1       2.737   6.889   3.820  0.00  0.00    +0.104 C 
BRANCH  22  24
ATOM     23  C   UNL     1       3.874   8.838   4.893  0.00  0.00    +0.005 C 
ATOM     24  C   UNL     1       3.970   7.794   3.779  0.00  0.00    +0.015 C 
ENDBRANCH  22  24
ENDBRANCH  18  22
ENDBRANCH   1  19
BRANCH   7  25
ATOM     25  C   UNL     1      -1.419   1.972   0.062  0.00  0.00    +0.149 C 
BRANCH  25  26
ATOM     26  C   UNL     1      -1.505   2.902  -1.121  0.00  0.00    -0.027 A 
ATOM     27  C   UNL     1      -1.251   4.251  -0.960  0.00  0.00    +0.008 A 
ATOM     28  C   UNL     1      -1.325   5.103  -2.046  0.00  0.00    -0.050 A 
ATOM     29  C   UNL     1      -1.664   4.607  -3.291  0.00  0.00    +0.003 A 
ATOM     30  C   UNL     1      -1.923   3.259  -3.451  0.00  0.00    +0.004 A 
ATOM     31  C   UNL     1      -1.844   2.406  -2.366  0.00  0.00    -0.046 A 
ATOM     32  C   UNL     1      -2.127   0.936  -2.540  0.00  0.00    +0.044 C 
ATOM     33  C   UNL     1      -1.041   6.573  -1.871  0.00  0.00    +0.044 C 
ENDBRANCH  25  26
ENDBRANCH   7  25
TORSDOF 5
