REMARK  Name = ZINC43092890
REMARK  7 active torsions:
REMARK  status: ('A' for Active; 'I' for Inactive)
REMARK    1  A    between atoms: C_1  and  C_2
REMARK    2  A    between atoms: C_2  and  C_4
REMARK    3  A    between atoms: C_2  and  N_23
REMARK    4  A    between atoms: C_4  and  C_6
REMARK    5  A    between atoms: C_4  and  N_13
REMARK    6  A    between atoms: N_16  and  C_19
REMARK    7  A    between atoms: C_19  and  C_20
REMARK                            x       y       z     vdW  Elec       q    Type
REMARK                         _______ _______ _______ _____ _____    ______ ____
ROOT
ATOM      1  C   UNL     1       0.667  -0.612   1.238  0.00  0.00    +0.073 C 
ENDROOT
BRANCH   1   2
ATOM      2  C   UNL     1       0.683  -2.113   1.105  0.00  0.00    -0.018 A 
ATOM      3  C   UNL     1      -0.327  -2.868   1.671  0.00  0.00    +0.006 A 
ATOM      4  C   UNL     1      -0.313  -4.245   1.548  0.00  0.00    +0.000 A 
ATOM      5  C   UNL     1       0.713  -4.867   0.860  0.00  0.00    +0.001 A 
ATOM      6  C   UNL     1       1.723  -4.113   0.295  0.00  0.00    +0.015 A 
ATOM      7  C   UNL     1       1.706  -2.735   0.413  0.00  0.00    +0.022 A 
ATOM      8 BR   UNL     1       3.085  -1.702  -0.366  0.00  0.00    -0.050 Br
ENDBRANCH   1   2
BRANCH   1   9
ATOM      9  N   UNL     1      -0.092  -0.235   2.438  0.00  0.00    -0.300 NA
ATOM     10  C   UNL     1      -0.313   1.217   2.487  0.00  0.00    +0.066 C 
ATOM     11  C   UNL     1      -1.156   1.561   3.717  0.00  0.00    -0.063 C 
ATOM     12  N   UNL     1      -0.459   1.113   4.930  0.00  0.00    +0.382 N 
ATOM     13  C   UNL     1      -0.268  -0.342   4.878  0.00  0.00    -0.063 C 
ATOM     14  C   UNL     1       0.583  -0.702   3.657  0.00  0.00    +0.066 C 
ATOM     15  H   UNL     1       0.440   1.568   4.988  0.00  0.00    -0.082 HD
BRANCH  12  16
ATOM     16  C   UNL     1      -1.260   1.459   6.111  0.00  0.00    -0.075 C 
BRANCH  16  17
ATOM     17  C   UNL     1      -0.479   1.106   7.379  0.00  0.00    -0.028 C 
ATOM     18  C   UNL     1      -1.068   0.031   8.294  0.00  0.00    +0.002 C 
ATOM     19  C   UNL     1      -1.097   1.500   8.722  0.00  0.00    +0.002 C 
ENDBRANCH  16  17
ENDBRANCH  12  16
ENDBRANCH   1   9
BRANCH   1  21
ATOM     20  C   UNL     1       0.797  -0.391  -1.247  0.00  0.00    -0.012 C 
ATOM     21  C   UNL     1       0.007   0.003   0.003  0.00  0.00    -0.056 C 
BRANCH  21  22
ATOM     22  N   UNL     1      -1.371  -0.493  -0.113  0.00  0.00    +0.381 N 
ATOM     23  H   UNL     1      -1.361  -1.498  -0.202  0.00  0.00    -0.090 HD
ATOM     24  H   UNL     1      -1.893  -0.233   0.711  0.00  0.00    -0.090 HD
ATOM     25  H   UNL     1      -1.807  -0.087  -0.928  0.00  0.00    -0.090 HD
ENDBRANCH  21  22
ENDBRANCH   1  21
TORSDOF 6
