REMARK  Name = ZINC14468092
REMARK  5 active torsions:
REMARK  status: ('A' for Active; 'I' for Inactive)
REMARK    1  A    between atoms: C_1  and  C_2
REMARK    2  A    between atoms: C_2  and  N_3
REMARK    3  A    between atoms: C_4  and  C_6
REMARK    4  A    between atoms: C_19  and  C_22
REMARK    5  A    between atoms: C_27  and  O_28
REMARK                            x       y       z     vdW  Elec       q    Type
REMARK                         _______ _______ _______ _____ _____    ______ ____
ROOT
ATOM      1  C   UNL     1      -6.390   1.702  -0.636  0.00  0.00    +0.037 A 
ATOM      2  C   UNL     1      -6.025   0.699   0.267  0.00  0.00    +0.015 A 
ATOM      3  C   UNL     1      -4.712   0.564   0.649  0.00  0.00    +0.024 A 
ATOM      4  C   UNL     1      -3.735   1.418   0.143  0.00  0.00    +0.031 A 
ATOM      5  C   UNL     1      -4.105   2.432  -0.754  0.00  0.00    -0.019 A 
ATOM      6  C   UNL     1      -5.415   2.567  -1.141  0.00  0.00    +0.019 A 
ATOM      7  C   UNL     1      -3.037   3.329  -1.247  0.00  0.00    +0.049 C 
ATOM      8  C   UNL     1      -3.139   4.030  -2.552  0.00  0.00    -0.023 C 
ATOM      9  C   UNL     1      -1.917   4.181  -3.049  0.00  0.00    -0.030 C 
ATOM     10  C   UNL     1      -0.888   3.548  -2.109  0.00  0.00    +0.033 C 
ATOM     11  C   UNL     1      -1.735   2.486  -1.396  0.00  0.00    +0.029 C 
ATOM     12  C   UNL     1      -1.332   2.114   0.020  0.00  0.00    +0.109 C 
ATOM     13  N   UNL     1      -2.407   1.232   0.523  0.00  0.00    -0.336 N 
ATOM     14  H   UNL     1      -2.183   0.508   1.129  0.00  0.00    +0.147 HD
ENDROOT
BRANCH  12  15
ATOM     15  C   UNL     1      -0.017   1.378   0.010  0.00  0.00    +0.017 A 
ATOM     16  C   UNL     1       0.002  -0.004   0.002  0.00  0.00    +0.029 A 
ATOM     17  C   UNL     1       1.209  -0.681  -0.013  0.00  0.00    +0.043 A 
ATOM     18  C   UNL     1       2.399   0.024  -0.020  0.00  0.00    +0.043 A 
ATOM     19  C   UNL     1       2.385   1.406  -0.013  0.00  0.00    +0.084 A 
ATOM     20  C   UNL     1       1.175   2.087   0.002  0.00  0.00    +0.140 A 
ATOM     21 CL   UNL     1       3.879   2.291  -0.022  0.00  0.00    -0.080 Cl
ATOM     22 CL   UNL     1       1.229  -2.417  -0.023  0.00  0.00    -0.083 Cl
BRANCH  20  23
ATOM     23  O   UNL     1       1.158   3.446   0.009  0.00  0.00    -0.505 OA
ATOM     24  H   UNL     1       1.162   3.835   0.894  0.00  0.00    +0.292 HD
ENDBRANCH  20  23
ENDBRANCH  12  15
BRANCH   1  26
ATOM     25  N   UNL     1      -8.735   1.011  -0.564  0.00  0.00    -0.312 N 
ATOM     26  C   UNL     1      -7.798   1.847  -1.054  0.00  0.00    +0.244 C 
ATOM     27  O   UNL     1      -8.112   2.720  -1.839  0.00  0.00    -0.270 OA
ATOM     28  H   UNL     1      -8.484   0.315   0.063  0.00  0.00    +0.149 HD
BRANCH  25  30
ATOM     29  C   UNL     1     -10.983   0.090  -0.282  0.00  0.00    +0.024 C 
ATOM     30  C   UNL     1     -10.133   1.155  -0.979  0.00  0.00    +0.101 C 
ENDBRANCH  25  30
ENDBRANCH   1  26
TORSDOF 4
