REMARK  Name = ZINC12490021
REMARK  11 active torsions:
REMARK  status: ('A' for Active; 'I' for Inactive)
REMARK    1  A    between atoms: C_1  and  O_2
REMARK    2  A    between atoms: O_2  and  C_3
REMARK    3  A    between atoms: C_8  and  N_9
REMARK    4  A    between atoms: N_9  and  C_10
REMARK    5  A    between atoms: C_10  and  C_12
REMARK    6  A    between atoms: C_10  and  C_18
REMARK    7  A    between atoms: N_20  and  C_21
REMARK    8  A    between atoms: C_21  and  C_22
REMARK    9  A    between atoms: C_28  and  C_30
REMARK   10  A    between atoms: C_30  and  N_31
REMARK   11  A    between atoms: C_32  and  C_34
REMARK                            x       y       z     vdW  Elec       q    Type
REMARK                         _______ _______ _______ _____ _____    ______ ____
ROOT
ATOM      1  N   UNL     1       4.966   2.578   1.088  0.00  0.00    -0.251 N 
ATOM      2  C   UNL     1       3.973   3.475   1.245  0.00  0.00    +0.238 C 
ATOM      3  O   UNL     1       3.860   4.397   0.465  0.00  0.00    -0.273 OA
ENDROOT
BRANCH   1   9
ATOM      4  C   UNL     1       5.797   1.686   3.180  0.00  0.00    +0.141 A 
ATOM      5  C   UNL     1       5.918   0.631   4.069  0.00  0.00    +0.047 A 
ATOM      6  C   UNL     1       5.353  -0.595   3.769  0.00  0.00    +0.004 A 
ATOM      7  C   UNL     1       4.661  -0.769   2.585  0.00  0.00    +0.002 A 
ATOM      8  C   UNL     1       4.531   0.280   1.695  0.00  0.00    +0.027 A 
ATOM      9  C   UNL     1       5.096   1.512   1.989  0.00  0.00    +0.079 A 
BRANCH   4  11
ATOM     10  C   UNL     1       7.062   2.996   4.710  0.00  0.00    +0.277 C 
ATOM     11  O   UNL     1       6.358   2.890   3.471  0.00  0.00    -0.493 OA
ENDBRANCH   4  11
ENDBRANCH   1   9
BRANCH   1  12
ATOM     12  C   UNL     1       5.909   2.716  -0.024  0.00  0.00    +0.197 C 
BRANCH  12  13
ATOM     13  C   UNL     1       5.161   2.638  -1.330  0.00  0.00    -0.018 A 
ATOM     14  C   UNL     1       4.331   1.563  -1.587  0.00  0.00    +0.006 A 
ATOM     15  C   UNL     1       3.641   1.493  -2.783  0.00  0.00    +0.000 A 
ATOM     16  C   UNL     1       3.790   2.494  -3.726  0.00  0.00    +0.000 A 
ATOM     17  C   UNL     1       4.624   3.566  -3.471  0.00  0.00    +0.000 A 
ATOM     18  C   UNL     1       5.311   3.637  -2.273  0.00  0.00    +0.006 A 
ENDBRANCH  12  13
BRANCH  12  19
ATOM     19  C   UNL     1       6.927   1.606   0.040  0.00  0.00    +0.239 C 
ATOM     20  O   UNL     1       6.574   0.473   0.291  0.00  0.00    -0.273 OA
ATOM     21  N   UNL     1       8.229   1.872  -0.183  0.00  0.00    -0.311 N 
ATOM     22  H   UNL     1       8.511   2.778  -0.384  0.00  0.00    +0.149 HD
BRANCH  21  23
ATOM     23  C   UNL     1       9.218   0.793  -0.121  0.00  0.00    +0.135 C 
BRANCH  23  24
ATOM     24  C   UNL     1      10.610   1.359  -0.410  0.00  0.00    +0.135 C 
ATOM     25  C   UNL     1      11.658   0.225  -0.436  0.00  0.00    +0.035 C 
ATOM     26  C   UNL     1      12.910   0.856   0.213  0.00  0.00    +0.031 C 
ATOM     27  C   UNL     1      12.470   2.297   0.554  0.00  0.00    +0.160 C 
ATOM     28  O   UNL     1      11.031   2.230   0.663  0.00  0.00    -0.375 OA
ENDBRANCH  23  24
ENDBRANCH  21  23
ENDBRANCH  12  19
ENDBRANCH   1  12
BRANCH   2  29
ATOM     29  C   UNL     1       3.002   3.333   2.389  0.00  0.00    +0.201 C 
BRANCH  29  30
ATOM     30  N   UNL     1       2.026   4.424   2.340  0.00  0.00    -0.302 N 
ATOM     31  C   UNL     1       1.054   4.502   3.271  0.00  0.00    +0.251 C 
ATOM     32  O   UNL     1       0.988   3.666   4.152  0.00  0.00    -0.270 OA
ATOM     33  H   UNL     1       2.079   5.091   1.637  0.00  0.00    +0.150 HD
BRANCH  31  34
ATOM     34  C   UNL     1       0.074   5.590   3.218  0.00  0.00    +0.074 A 
ATOM     35  C   UNL     1      -0.994   5.846   4.064  0.00  0.00    +0.021 A 
ATOM     36  C   UNL     1      -1.763   6.948   3.783  0.00  0.00    +0.008 A 
ATOM     37  C   UNL     1      -1.450   7.720   2.710  0.00  0.00    +0.046 A 
ATOM     38  S   UNL     1      -0.052   6.935   2.052  0.00  0.00    -0.092 S 
ENDBRANCH  31  34
ENDBRANCH  29  30
ENDBRANCH   2  29
TORSDOF 10
