REMARK  Name = ZINC28059916
REMARK  4 active torsions:
REMARK  status: ('A' for Active; 'I' for Inactive)
REMARK    1  A    between atoms: C_1  and  S_2
REMARK    2  A    between atoms: S_2  and  C_3
REMARK    3  A    between atoms: C_6  and  C_9
REMARK    4  A    between atoms: C_26  and  C_28
REMARK                            x       y       z     vdW  Elec       q    Type
REMARK                         _______ _______ _______ _____ _____    ______ ____
ROOT
ATOM      1  C   UNL     1      -1.623  -0.925  -2.559  0.00  0.00    +0.234 C 
ATOM      2  C   UNL     1      -2.312  -0.326  -1.355  0.00  0.00    +0.025 C 
ATOM      3  C   UNL     1      -3.468   0.321  -1.523  0.00  0.00    +0.050 C 
ATOM      4  C   UNL     1      -4.038   0.404  -2.888  0.00  0.00    +0.038 A 
ATOM      5  C   UNL     1      -5.031   1.323  -3.206  0.00  0.00    +0.013 A 
ATOM      6  C   UNL     1      -5.535   1.363  -4.492  0.00  0.00    +0.001 A 
ATOM      7  C   UNL     1      -5.057   0.493  -5.457  0.00  0.00    +0.004 A 
ATOM      8  C   UNL     1      -4.068  -0.423  -5.149  0.00  0.00    +0.046 A 
ATOM      9  C   UNL     1      -3.553  -0.473  -3.867  0.00  0.00    +0.131 A 
ATOM     10  O   UNL     1      -2.582  -1.357  -3.525  0.00  0.00    -0.479 OA
ATOM     11  N   UNL     1      -4.156   0.910  -0.456  0.00  0.00    -0.282 N 
ATOM     12  C   UNL     1      -3.756   0.566   0.825  0.00  0.00    +0.240 A 
ATOM     13  N   UNL     1      -4.323   0.755   1.982  0.00  0.00    -0.092 NA
ATOM     14  N   UNL     1      -3.595   0.258   2.922  0.00  0.00    -0.021 NA
ATOM     15  N   UNL     1      -2.524  -0.274   2.429  0.00  0.00    -0.042 NA
ATOM     16  N   UNL     1      -2.587  -0.088   1.049  0.00  0.00    -0.201 N 
ATOM     17  C   UNL     1      -1.657  -0.471  -0.004  0.00  0.00    +0.175 C 
ATOM     18  H   UNL     1      -4.978   1.615  -0.653  0.00  0.00    +0.155 HD
ENDROOT
BRANCH   1  22
ATOM     19  C   UNL     1       0.931   2.010  -4.328  0.00  0.00    +0.008 A 
ATOM     20  C   UNL     1      -0.447   2.105  -4.478  0.00  0.00    +0.015 A 
ATOM     21  C   UNL     1      -1.269   1.155  -3.905  0.00  0.00    +0.008 A 
ATOM     22  C   UNL     1      -0.722   0.110  -3.183  0.00  0.00    -0.003 A 
ATOM     23  C   UNL     1       0.649   0.015  -3.027  0.00  0.00    +0.008 A 
ATOM     24  C   UNL     1       1.477   0.959  -3.602  0.00  0.00    +0.015 A 
BRANCH  19  26
ATOM     25  C   UNL     1       3.654   2.683  -4.597  0.00  0.00    +0.090 C 
ATOM     26  S   UNL     1       1.984   3.221  -5.057  0.00  0.00    -0.129 S 
ENDBRANCH  19  26
ENDBRANCH   1  22
BRANCH  17  27
ATOM     27  C   UNL     1      -0.440   0.414   0.059  0.00  0.00    -0.001 A 
ATOM     28  C   UNL     1       0.815  -0.132   0.281  0.00  0.00    +0.009 A 
ATOM     29  C   UNL     1       1.907   0.721   0.332  0.00  0.00    +0.020 A 
ATOM     30  C   UNL     1       1.710   2.078   0.160  0.00  0.00    +0.111 A 
ATOM     31  N   UNL     1       0.501   2.563  -0.050  0.00  0.00    -0.263 NA
ATOM     32  C   UNL     1      -0.559   1.781  -0.104  0.00  0.00    +0.116 A 
ENDBRANCH  17  27
TORSDOF 3
