REMARK  Name = ZINC64966132
REMARK  10 active torsions:
REMARK  status: ('A' for Active; 'I' for Inactive)
REMARK    1  A    between atoms: C_1  and  C_2
REMARK    2  A    between atoms: C_2  and  O_3
REMARK    3  A    between atoms: O_3  and  C_4
REMARK    4  A    between atoms: C_4  and  C_6
REMARK    5  A    between atoms: C_6  and  N_7
REMARK    6  A    between atoms: C_9  and  C_32
REMARK    7  A    between atoms: C_11  and  C_25
REMARK    8  A    between atoms: N_14  and  C_17
REMARK    9  A    between atoms: C_20  and  C_24
REMARK   10  A    between atoms: C_21  and  C_23
REMARK                            x       y       z     vdW  Elec       q    Type
REMARK                         _______ _______ _______ _____ _____    ______ ____
ROOT
ATOM      1  N   UNL     1       1.388  -3.837   2.283  0.00  0.00    -0.278 N 
ATOM      2  C   UNL     1       0.519  -4.670   2.964  0.00  0.00    +0.121 A 
ATOM      3  C   UNL     1      -0.549  -4.467   3.839  0.00  0.00    +0.155 A 
ATOM      4  N   UNL     1      -1.186  -5.532   4.326  0.00  0.00    -0.220 NA
ATOM      5  C   UNL     1      -0.817  -6.758   3.991  0.00  0.00    +0.166 A 
ATOM      6  N   UNL     1       0.195  -6.991   3.162  0.00  0.00    -0.207 NA
ATOM      7  C   UNL     1       0.878  -5.990   2.635  0.00  0.00    +0.170 A 
ATOM      8  N   UNL     1       1.951  -5.904   1.766  0.00  0.00    -0.245 N 
ATOM      9  C   UNL     1       2.234  -4.603   1.566  0.00  0.00    +0.336 A 
ATOM     10  O   UNL     1       3.123  -4.182   0.850  0.00  0.00    -0.246 OA
ENDROOT
BRANCH   8  11
ATOM     11  C   UNL     1       2.626  -6.988   1.188  0.00  0.00    +0.053 A 
ATOM     12  C   UNL     1       2.225  -8.287   1.469  0.00  0.00    +0.026 A 
ATOM     13  C   UNL     1       2.892  -9.353   0.897  0.00  0.00    +0.005 A 
ATOM     14  C   UNL     1       3.957  -9.127   0.044  0.00  0.00    -0.047 A 
ATOM     15  C   UNL     1       4.359  -7.834  -0.237  0.00  0.00    -0.046 A 
ATOM     16  C   UNL     1       3.692  -6.764   0.328  0.00  0.00    +0.030 A 
ATOM     17  C   UNL     1       5.521  -7.592  -1.165  0.00  0.00    +0.044 C 
ATOM     18  C   UNL     1       4.682 -10.292  -0.578  0.00  0.00    +0.044 C 
ENDBRANCH   8  11
BRANCH   5  19
ATOM     19  C   UNL     1      -1.557  -7.910   4.561  0.00  0.00    +0.054 A 
ATOM     20  C   UNL     1      -1.187  -9.212   4.230  0.00  0.00    +0.014 A 
ATOM     21  C   UNL     1      -1.878 -10.280   4.763  0.00  0.00    +0.001 A 
ATOM     22  C   UNL     1      -2.939 -10.062   5.624  0.00  0.00    +0.003 A 
ATOM     23  C   UNL     1      -3.313  -8.774   5.957  0.00  0.00    +0.039 A 
ATOM     24  C   UNL     1      -2.624  -7.694   5.434  0.00  0.00    +0.134 A 
ATOM     25  F   UNL     1      -2.986  -6.435   5.764  0.00  0.00    -0.205 F 
ENDBRANCH   5  19
BRANCH   3  26
ATOM     26  C   UNL     1      -0.966  -3.097   4.217  0.00  0.00    +0.262 C 
ATOM     27  O   UNL     1      -1.596  -2.415   3.433  0.00  0.00    -0.269 OA
ATOM     28  N   UNL     1      -0.647  -2.607   5.432  0.00  0.00    -0.324 N 
ATOM     29  H   UNL     1      -0.144  -3.151   6.058  0.00  0.00    +0.145 HD
ATOM     30  H   UNL     1      -0.920  -1.710   5.680  0.00  0.00    +0.145 HD
ENDBRANCH   3  26
BRANCH   1  31
ATOM     31  C   UNL     1       1.385  -2.373   2.327  0.00  0.00    +0.247 C 
BRANCH  31  32
ATOM     32  C   UNL     1       0.523  -1.839   1.212  0.00  0.00    +0.327 C 
ATOM     33  O   UNL     1      -0.031  -2.603   0.457  0.00  0.00    -0.249 OA
BRANCH  32  34
ATOM     34  O   UNL     1       0.372  -0.514   1.056  0.00  0.00    -0.464 OA
BRANCH  34  36
ATOM     35  C   UNL     1      -0.511   1.451  -0.039  0.00  0.00    +0.048 C 
ATOM     36  C   UNL     1      -0.459  -0.078  -0.021  0.00  0.00    +0.229 C 
ENDBRANCH  34  36
ENDBRANCH  32  34
ENDBRANCH  31  32
ENDBRANCH   1  31
TORSDOF 7
