REMARK  Name = ZINC17911943
REMARK  11 active torsions:
REMARK  status: ('A' for Active; 'I' for Inactive)
REMARK    1  A    between atoms: C_1  and  C_2
REMARK    2  A    between atoms: C_6  and  C_33
REMARK    3  A    between atoms: C_7  and  C_13
REMARK    4  A    between atoms: C_13  and  C_14
REMARK    5  A    between atoms: C_14  and  C_15
REMARK    6  A    between atoms: N_17  and  C_18
REMARK    7  A    between atoms: C_18  and  C_19
REMARK    8  A    between atoms: C_19  and  C_21
REMARK    9  A    between atoms: C_19  and  N_65
REMARK   10  A    between atoms: C_24  and  O_27
REMARK   11  A    between atoms: O_27  and  C_28
REMARK                            x       y       z     vdW  Elec       q    Type
REMARK                         _______ _______ _______ _____ _____    ______ ____
ROOT
ATOM      1  C   UNL     1      -1.445   0.978   4.225  0.00  0.00    +0.213 C 
ATOM      2  O   UNL     1      -0.393   1.393   4.664  0.00  0.00    -0.276 OA
ATOM      3  N   UNL     1      -2.598   1.250   4.868  0.00  0.00    -0.317 N 
ATOM      4  H   UNL     1      -3.439   0.918   4.517  0.00  0.00    +0.149 HD
ENDROOT
BRANCH   1   5
ATOM      5  C   UNL     1      -1.462   0.157   2.962  0.00  0.00    +0.100 C 
BRANCH   5   6
ATOM      6  C   UNL     1      -0.034  -0.004   2.438  0.00  0.00    +0.052 C 
BRANCH   6  13
ATOM      7  C   UNL     1      -0.224  -3.549  -4.701  0.00  0.00    +0.044 C 
ATOM      8  C   UNL     1      -0.212  -2.675  -3.473  0.00  0.00    -0.047 A 
ATOM      9  C   UNL     1      -0.333  -1.299  -3.608  0.00  0.00    +0.004 A 
ATOM     10  C   UNL     1      -0.325  -0.491  -2.506  0.00  0.00    +0.012 A 
ATOM     11  C   UNL     1      -0.200  -1.056  -1.233  0.00  0.00    +0.021 A 
ATOM     12  C   UNL     1      -0.181  -0.216  -0.031  0.00  0.00    -0.030 A 
ATOM     13  C   UNL     1      -0.051  -0.825   1.175  0.00  0.00    +0.041 A 
ATOM     14  C   UNL     1       0.067  -2.231   1.242  0.00  0.00    +0.341 A 
ATOM     15  O   UNL     1       0.183  -2.765   2.330  0.00  0.00    -0.245 OA
ATOM     16  O   UNL     1       0.055  -2.992   0.137  0.00  0.00    -0.422 OA
ATOM     17  C   UNL     1      -0.071  -2.449  -1.093  0.00  0.00    +0.140 A 
ATOM     18  C   UNL     1      -0.082  -3.251  -2.227  0.00  0.00    +0.050 A 
ATOM     19  C   UNL     1      -0.309   1.282  -0.132  0.00  0.00    +0.045 C 
ENDBRANCH   6  13
ENDBRANCH   5   6
ENDBRANCH   1   5
BRANCH   3  20
ATOM     20  C   UNL     1      -2.581   2.049   6.096  0.00  0.00    +0.093 C 
BRANCH  20  21
ATOM     21  C   UNL     1      -4.017   2.308   6.555  0.00  0.00    -0.020 C 
BRANCH  21  22
ATOM     22  C   UNL     1      -4.663   1.004   6.946  0.00  0.00    -0.059 A 
ATOM     23  C   UNL     1      -4.399   0.447   8.183  0.00  0.00    +0.005 A 
ATOM     24  C   UNL     1      -4.994  -0.746   8.546  0.00  0.00    +0.046 A 
ATOM     25  C   UNL     1      -5.849  -1.390   7.663  0.00  0.00    +0.120 A 
ATOM     26  C   UNL     1      -6.108  -0.831   6.420  0.00  0.00    +0.046 A 
ATOM     27  C   UNL     1      -5.515   0.365   6.064  0.00  0.00    +0.005 A 
BRANCH  25  28
ATOM     28  O   UNL     1      -6.431  -2.566   8.015  0.00  0.00    -0.495 OA
ATOM     29  C   UNL     1      -6.118  -3.083   9.311  0.00  0.00    +0.277 C 
ENDBRANCH  25  28
ENDBRANCH  21  22
BRANCH  21  34
ATOM     30  C   UNL     1      -3.348   4.503   7.371  0.00  0.00    -0.078 C 
ATOM     31  C   UNL     1      -3.881   5.470   8.458  0.00  0.00    -0.020 C 
ATOM     32  C   UNL     1      -5.346   5.013   8.640  0.00  0.00    -0.020 C 
ATOM     33  C   UNL     1      -5.381   3.561   8.127  0.00  0.00    -0.078 C 
ATOM     34  N   UNL     1      -4.012   3.238   7.725  0.00  0.00    +0.385 N 
ATOM     35  H   UNL     1      -3.516   2.793   8.506  0.00  0.00    -0.081 HD
ENDBRANCH  21  34
ENDBRANCH  20  21
ENDBRANCH   3  20
TORSDOF 8
