REMARK  Name = ZINC11695883
REMARK  8 active torsions:
REMARK  status: ('A' for Active; 'I' for Inactive)
REMARK    1  A    between atoms: C_1  and  C_2
REMARK    2  A    between atoms: C_7  and  N_8
REMARK    3  A    between atoms: C_9  and  C_11
REMARK    4  A    between atoms: C_11  and  S_12
REMARK    5  A    between atoms: S_12  and  C_13
REMARK    6  A    between atoms: C_14  and  S_25
REMARK    7  A    between atoms: C_16  and  C_19
REMARK    8  A    between atoms: S_25  and  C_28
REMARK                            x       y       z     vdW  Elec       q    Type
REMARK                         _______ _______ _______ _____ _____    ______ ____
ROOT
ATOM      1  C   UNL     1       3.890   3.538  -2.449  0.00  0.00    +0.120 A 
ATOM      2  C   UNL     1       3.132   4.361  -1.679  0.00  0.00    +0.214 A 
ATOM      3  N   UNL     1       2.778   5.420  -2.415  0.00  0.00    -0.208 NA
ATOM      4  C   UNL     1       3.278   5.298  -3.623  0.00  0.00    +0.141 A 
ATOM      5  N   UNL     1       3.982   4.124  -3.685  0.00  0.00    -0.332 N 
ATOM      6  H   UNL     1       4.470   3.763  -4.480  0.00  0.00    +0.168 HD
ENDROOT
BRANCH   4   7
ATOM      7  C   UNL     1       3.110   6.264  -4.729  0.00  0.00    +0.017 A 
ATOM      8  C   UNL     1       3.700   6.018  -5.971  0.00  0.00    +0.011 A 
ATOM      9  C   UNL     1       3.534   6.921  -7.000  0.00  0.00    +0.001 A 
ATOM     10  C   UNL     1       2.795   8.073  -6.802  0.00  0.00    +0.000 A 
ATOM     11  C   UNL     1       2.211   8.326  -5.573  0.00  0.00    +0.001 A 
ATOM     12  C   UNL     1       2.364   7.428  -4.536  0.00  0.00    +0.011 A 
ENDBRANCH   4   7
BRANCH   2  13
ATOM     13  S   UNL     1       2.695   4.083   0.006  0.00  0.00    +0.045 S 
ATOM     14  O   UNL     1       2.420   5.358   0.569  0.00  0.00    -0.163 OA
ATOM     15  O   UNL     1       3.679   3.209   0.542  0.00  0.00    -0.163 OA
BRANCH  13  16
ATOM     16  C   UNL     1       1.175   3.192   0.009  0.00  0.00    +0.095 A 
ATOM     17  C   UNL     1       1.184   1.810  -0.002  0.00  0.00    +0.027 A 
ATOM     18  C   UNL     1      -0.009   1.111   0.001  0.00  0.00    +0.002 A 
ATOM     19  C   UNL     1      -1.210   1.794   0.010  0.00  0.00    +0.000 A 
ATOM     20  C   UNL     1      -1.219   3.176   0.027  0.00  0.00    +0.002 A 
ATOM     21  C   UNL     1      -0.027   3.875   0.025  0.00  0.00    +0.027 A 
ENDBRANCH  13  16
ENDBRANCH   2  13
BRANCH   1  22
ATOM     22  S   UNL     1       4.614   2.010  -1.955  0.00  0.00    -0.095 S 
BRANCH  22  23
ATOM     23  C   UNL     1       5.482   1.435  -3.441  0.00  0.00    +0.172 C 
BRANCH  23  25
ATOM     24  N   UNL     1       6.863  -0.503  -4.116  0.00  0.00    -0.285 N 
ATOM     25  C   UNL     1       6.154   0.118  -3.152  0.00  0.00    +0.227 C 
ATOM     26  O   UNL     1       6.058  -0.384  -2.052  0.00  0.00    -0.275 OA
ATOM     27  H   UNL     1       6.874  -0.144  -5.017  0.00  0.00    +0.155 HD
BRANCH  24  34
ATOM     28  C   UNL     1       7.428  -2.316  -6.235  0.00  0.00    +0.045 C 
ATOM     29  C   UNL     1       7.880  -2.577  -4.821  0.00  0.00    -0.029 A 
ATOM     30  C   UNL     1       8.590  -3.724  -4.523  0.00  0.00    +0.005 A 
ATOM     31  C   UNL     1       9.005  -3.963  -3.226  0.00  0.00    +0.000 A 
ATOM     32  C   UNL     1       8.711  -3.057  -2.224  0.00  0.00    +0.002 A 
ATOM     33  C   UNL     1       8.005  -1.907  -2.516  0.00  0.00    +0.023 A 
ATOM     34  C   UNL     1       7.582  -1.665  -3.817  0.00  0.00    +0.036 A 
ENDBRANCH  24  34
ENDBRANCH  23  25
ENDBRANCH  22  23
ENDBRANCH   1  22
TORSDOF 7
