REMARK  Name = ZINC02646694
REMARK  11 active torsions:
REMARK  status: ('A' for Active; 'I' for Inactive)
REMARK    1  A    between atoms: C_1  and  C_2
REMARK    2  A    between atoms: C_2  and  O_3
REMARK    3  A    between atoms: O_3  and  C_4
REMARK    4  A    between atoms: C_4  and  C_6
REMARK    5  A    between atoms: C_7  and  C_30
REMARK    6  A    between atoms: C_10  and  N_11
REMARK    7  A    between atoms: C_12  and  C_14
REMARK    8  A    between atoms: C_14  and  N_15
REMARK    9  A    between atoms: C_18  and  C_22
REMARK   10  A    between atoms: C_18  and  C_23
REMARK   11  A    between atoms: C_26  and  C_29
REMARK                            x       y       z     vdW  Elec       q    Type
REMARK                         _______ _______ _______ _____ _____    ______ ____
ROOT
ATOM      1  N   UNL     1      -1.116   2.228   0.020  0.00  0.00    -0.278 N 
ATOM      2  C   UNL     1      -0.941   3.564   0.026  0.00  0.00    +0.236 C 
ATOM      3  O   UNL     1       0.180   4.028   0.023  0.00  0.00    -0.274 OA
ATOM      4  H   UNL     1      -2.012   1.856   0.022  0.00  0.00    +0.155 HD
ENDROOT
BRANCH   1   9
ATOM      5  C   UNL     1       0.002  -0.004   0.002  0.00  0.00    +0.095 A 
ATOM      6  C   UNL     1       1.306  -0.639  -0.014  0.00  0.00    +0.005 A 
ATOM      7  C   UNL     1       2.386   0.184  -0.020  0.00  0.00    +0.056 A 
ATOM      8  S   UNL     1       1.661   1.811  -0.004  0.00  0.00    -0.080 S 
ATOM      9  C   UNL     1      -0.017   1.384   0.010  0.00  0.00    +0.086 A 
BRANCH   6  10
ATOM     10  C   UNL     1       1.453  -2.114  -0.024  0.00  0.00    -0.017 A 
ATOM     11  C   UNL     1       0.765  -2.892   0.906  0.00  0.00    +0.008 A 
ATOM     12  C   UNL     1       0.900  -4.265   0.888  0.00  0.00    +0.001 A 
ATOM     13  C   UNL     1       1.727  -4.869  -0.042  0.00  0.00    +0.000 A 
ATOM     14  C   UNL     1       2.418  -4.101  -0.963  0.00  0.00    +0.001 A 
ATOM     15  C   UNL     1       2.285  -2.728  -0.959  0.00  0.00    +0.008 A 
ENDBRANCH   6  10
BRANCH   5  16
ATOM     16  C   UNL     1      -1.233  -0.788   0.009  0.00  0.00    +0.342 C 
ATOM     17  O   UNL     1      -1.756  -1.108  -1.041  0.00  0.00    -0.245 OA
BRANCH  16  18
ATOM     18  O   UNL     1      -1.791  -1.157   1.181  0.00  0.00    -0.461 OA
BRANCH  18  20
ATOM     19  C   UNL     1      -3.496  -2.255   2.528  0.00  0.00    +0.048 C 
ATOM     20  C   UNL     1      -3.016  -1.933   1.112  0.00  0.00    +0.229 C 
ENDBRANCH  18  20
ENDBRANCH  16  18
ENDBRANCH   5  16
ENDBRANCH   1   9
BRANCH   2  21
ATOM     21  C   UNL     1      -2.136   4.481   0.037  0.00  0.00    +0.214 C 
BRANCH  21  22
ATOM     22  N   UNL     1      -1.683   5.874   0.042  0.00  0.00    -0.215 N 
ATOM     23  C   UNL     1      -1.455   6.600  -1.070  0.00  0.00    +0.251 C 
ATOM     24  O   UNL     1      -1.579   6.237  -2.220  0.00  0.00    -0.272 OA
ATOM     25  C   UNL     1      -1.009   7.965  -0.584  0.00  0.00    +0.135 C 
ATOM     26  N   UNL     1      -1.041   7.837   0.883  0.00  0.00    -0.281 N 
ATOM     27  C   UNL     1      -1.451   6.585   1.152  0.00  0.00    +0.310 C 
ATOM     28  O   UNL     1      -1.591   6.146   2.277  0.00  0.00    -0.252 OA
ATOM     29  C   UNL     1      -1.983   9.048  -1.052  0.00  0.00    +0.047 C 
ATOM     30  H   UNL     1      -0.813   8.524   1.530  0.00  0.00    +0.152 HD
BRANCH  25  31
ATOM     31  C   UNL     1       0.389   8.266  -1.059  0.00  0.00    -0.015 A 
ATOM     32  C   UNL     1       0.845   7.730  -2.249  0.00  0.00    +0.006 A 
ATOM     33  C   UNL     1       2.126   8.011  -2.688  0.00  0.00    +0.004 A 
ATOM     34  C   UNL     1       2.954   8.819  -1.932  0.00  0.00    -0.050 A 
ATOM     35  C   UNL     1       2.500   9.350  -0.739  0.00  0.00    +0.004 A 
ATOM     36  C   UNL     1       1.217   9.074  -0.303  0.00  0.00    +0.006 A 
ATOM     37  C   UNL     1       4.352   9.120  -2.407  0.00  0.00    +0.044 C 
ENDBRANCH  25  31
ENDBRANCH  21  22
ENDBRANCH   2  21
TORSDOF 8
