REMARK  Name = ZINC06198184
REMARK  9 active torsions:
REMARK  status: ('A' for Active; 'I' for Inactive)
REMARK    1  A    between atoms: C_1  and  C_2
REMARK    2  A    between atoms: C_2  and  C_3
REMARK    3  A    between atoms: C_10  and  C_15
REMARK    4  A    between atoms: C_15  and  C_17
REMARK    5  A    between atoms: C_15  and  N_63
REMARK    6  A    between atoms: N_21  and  C_22
REMARK    7  A    between atoms: C_27  and  N_63
REMARK    8  A    between atoms: C_28  and  C_29
REMARK    9  A    between atoms: C_28  and  N_63
REMARK                            x       y       z     vdW  Elec       q    Type
REMARK                         _______ _______ _______ _____ _____    ______ ____
ROOT
ATOM      1  C   UNL     1      -1.332   7.432   0.057  0.00  0.00    +0.039 C 
ENDROOT
BRANCH   1   9
ATOM      2  C   UNL     1       1.185   1.779   0.000  0.00  0.00    -0.047 A 
ATOM      3  C   UNL     1      -0.013   1.076   0.008  0.00  0.00    +0.005 A 
ATOM      4  C   UNL     1      -1.219   1.741   0.017  0.00  0.00    +0.026 A 
ATOM      5  C   UNL     1      -1.240   3.132   0.031  0.00  0.00    +0.049 A 
ATOM      6  C   UNL     1      -0.025   3.842   0.023  0.00  0.00    -0.001 A 
ATOM      7  C   UNL     1       1.188   3.145   0.008  0.00  0.00    +0.013 A 
ATOM      8  C   UNL     1      -0.057   5.306   0.033  0.00  0.00    +0.017 A 
ATOM      9  C   UNL     1      -1.263   5.926   0.048  0.00  0.00    +0.011 A 
ATOM     10  C   UNL     1      -2.453   5.168   0.055  0.00  0.00    +0.251 A 
ATOM     11  O   UNL     1      -3.526   5.746   0.068  0.00  0.00    -0.268 OA
ATOM     12  N   UNL     1      -2.433   3.824   0.047  0.00  0.00    -0.322 N 
ATOM     13  H   UNL     1      -3.296   3.318   0.052  0.00  0.00    +0.169 HD
BRANCH   2  15
ATOM     14  C   UNL     1       2.920   0.783  -1.464  0.00  0.00    +0.009 C 
ATOM     15  C   UNL     1       2.491   1.029  -0.016  0.00  0.00    +0.032 C 
ENDBRANCH   2  15
ENDBRANCH   1   9
BRANCH   1  16
ATOM     16  C   UNL     1      -1.942   7.899   1.353  0.00  0.00    +0.143 A 
ATOM     17  N   UNL     1      -3.208   7.843   1.687  0.00  0.00    -0.115 NA
ATOM     18  N   UNL     1      -3.330   8.338   2.871  0.00  0.00    -0.023 NA
ATOM     19  N   UNL     1      -2.174   8.708   3.300  0.00  0.00    -0.044 NA
ATOM     20  N   UNL     1      -1.292   8.449   2.396  0.00  0.00    -0.227 N 
BRANCH  20  21
ATOM     21  C   UNL     1       0.147   8.709   2.484  0.00  0.00    +0.111 C 
ATOM     22  C   UNL     1       0.742   7.977   3.705  0.00  0.00    +0.027 C 
ATOM     23  C   UNL     1       1.809   8.958   4.253  0.00  0.00    +0.002 C 
ATOM     24  C   UNL     1       1.138  10.340   4.053  0.00  0.00    +0.002 C 
ATOM     25  C   UNL     1       0.400  10.210   2.705  0.00  0.00    +0.027 C 
ENDBRANCH  20  21
ENDBRANCH   1  16
BRANCH   1  27
ATOM     26  C   UNL     1      -1.646   7.375  -2.343  0.00  0.00    -0.094 C 
ATOM     27  N   UNL     1      -2.185   7.881  -1.063  0.00  0.00    +0.390 N 
ATOM     28  H   UNL     1      -3.133   7.508  -0.930  0.00  0.00    -0.080 HD
BRANCH  27  29
ATOM     29  C   UNL     1      -2.249   9.357  -1.090  0.00  0.00    -0.042 C 
BRANCH  29  30
ATOM     30  C   UNL     1      -3.291   9.781  -2.093  0.00  0.00    -0.064 A 
ATOM     31  C   UNL     1      -2.930  10.019  -3.406  0.00  0.00    +0.002 A 
ATOM     32  C   UNL     1      -3.887  10.402  -4.327  0.00  0.00    +0.000 A 
ATOM     33  C   UNL     1      -5.202  10.559  -3.932  0.00  0.00    +0.000 A 
ATOM     34  C   UNL     1      -5.562  10.326  -2.618  0.00  0.00    +0.000 A 
ATOM     35  C   UNL     1      -4.606   9.937  -1.698  0.00  0.00    +0.002 A 
ENDBRANCH  29  30
ENDBRANCH  27  29
ENDBRANCH   1  27
TORSDOF 7
