REMARK  Name = ZINC53096411
REMARK  6 active torsions:
REMARK  status: ('A' for Active; 'I' for Inactive)
REMARK    1  A    between atoms: C_1  and  C_2
REMARK    2  A    between atoms: C_3  and  C_8
REMARK    3  A    between atoms: C_8  and  N_9
REMARK    4  A    between atoms: N_9  and  C_10
REMARK    5  A    between atoms: C_10  and  C_16
REMARK    6  A    between atoms: C_16  and  O_17
REMARK                            x       y       z     vdW  Elec       q    Type
REMARK                         _______ _______ _______ _____ _____    ______ ____
ROOT
ATOM      1  N   UNL     1       1.122   0.168  -2.955  0.00  0.00    +0.387 N 
ATOM      2  H   UNL     1       0.122   0.145  -2.824  0.00  0.00    -0.085 HD
ATOM      3  H   UNL     1       1.533   0.817  -2.300  0.00  0.00    -0.085 HD
ENDROOT
BRANCH   1   4
ATOM      4  C   UNL     1       1.427   0.597  -4.326  0.00  0.00    -0.044 C 
ATOM      5  C   UNL     1       0.756   1.944  -4.600  0.00  0.00    -0.010 C 
ATOM      6  C   UNL     1       1.282   2.986  -3.611  0.00  0.00    -0.001 C 
ATOM      7  C   UNL     1       2.797   3.128  -3.777  0.00  0.00    -0.000 C 
ATOM      8  C   UNL     1       3.468   1.780  -3.503  0.00  0.00    -0.001 C 
ATOM      9  C   UNL     1       2.941   0.738  -4.492  0.00  0.00    -0.010 C 
BRANCH   4  10
ATOM     10  C   UNL     1       0.900  -0.445  -5.315  0.00  0.00    +0.143 C 
BRANCH  10  11
ATOM     11  O   UNL     1      -0.490  -0.670  -5.075  0.00  0.00    -0.396 OA
ATOM     12  H   UNL     1      -0.891  -1.321  -5.667  0.00  0.00    +0.209 HD
ENDBRANCH  10  11
ENDBRANCH   4  10
ENDBRANCH   1   4
BRANCH   1  13
ATOM     13  C   UNL     1       1.677  -1.173  -2.727  0.00  0.00    -0.043 C 
BRANCH  13  16
ATOM     14  C   UNL     1      -1.030  -2.308  -1.532  0.00  0.00    +0.068 C 
ATOM     15  C   UNL     1       0.247  -2.079  -0.766  0.00  0.00    +0.061 A 
ATOM     16  C   UNL     1       1.441  -1.577  -1.294  0.00  0.00    -0.024 A 
ATOM     17  C   UNL     1       2.348  -1.520  -0.291  0.00  0.00    +0.106 A 
ATOM     18  N   UNL     1       1.749  -1.969   0.831  0.00  0.00    -0.284 N 
ATOM     19  H   UNL     1       2.159  -2.040   1.708  0.00  0.00    +0.188 HD
ATOM     20  N   UNL     1       0.429  -2.309   0.509  0.00  0.00    -0.179 NA
ENDBRANCH  13  16
ENDBRANCH   1  13
TORSDOF 5
