REMARK  Name = ZINC15291258
REMARK  6 active torsions:
REMARK  status: ('A' for Active; 'I' for Inactive)
REMARK    1  A    between atoms: C_3  and  N_9
REMARK    2  A    between atoms: C_6  and  C_7
REMARK    3  A    between atoms: N_9  and  C_10
REMARK    4  A    between atoms: C_10  and  C_11
REMARK    5  A    between atoms: N_13  and  C_14
REMARK    6  A    between atoms: C_14  and  C_20
REMARK                            x       y       z     vdW  Elec       q    Type
REMARK                         _______ _______ _______ _____ _____    ______ ____
ROOT
ATOM      1  C   UNL     1       2.248  -4.280  -0.041  0.00  0.00    +0.231 C 
ATOM      2  O   UNL     1       1.109  -4.697  -0.032  0.00  0.00    -0.274 OA
ATOM      3  N   UNL     1       3.282  -5.144  -0.055  0.00  0.00    -0.296 N 
ATOM      4  H   UNL     1       4.193  -4.811  -0.061  0.00  0.00    +0.150 HD
ENDROOT
BRANCH   3   5
ATOM      5  C   UNL     1       3.030  -6.588  -0.059  0.00  0.00    +0.121 C 
ATOM      6  C   UNL     1       2.244  -6.972   1.195  0.00  0.00    +0.041 C 
ATOM      7  C   UNL     1       1.981  -8.479   1.190  0.00  0.00    +0.003 C 
ATOM      8  C   UNL     1       3.314  -9.230   1.174  0.00  0.00    +0.000 C 
ATOM      9  C   UNL     1       4.101  -8.845  -0.081  0.00  0.00    +0.003 C 
ATOM     10  C   UNL     1       4.364  -7.338  -0.076  0.00  0.00    +0.041 C 
BRANCH   5  11
ATOM     11  C   UNL     1       2.251  -6.946  -1.256  0.00  0.00    +0.088 C 
ATOM     12  N   UNL     1       1.650  -7.222  -2.179  0.00  0.00    -0.194 NA
ENDBRANCH   5  11
ENDBRANCH   3   5
BRANCH   1  13
ATOM     13  C   UNL     1       2.508  -2.795  -0.035  0.00  0.00    +0.197 C 
BRANCH  13  14
ATOM     14  N   UNL     1       1.231  -2.077  -0.020  0.00  0.00    -0.335 N 
ATOM     15  H   UNL     1       0.396  -2.571  -0.015  0.00  0.00    +0.147 HD
BRANCH  14  18
ATOM     16  C   UNL     1      -0.017   1.372   0.010  0.00  0.00    +0.020 A 
ATOM     17  C   UNL     1       0.002  -0.004   0.002  0.00  0.00    +0.024 A 
ATOM     18  C   UNL     1       1.216  -0.685  -0.013  0.00  0.00    +0.028 A 
ATOM     19  C   UNL     1       2.414   0.022  -0.020  0.00  0.00    +0.024 A 
ATOM     20  C   UNL     1       2.403   1.399  -0.013  0.00  0.00    +0.020 A 
ATOM     21  C   UNL     1       1.185   2.086   0.002  0.00  0.00    +0.052 A 
BRANCH  21  22
ATOM     22  C   UNL     1       1.170   3.518   0.009  0.00  0.00    +0.099 C 
ATOM     23  N   UNL     1       1.157   4.654   0.015  0.00  0.00    -0.191 NA
ENDBRANCH  21  22
ENDBRANCH  14  18
ENDBRANCH  13  14
ENDBRANCH   1  13
TORSDOF 6
