REMARK  Name = ZINC67487844
REMARK  5 active torsions:
REMARK  status: ('A' for Active; 'I' for Inactive)
REMARK    1  A    between atoms: C_1  and  C_2
REMARK    2  A    between atoms: C_9  and  C_11
REMARK    3  A    between atoms: C_11  and  C_13
REMARK    4  A    between atoms: C_11  and  N_14
REMARK    5  A    between atoms: N_17  and  C_18
REMARK                            x       y       z     vdW  Elec       q    Type
REMARK                         _______ _______ _______ _____ _____    ______ ____
ROOT
ATOM      1  N   UNL     1       2.923   0.989   3.757  0.00  0.00    -0.288 N 
ATOM      2  C   UNL     1       4.077   0.861   4.443  0.00  0.00    +0.304 C 
ATOM      3  O   UNL     1       4.716  -0.171   4.371  0.00  0.00    -0.252 OA
ATOM      4  N   UNL     1       4.522   1.877   5.208  0.00  0.00    -0.269 N 
ATOM      5  H   UNL     1       2.414   1.812   3.814  0.00  0.00    +0.151 HD
ATOM      6  H   UNL     1       3.981   2.675   5.317  0.00  0.00    +0.156 HD
ENDROOT
BRANCH   4   7
ATOM      7  C   UNL     1       5.764   1.782   5.845  0.00  0.00    +0.038 A 
ATOM      8  C   UNL     1       6.797   1.084   5.239  0.00  0.00    +0.023 A 
ATOM      9  C   UNL     1       8.022   0.990   5.870  0.00  0.00    +0.002 A 
ATOM     10  C   UNL     1       8.209   1.588   7.100  0.00  0.00    +0.004 A 
ATOM     11  C   UNL     1       7.176   2.287   7.712  0.00  0.00    -0.042 A 
ATOM     12  C   UNL     1       5.957   2.393   7.084  0.00  0.00    -0.023 A 
ATOM     13  C   UNL     1       4.801   3.154   7.678  0.00  0.00    +0.037 C 
ATOM     14  C   UNL     1       5.019   3.381   9.173  0.00  0.00    +0.005 C 
ATOM     15  C   UNL     1       6.414   3.988   9.371  0.00  0.00    +0.005 C 
ATOM     16  C   UNL     1       7.451   2.906   9.058  0.00  0.00    +0.035 C 
ENDBRANCH   4   7
BRANCH   1  17
ATOM     17  C   UNL     1       2.440  -0.116   2.925  0.00  0.00    +0.157 C 
ATOM     18  C   UNL     1       1.646  -1.097   3.791  0.00  0.00    +0.038 C 
BRANCH  17  26
ATOM     19  C   UNL     1       0.029   1.629  -0.025  0.00  0.00    +0.028 C 
ATOM     20  C   UNL     1       0.384   0.167  -0.300  0.00  0.00    +0.073 C 
ATOM     21  C   UNL     1      -0.901  -0.651  -0.467  0.00  0.00    +0.022 C 
ATOM     22  C   UNL     1      -0.544  -2.133  -0.603  0.00  0.00    +0.003 C 
ATOM     23  C   UNL     1       0.168  -2.606   0.667  0.00  0.00    +0.019 C 
ATOM     24  C   UNL     1       1.465  -1.811   0.847  0.00  0.00    +0.108 C 
ATOM     25  N   UNL     1       1.149  -0.376   0.831  0.00  0.00    -0.297 N 
ATOM     26  C   UNL     1       1.550   0.427   1.837  0.00  0.00    +0.236 C 
ATOM     27  O   UNL     1       1.195   1.586   1.866  0.00  0.00    -0.274 OA
ENDBRANCH  17  26
ENDBRANCH   1  17
TORSDOF 3
