REMARK  Name = ZINC36122260
REMARK  13 active torsions:
REMARK  status: ('A' for Active; 'I' for Inactive)
REMARK    1  A    between atoms: C_1  and  C_2
REMARK    2  A    between atoms: C_2  and  C_3
REMARK    3  A    between atoms: C_2  and  C_4
REMARK    4  A    between atoms: C_7  and  O_10
REMARK    5  A    between atoms: O_10  and  C_11
REMARK    6  A    between atoms: C_11  and  C_12
REMARK    7  A    between atoms: C_22  and  C_24
REMARK    8  A    between atoms: C_24  and  N_25
REMARK    9  A    between atoms: N_25  and  C_26
REMARK   10  A    between atoms: C_26  and  C_27
REMARK   11  A    between atoms: N_35  and  C_36
REMARK   12  A    between atoms: C_36  and  C_37
REMARK   13  A    between atoms: C_36  and  C_38
REMARK                            x       y       z     vdW  Elec       q    Type
REMARK                         _______ _______ _______ _____ _____    ______ ____
ROOT
ATOM      1  C   UNL     1      -7.135  -3.208  -0.872  0.00  0.00    +0.144 C 
ATOM      2  C   UNL     1      -8.017  -1.978  -0.666  0.00  0.00    -0.014 A 
ATOM      3  C   UNL     1      -8.351  -1.096  -1.693  0.00  0.00    +0.013 A 
ATOM      4  C   UNL     1      -9.134  -0.024  -1.436  0.00  0.00    +0.046 A 
ATOM      5  S   UNL     1      -9.450  -0.209   0.312  0.00  0.00    -0.101 S 
ATOM      6  C   UNL     1      -8.519  -1.697   0.567  0.00  0.00    -0.004 A 
ATOM      7  C   UNL     1      -8.330  -2.469   1.833  0.00  0.00    +0.061 C 
ATOM      8  C   UNL     1      -7.146  -3.430   1.651  0.00  0.00    +0.114 C 
ATOM      9  N   UNL     1      -7.254  -4.053   0.323  0.00  0.00    -0.289 N 
ATOM     10  C   UNL     1      -7.463  -5.380   0.204  0.00  0.00    +0.234 C 
ATOM     11  O   UNL     1      -7.552  -5.883  -0.896  0.00  0.00    -0.274 OA
ENDROOT
BRANCH   1  12
ATOM     12  C   UNL     1      -5.679  -2.776  -1.058  0.00  0.00    +0.256 C 
BRANCH  12  13
ATOM     13  O   UNL     1      -5.282  -1.955   0.043  0.00  0.00    -0.490 OA
BRANCH  13  17
ATOM     14  C   UNL     1      -1.412  -0.526   0.013  0.00  0.00    -0.045 A 
ATOM     15  C   UNL     1      -2.258  -0.203   1.057  0.00  0.00    +0.007 A 
ATOM     16  C   UNL     1      -3.555  -0.681   1.070  0.00  0.00    +0.046 A 
ATOM     17  C   UNL     1      -4.007  -1.484   0.033  0.00  0.00    +0.121 A 
ATOM     18  C   UNL     1      -3.156  -1.805  -1.015  0.00  0.00    +0.046 A 
ATOM     19  C   UNL     1      -1.862  -1.321  -1.025  0.00  0.00    +0.007 A 
BRANCH  14  21
ATOM     20  C   UNL     1      -0.019   1.526   0.010  0.00  0.00    +0.012 C 
ATOM     21  C   UNL     1       0.002  -0.004   0.002  0.00  0.00    +0.013 C 
ATOM     22  C   UNL     1       0.742  -0.511   1.242  0.00  0.00    +0.012 C 
ENDBRANCH  14  21
ENDBRANCH  13  17
ENDBRANCH  12  13
ENDBRANCH   1  12
BRANCH  10  23
ATOM     23  C   UNL     1      -7.584  -6.237   1.437  0.00  0.00    +0.205 C 
BRANCH  23  24
ATOM     24  N   UNL     1      -7.805  -7.631   1.043  0.00  0.00    -0.274 N 
ATOM     25  C   UNL     1      -9.060  -8.092   0.873  0.00  0.00    +0.303 C 
ATOM     26  O   UNL     1     -10.009  -7.351   1.047  0.00  0.00    -0.253 OA
ATOM     27  N   UNL     1      -9.264  -9.374   0.511  0.00  0.00    -0.297 N 
ATOM     28  H   UNL     1      -8.507  -9.965   0.372  0.00  0.00    +0.150 HD
BRANCH  27  29
ATOM     29  C   UNL     1     -10.628  -9.875   0.327  0.00  0.00    +0.068 C 
ATOM     30  C   UNL     1     -10.608 -11.064  -0.636  0.00  0.00    +0.027 C 
ATOM     31  C   UNL     1     -11.194 -10.320   1.676  0.00  0.00    +0.027 C 
ENDBRANCH  27  29
BRANCH  24  32
ATOM     32  C   UNL     1      -6.662  -8.523   0.833  0.00  0.00    +0.141 C 
BRANCH  32  33
ATOM     33  C   UNL     1      -6.310  -9.219   2.150  0.00  0.00    +0.136 C 
ATOM     34  C   UNL     1      -5.034 -10.068   1.968  0.00  0.00    +0.035 C 
ATOM     35  C   UNL     1      -5.361 -11.337   2.801  0.00  0.00    +0.031 C 
ATOM     36  C   UNL     1      -6.888 -11.458   2.567  0.00  0.00    +0.160 C 
ATOM     37  O   UNL     1      -7.371 -10.104   2.530  0.00  0.00    -0.375 OA
ENDBRANCH  32  33
ENDBRANCH  24  32
ENDBRANCH  23  24
ENDBRANCH  10  23
TORSDOF 9
