REMARK  Name = ZINC15677377
REMARK  8 active torsions:
REMARK  status: ('A' for Active; 'I' for Inactive)
REMARK    1  A    between atoms: C_1  and  C_2
REMARK    2  A    between atoms: C_4  and  C_25
REMARK    3  A    between atoms: C_5  and  N_9
REMARK    4  A    between atoms: C_6  and  C_8
REMARK    5  A    between atoms: N_9  and  S_10
REMARK    6  A    between atoms: S_10  and  C_13
REMARK    7  A    between atoms: C_18  and  C_19
REMARK    8  A    between atoms: N_20  and  C_24
REMARK                            x       y       z     vdW  Elec       q    Type
REMARK                         _______ _______ _______ _____ _____    ______ ____
ROOT
ATOM      1  S   UNL     1       4.280  -0.516  -0.147  0.00  0.00    +0.073 S 
ATOM      2  O   UNL     1       5.383  -1.410  -0.190  0.00  0.00    -0.150 OA
ATOM      3  O   UNL     1       4.077   0.491  -1.129  0.00  0.00    -0.150 OA
ENDROOT
BRANCH   1   4
ATOM      4  C   UNL     1       4.359   0.307   1.409  0.00  0.00    +0.115 A 
ATOM      5  C   UNL     1       5.393   0.033   2.284  0.00  0.00    +0.076 A 
ATOM      6  C   UNL     1       5.460   0.680   3.509  0.00  0.00    +0.143 A 
ATOM      7  C   UNL     1       4.484   1.607   3.858  0.00  0.00    +0.072 A 
ATOM      8  C   UNL     1       3.446   1.875   2.972  0.00  0.00    +0.032 A 
ATOM      9  C   UNL     1       3.389   1.231   1.751  0.00  0.00    -0.022 A 
ATOM     10  C   UNL     1       2.265   1.532   0.794  0.00  0.00    +0.046 C 
ATOM     11  N   UNL     1       4.515   2.288   5.079  0.00  0.00    -0.327 N 
ATOM     12  C   UNL     1       5.347   1.601   6.074  0.00  0.00    +0.146 C 
ATOM     13  C   UNL     1       6.709   1.286   5.440  0.00  0.00    +0.248 C 
ATOM     14  O   UNL     1       6.489   0.384   4.351  0.00  0.00    -0.488 OA
ATOM     15  C   UNL     1       3.157   2.510   5.592  0.00  0.00    +0.129 C 
ENDBRANCH   1   4
BRANCH   1  16
ATOM     16  N   UNL     1       2.913  -1.450  -0.138  0.00  0.00    -0.216 N 
ATOM     17  H   UNL     1       2.170  -1.229  -0.721  0.00  0.00    +0.174 HD
BRANCH  16  22
ATOM     18  C   UNL     1       2.578  -5.943   3.306  0.00  0.00    +0.044 C 
ATOM     19  C   UNL     1       2.664  -4.751   2.388  0.00  0.00    -0.050 A 
ATOM     20  C   UNL     1       3.550  -4.760   1.327  0.00  0.00    +0.008 A 
ATOM     21  C   UNL     1       3.636  -3.666   0.488  0.00  0.00    -0.028 A 
ATOM     22  C   UNL     1       2.829  -2.557   0.710  0.00  0.00    +0.054 A 
ATOM     23  C   UNL     1       1.940  -2.552   1.776  0.00  0.00    -0.028 A 
ATOM     24  C   UNL     1       1.859  -3.648   2.612  0.00  0.00    +0.008 A 
ATOM     25  C   UNL     1       1.063  -1.351   2.021  0.00  0.00    +0.046 C 
ATOM     26  C   UNL     1       4.603  -3.677  -0.668  0.00  0.00    +0.046 C 
ENDBRANCH  16  22
ENDBRANCH   1  16
TORSDOF 3
