REMARK  Name = ZINC22714798
REMARK  7 active torsions:
REMARK  status: ('A' for Active; 'I' for Inactive)
REMARK    1  A    between atoms: C_3  and  C_6
REMARK    2  A    between atoms: C_6  and  C_8
REMARK    3  A    between atoms: C_6  and  N_22
REMARK    4  A    between atoms: C_8  and  N_9
REMARK    5  A    between atoms: C_10  and  C_12
REMARK    6  A    between atoms: C_15  and  C_18
REMARK    7  A    between atoms: N_25  and  C_28
REMARK                            x       y       z     vdW  Elec       q    Type
REMARK                         _______ _______ _______ _____ _____    ______ ____
ROOT
ATOM      1  C   UNL     1       2.499   1.455  -0.015  0.00  0.00    +0.017 C 
ENDROOT
BRANCH   1   2
ATOM      2  N   UNL     1       3.242   2.256  -0.997  0.00  0.00    +0.389 N 
ATOM      3  C   UNL     1       3.262   3.674  -0.612  0.00  0.00    -0.059 C 
ATOM      4  C   UNL     1       4.110   4.460  -1.615  0.00  0.00    +0.086 C 
ATOM      5  N   UNL     1       3.551   4.291  -2.964  0.00  0.00    -0.333 N 
ATOM      6  C   UNL     1       3.530   2.873  -3.348  0.00  0.00    +0.086 C 
ATOM      7  C   UNL     1       2.682   2.087  -2.345  0.00  0.00    -0.059 C 
ATOM      8  H   UNL     1       4.280   1.893  -1.012  0.00  0.00    -0.081 HD
BRANCH   5   9
ATOM      9  C   UNL     1       4.258   5.054  -3.898  0.00  0.00    +0.030 A 
ATOM     10  C   UNL     1       4.830   4.441  -5.006  0.00  0.00    +0.026 A 
ATOM     11  C   UNL     1       5.524   5.197  -5.931  0.00  0.00    +0.040 A 
ATOM     12  C   UNL     1       5.659   6.563  -5.748  0.00  0.00    +0.124 A 
ATOM     13  C   UNL     1       5.094   7.175  -4.642  0.00  0.00    +0.040 A 
ATOM     14  C   UNL     1       4.395   6.424  -3.718  0.00  0.00    +0.026 A 
ATOM     15  F   UNL     1       6.342   7.300  -6.652  0.00  0.00    -0.205 F 
ENDBRANCH   5   9
ENDBRANCH   1   2
BRANCH   1  18
ATOM     16  C   UNL     1      -1.161   1.890  -0.027  0.00  0.00    +0.041 A 
ATOM     17  C   UNL     1      -0.011   1.068  -0.053  0.00  0.00    +0.043 A 
ATOM     18  C   UNL     1       1.055   1.887  -0.004  0.00  0.00    +0.093 A 
ATOM     19  O   UNL     1       0.614   3.154   0.057  0.00  0.00    -0.469 OA
ATOM     20  C   UNL     1      -0.729   3.162   0.047  0.00  0.00    +0.195 A 
ENDBRANCH   1  18
BRANCH   1  21
ATOM     21  C   UNL     1       3.104   1.663   1.375  0.00  0.00    +0.097 C 
BRANCH  21  22
ATOM     22  N   UNL     1       4.536   1.357   1.335  0.00  0.00    -0.312 N 
ATOM     23  C   UNL     1       5.281   1.470   2.452  0.00  0.00    +0.244 C 
ATOM     24  O   UNL     1       4.765   1.826   3.493  0.00  0.00    -0.270 OA
ATOM     25  H   UNL     1       5.003   1.034   0.393  0.00  0.00    +0.149 HD
BRANCH  23  26
ATOM     26  C   UNL     1       6.726   1.161   2.412  0.00  0.00    +0.037 A 
ATOM     27  C   UNL     1       7.321   0.746   1.219  0.00  0.00    +0.013 A 
ATOM     28  C   UNL     1       8.671   0.464   1.187  0.00  0.00    +0.013 A 
ATOM     29  C   UNL     1       9.433   0.581   2.336  0.00  0.00    +0.055 A 
ATOM     30  C   UNL     1       8.849   0.987   3.522  0.00  0.00    +0.013 A 
ATOM     31  C   UNL     1       7.501   1.277   3.567  0.00  0.00    +0.013 A 
BRANCH  29  32
ATOM     32  C   UNL     1      10.906   0.266   2.295  0.00  0.00    +0.417 C 
ATOM     33  F   UNL     1      11.101  -1.089   2.584  0.00  0.00    -0.166 F 
ATOM     34  F   UNL     1      11.408   0.547   1.019  0.00  0.00    -0.166 F 
ATOM     35  F   UNL     1      11.577   1.046   3.242  0.00  0.00    -0.166 F 
ENDBRANCH  29  32
ENDBRANCH  23  26
ENDBRANCH  21  22
ENDBRANCH   1  21
TORSDOF 7
