REMARK  Name = ZINC64604384
REMARK  10 active torsions:
REMARK  status: ('A' for Active; 'I' for Inactive)
REMARK    1  A    between atoms: C_1  and  C_2
REMARK    2  A    between atoms: C_6  and  S_12
REMARK    3  A    between atoms: C_10  and  C_11
REMARK    4  A    between atoms: S_12  and  C_13
REMARK    5  A    between atoms: C_13  and  C_14
REMARK    6  A    between atoms: C_16  and  C_19
REMARK    7  A    between atoms: C_19  and  C_20
REMARK    8  A    between atoms: C_20  and  C_21
REMARK    9  A    between atoms: N_23  and  C_24
REMARK   10  A    between atoms: C_26  and  C_37
REMARK                            x       y       z     vdW  Elec       q    Type
REMARK                         _______ _______ _______ _____ _____    ______ ____
ROOT
ATOM      1  C   UNL     1      -4.449  -5.472  -1.372  0.00  0.00    +0.182 A 
ATOM      2  N   UNL     1      -5.234  -5.189  -2.417  0.00  0.00    -0.195 NA
ATOM      3  C   UNL     1      -6.134  -6.120  -2.567  0.00  0.00    +0.228 A 
ATOM      4  O   UNL     1      -5.951  -7.038  -1.610  0.00  0.00    -0.338 OA
ATOM      5  N   UNL     1      -4.840  -6.596  -0.844  0.00  0.00    -0.060 NA
ENDROOT
BRANCH   1   6
ATOM      6  C   UNL     1      -3.296  -4.630  -0.887  0.00  0.00    +0.152 C 
BRANCH   6   7
ATOM      7  S   UNL     1      -1.775  -5.148  -1.728  0.00  0.00    -0.107 S 
BRANCH   7  13
ATOM      8  C   UNL     1      -1.703   1.123   1.820  0.00  0.00    +0.044 C 
ATOM      9  C   UNL     1      -1.369  -0.305   1.473  0.00  0.00    -0.045 A 
ATOM     10  C   UNL     1      -1.295  -0.655   0.173  0.00  0.00    +0.031 A 
ATOM     11  C   UNL     1      -0.970  -2.042  -0.186  0.00  0.00    +0.061 A 
ATOM     12  N   UNL     1      -0.834  -2.652  -1.329  0.00  0.00    -0.355 N 
ATOM     13  C   UNL     1      -0.501  -4.053  -1.044  0.00  0.00    +0.236 C 
ATOM     14  N   UNL     1      -0.460  -4.180   0.419  0.00  0.00    -0.355 N 
ATOM     15  C   UNL     1      -0.733  -3.010   0.920  0.00  0.00    +0.061 A 
ATOM     16  C   UNL     1      -0.840  -2.514   2.299  0.00  0.00    +0.031 A 
ATOM     17  C   UNL     1      -1.140  -1.218   2.518  0.00  0.00    -0.045 A 
ATOM     18  C   UNL     1      -1.240  -0.729   3.940  0.00  0.00    +0.044 C 
ATOM     19  H   UNL     1      -0.935  -2.253  -2.207  0.00  0.00    +0.162 HD
ATOM     20  H   UNL     1      -0.266  -4.987   0.920  0.00  0.00    +0.162 HD
ENDBRANCH   7  13
ENDBRANCH   6   7
ENDBRANCH   1   6
BRANCH   3  21
ATOM     21  C   UNL     1      -7.198  -6.156  -3.633  0.00  0.00    +0.108 C 
BRANCH  21  22
ATOM     22  C   UNL     1      -6.664  -6.895  -4.862  0.00  0.00    +0.105 C 
BRANCH  22  23
ATOM     23  C   UNL     1      -7.728  -6.931  -5.929  0.00  0.00    +0.214 C 
ATOM     24  O   UNL     1      -8.808  -6.417  -5.726  0.00  0.00    -0.276 OA
ATOM     25  N   UNL     1      -7.480  -7.535  -7.108  0.00  0.00    -0.302 N 
ATOM     26  H   UNL     1      -6.596  -7.886  -7.296  0.00  0.00    +0.150 HD
BRANCH  25  27
ATOM     27  C   UNL     1      -8.546  -7.661  -8.105  0.00  0.00    +0.148 C 
ATOM     28  C   UNL     1      -7.952  -7.790  -9.531  0.00  0.00    +0.126 C 
ATOM     29  C   UNL     1      -8.872  -7.095 -10.536  0.00  0.00    +0.021 C 
ATOM     30  C   UNL     1      -8.248  -6.997 -11.913  0.00  0.00    +0.006 C 
ATOM     31  C   UNL     1      -7.055  -6.041 -11.905  0.00  0.00    +0.000 C 
ATOM     32  C   UNL     1      -7.540  -4.657 -11.463  0.00  0.00    +0.001 C 
ATOM     33  C   UNL     1      -8.080  -4.755 -10.038  0.00  0.00    +0.014 C 
ATOM     34  C   UNL     1      -9.257  -5.699  -9.993  0.00  0.00    +0.053 C 
ATOM     35  S   UNL     1      -9.529  -6.109  -8.208  0.00  0.00    -0.134 S 
BRANCH  28  36
ATOM     36  C   UNL     1      -6.623  -7.158  -9.567  0.00  0.00    +0.069 C 
ATOM     37  N   UNL     1      -5.597  -6.671  -9.595  0.00  0.00    -0.196 NA
ENDBRANCH  28  36
ENDBRANCH  25  27
ENDBRANCH  22  23
ENDBRANCH  21  22
ENDBRANCH   3  21
TORSDOF 8
