REMARK  Name = ZINC14023460
REMARK  10 active torsions:
REMARK  status: ('A' for Active; 'I' for Inactive)
REMARK    1  A    between atoms: C_1  and  C_2
REMARK    2  A    between atoms: C_5  and  S_8
REMARK    3  A    between atoms: S_8  and  N_11
REMARK    4  A    between atoms: C_15  and  C_18
REMARK    5  A    between atoms: N_20  and  C_21
REMARK    6  A    between atoms: C_21  and  C_22
REMARK    7  A    between atoms: C_22  and  C_23
REMARK    8  A    between atoms: C_23  and  N_66
REMARK    9  A    between atoms: C_24  and  N_66
REMARK   10  A    between atoms: C_25  and  N_66
REMARK                            x       y       z     vdW  Elec       q    Type
REMARK                         _______ _______ _______ _____ _____    ______ ____
ROOT
ATOM      1  C   UNL     1      -0.034   4.387   4.106  0.00  0.00    +0.226 C 
ATOM      2  O   UNL     1      -0.111   5.409   3.458  0.00  0.00    -0.275 OA
ATOM      3  N   UNL     1      -0.093   4.435   5.452  0.00  0.00    -0.250 N 
ATOM      4  C   UNL     1       0.105   3.284   6.196  0.00  0.00    +0.168 A 
ATOM      5  N   UNL     1       0.203   3.152   7.498  0.00  0.00    -0.224 NA
ATOM      6  C   UNL     1       0.395   1.955   8.094  0.00  0.00    +0.080 A 
ATOM      7  C   UNL     1       0.512   1.676   9.476  0.00  0.00    +0.029 A 
ATOM      8  C   UNL     1       0.711   0.394   9.917  0.00  0.00    +0.002 A 
ATOM      9  C   UNL     1       0.804  -0.671   9.032  0.00  0.00    +0.001 A 
ATOM     10  C   UNL     1       0.694  -0.435   7.674  0.00  0.00    +0.017 A 
ATOM     11  C   UNL     1       0.495   0.846   7.223  0.00  0.00    +0.041 A 
ATOM     12  S   UNL     1       0.300   1.601   5.626  0.00  0.00    -0.052 S 
ENDROOT
BRANCH   1  17
ATOM     13  N   UNL     1       0.586   2.009   1.254  0.00  0.00    -0.176 NA
ATOM     14  C   UNL     1      -0.616   1.165   1.281  0.00  0.00    +0.109 C 
ATOM     15  C   UNL     1      -1.036   0.952   2.739  0.00  0.00    +0.018 C 
ATOM     16  C   UNL     1      -1.207   2.311   3.420  0.00  0.00    +0.015 C 
ATOM     17  C   UNL     1       0.127   3.062   3.406  0.00  0.00    +0.091 C 
ATOM     18  C   UNL     1       0.562   3.296   1.961  0.00  0.00    +0.122 C 
BRANCH  13  19
ATOM     19  S   UNL     1       1.946   1.514   0.447  0.00  0.00    +0.061 S 
ATOM     20  O   UNL     1       1.883   0.097   0.375  0.00  0.00    -0.153 OA
ATOM     21  O   UNL     1       3.041   2.199   1.040  0.00  0.00    -0.153 OA
BRANCH  19  26
ATOM     22  C   UNL     1       1.499   3.551  -5.215  0.00  0.00    +0.044 C 
ATOM     23  C   UNL     1       1.611   3.042  -3.801  0.00  0.00    -0.050 A 
ATOM     24  C   UNL     1       2.219   3.820  -2.833  0.00  0.00    +0.005 A 
ATOM     25  C   UNL     1       2.321   3.353  -1.535  0.00  0.00    +0.029 A 
ATOM     26  C   UNL     1       1.815   2.109  -1.206  0.00  0.00    +0.105 A 
ATOM     27  C   UNL     1       1.212   1.330  -2.176  0.00  0.00    +0.029 A 
ATOM     28  C   UNL     1       1.106   1.798  -3.472  0.00  0.00    +0.005 A 
ENDBRANCH  19  26
ENDBRANCH  13  19
ENDBRANCH   1  17
BRANCH   3  29
ATOM     29  C   UNL     1      -0.367   5.706   6.127  0.00  0.00    +0.114 C 
BRANCH  29  30
ATOM     30  C   UNL     1      -1.877   5.871   6.311  0.00  0.00    +0.001 C 
BRANCH  30  31
ATOM     31  C   UNL     1      -2.163   7.198   7.016  0.00  0.00    -0.078 C 
BRANCH  31  34
ATOM     32  C   UNL     1      -3.915   8.495   8.070  0.00  0.00    -0.097 C 
ATOM     33  C   UNL     1      -4.288   7.498   5.896  0.00  0.00    -0.097 C 
ATOM     34  N   UNL     1      -3.622   7.333   7.205  0.00  0.00    +0.376 N 
ATOM     35  H   UNL     1      -3.980   6.483   7.656  0.00  0.00    -0.083 HD
ENDBRANCH  31  34
ENDBRANCH  30  31
ENDBRANCH  29  30
ENDBRANCH   3  29
TORSDOF 7
