REMARK  Name = ZINC65136040
REMARK  10 active torsions:
REMARK  status: ('A' for Active; 'I' for Inactive)
REMARK    1  A    between atoms: C_1  and  C_2
REMARK    2  A    between atoms: C_2  and  C_3
REMARK    3  A    between atoms: C_2  and  C_4
REMARK    4  A    between atoms: C_4  and  C_5
REMARK    5  A    between atoms: C_5  and  N_6
REMARK    6  A    between atoms: N_9  and  N_10
REMARK    7  A    between atoms: C_11  and  C_13
REMARK    8  A    between atoms: C_18  and  S_19
REMARK    9  A    between atoms: S_19  and  C_20
REMARK   10  A    between atoms: C_20  and  C_21
REMARK                            x       y       z     vdW  Elec       q    Type
REMARK                         _______ _______ _______ _____ _____    ______ ____
ROOT
ATOM      1  N   UNL     1       4.108  -1.442  -4.667  0.00  0.00    -0.229 N 
ATOM      2  C   UNL     1       4.739  -1.877  -5.776  0.00  0.00    +0.261 C 
ATOM      3  O   UNL     1       5.922  -1.643  -5.934  0.00  0.00    -0.269 OA
ATOM      4  H   UNL     1       3.164  -1.629  -4.541  0.00  0.00    +0.173 HD
ENDROOT
BRANCH   1   8
ATOM      5  N   UNL     1       2.873  -0.545  -2.413  0.00  0.00    -0.298 N 
ATOM      6  C   UNL     1       4.184  -0.286  -2.587  0.00  0.00    +0.316 C 
ATOM      7  O   UNL     1       4.798   0.340  -1.745  0.00  0.00    -0.251 OA
ATOM      8  N   UNL     1       4.815  -0.721  -3.696  0.00  0.00    -0.218 N 
ATOM      9  H   UNL     1       2.384  -1.045  -3.085  0.00  0.00    +0.150 HD
ATOM     10  H   UNL     1       5.758  -0.534  -3.822  0.00  0.00    +0.174 HD
BRANCH   5  11
ATOM     11  C   UNL     1       2.187  -0.073  -1.207  0.00  0.00    +0.106 C 
BRANCH  11  12
ATOM     12  C   UNL     1       0.718  -0.497  -1.257  0.00  0.00    +0.022 C 
BRANCH  12  14
ATOM     13  C   UNL     1      -0.019   1.526   0.010  0.00  0.00    +0.007 C 
ATOM     14  C   UNL     1       0.002  -0.004   0.002  0.00  0.00    -0.016 C 
ATOM     15  C   UNL     1      -1.433  -0.534   0.013  0.00  0.00    +0.007 C 
ENDBRANCH  12  14
ENDBRANCH  11  12
ENDBRANCH   5  11
ENDBRANCH   1   8
BRANCH   2  16
ATOM     16  C   UNL     1       3.995  -2.636  -6.798  0.00  0.00    +0.052 A 
ATOM     17  C   UNL     1       2.634  -2.902  -6.623  0.00  0.00    +0.014 A 
ATOM     18  C   UNL     1       1.945  -3.612  -7.582  0.00  0.00    +0.001 A 
ATOM     19  C   UNL     1       2.593  -4.065  -8.720  0.00  0.00    +0.001 A 
ATOM     20  C   UNL     1       3.936  -3.811  -8.907  0.00  0.00    +0.015 A 
ATOM     21  C   UNL     1       4.648  -3.091  -7.955  0.00  0.00    +0.020 A 
BRANCH  21  22
ATOM     22  S   UNL     1       6.361  -2.757  -8.194  0.00  0.00    -0.119 S 
BRANCH  22  23
ATOM     23  C   UNL     1       6.739  -3.528  -9.792  0.00  0.00    +0.116 C 
BRANCH  23  24
ATOM     24  C   UNL     1       8.194  -3.313 -10.122  0.00  0.00    -0.000 A 
ATOM     25  C   UNL     1       9.261  -4.094  -9.822  0.00  0.00    +0.012 A 
ATOM     26  C   UNL     1      10.519  -3.695 -10.232  0.00  0.00    +0.008 A 
ATOM     27  C   UNL     1      10.649  -2.534 -10.921  0.00  0.00    +0.045 A 
ATOM     28  S   UNL     1       8.958  -1.970 -11.015  0.00  0.00    -0.101 S 
ENDBRANCH  23  24
ENDBRANCH  22  23
ENDBRANCH  21  22
ENDBRANCH   2  16
TORSDOF 8
