REMARK  Name = ZINC14017210
REMARK  7 active torsions:
REMARK  status: ('A' for Active; 'I' for Inactive)
REMARK    1  A    between atoms: C_1  and  C_2
REMARK    2  A    between atoms: C_12  and  C_14
REMARK    3  A    between atoms: C_14  and  C_16
REMARK    4  A    between atoms: C_14  and  O_17
REMARK    5  A    between atoms: O_17  and  C_18
REMARK    6  A    between atoms: C_18  and  C_20
REMARK    7  A    between atoms: C_25  and  N_26
REMARK                            x       y       z     vdW  Elec       q    Type
REMARK                         _______ _______ _______ _____ _____    ______ ____
ROOT
ATOM      1  C   UNL     1      -3.244   7.771   0.492  0.00  0.00    +0.090 A 
ATOM      2  C   UNL     1      -2.112   8.583   0.413  0.00  0.00    +0.018 A 
ATOM      3  C   UNL     1      -0.849   8.025   0.471  0.00  0.00    +0.013 A 
ATOM      4  C   UNL     1      -0.700   6.647   0.608  0.00  0.00    +0.035 A 
ATOM      5  C   UNL     1      -1.837   5.823   0.688  0.00  0.00    +0.064 A 
ATOM      6  C   UNL     1      -3.106   6.389   0.630  0.00  0.00    +0.152 A 
ATOM      7  C   UNL     1      -1.682   4.361   0.834  0.00  0.00    +0.197 C 
ATOM      8  O   UNL     1      -2.665   3.649   0.903  0.00  0.00    -0.287 OA
ATOM      9  C   UNL     1      -0.332   3.764   0.896  0.00  0.00    +0.033 A 
ATOM     10  C   UNL     1      -0.178   2.387   1.028  0.00  0.00    +0.012 A 
ATOM     11  C   UNL     1       1.090   1.837   1.091  0.00  0.00    +0.001 A 
ATOM     12  C   UNL     1       2.209   2.646   1.013  0.00  0.00    +0.001 A 
ATOM     13  C   UNL     1       2.075   4.017   0.875  0.00  0.00    +0.012 A 
ATOM     14  C   UNL     1       0.806   4.587   0.816  0.00  0.00    +0.033 A 
ATOM     15  C   UNL     1       0.653   6.049   0.670  0.00  0.00    +0.195 C 
ATOM     16  O   UNL     1       1.636   6.760   0.601  0.00  0.00    -0.287 OA
ENDROOT
BRANCH   6  17
ATOM     17  N   UNL     1      -4.307   5.527   0.713  0.00  0.00    +0.058 N 
ATOM     18  O   UNL     1      -4.803   5.277   1.797  0.00  0.00    -0.126 OA
ATOM     19  O   UNL     1      -4.800   5.069  -0.302  0.00  0.00    -0.126 OA
ENDBRANCH   6  17
BRANCH   1  20
ATOM     20  C   UNL     1      -4.593   8.376   0.431  0.00  0.00    +0.342 C 
ATOM     21  O   UNL     1      -5.579   7.670   0.500  0.00  0.00    -0.245 OA
BRANCH  20  22
ATOM     22  O   UNL     1      -4.727   9.710   0.298  0.00  0.00    -0.449 OA
BRANCH  22  23
ATOM     23  C   UNL     1      -6.080  10.234   0.244  0.00  0.00    +0.259 C 
ATOM     24  C   UNL     1      -6.554  10.275  -1.210  0.00  0.00    +0.062 C 
BRANCH  23  35
ATOM     25  C   UNL     1      -8.794  10.465   1.725  0.00  0.00    +0.029 C 
ATOM     26  C   UNL     1      -8.598  11.662   0.792  0.00  0.00    +0.083 C 
ATOM     27  C   UNL     1      -9.604  12.772   1.134  0.00  0.00    +0.059 C 
ATOM     28  C   UNL     1      -8.747  13.957   1.518  0.00  0.00    -0.024 A 
ATOM     29  C   UNL     1      -9.093  15.235   1.916  0.00  0.00    +0.005 A 
ATOM     30  C   UNL     1      -8.109  16.158   2.219  0.00  0.00    +0.000 A 
ATOM     31  C   UNL     1      -6.777  15.800   2.124  0.00  0.00    +0.002 A 
ATOM     32  C   UNL     1      -6.427  14.527   1.728  0.00  0.00    +0.024 A 
ATOM     33  C   UNL     1      -7.415  13.589   1.420  0.00  0.00    +0.040 A 
ATOM     34  N   UNL     1      -7.277  12.261   1.004  0.00  0.00    -0.265 N 
ATOM     35  C   UNL     1      -6.103  11.626   0.820  0.00  0.00    +0.261 C 
ATOM     36  O   UNL     1      -5.063  12.176   1.117  0.00  0.00    -0.271 OA
ENDBRANCH  23  35
ENDBRANCH  22  23
ENDBRANCH  20  22
ENDBRANCH   1  20
TORSDOF 5
