REMARK  Name = ZINC33051197
REMARK  9 active torsions:
REMARK  status: ('A' for Active; 'I' for Inactive)
REMARK    1  A    between atoms: C_1  and  C_2
REMARK    2  A    between atoms: C_6  and  N_9
REMARK    3  A    between atoms: C_7  and  C_8
REMARK    4  A    between atoms: C_15  and  C_41
REMARK    5  A    between atoms: N_17  and  C_35
REMARK    6  A    between atoms: C_24  and  C_26
REMARK    7  A    between atoms: C_29  and  N_32
REMARK    8  A    between atoms: N_32  and  C_33
REMARK    9  A    between atoms: N_32  and  C_34
REMARK                            x       y       z     vdW  Elec       q    Type
REMARK                         _______ _______ _______ _____ _____    ______ ____
ROOT
ATOM      1  N   UNL     1      -2.741  11.024  -0.782  0.00  0.00    -0.269 N 
ATOM      2  C   UNL     1      -3.349   9.924  -0.296  0.00  0.00    +0.308 C 
ATOM      3  O   UNL     1      -4.404  10.026   0.300  0.00  0.00    -0.252 OA
ATOM      4  N   UNL     1      -2.789   8.711  -0.471  0.00  0.00    -0.268 N 
ATOM      5  C   UNL     1      -1.505   8.538  -1.192  0.00  0.00    +0.151 C 
ATOM      6  C   UNL     1      -0.640   7.502  -0.536  0.00  0.00    +0.035 A 
ATOM      7  C   UNL     1       0.542   7.668   0.179  0.00  0.00    +0.067 A 
ATOM      8  N   UNL     1       0.980   6.484   0.536  0.00  0.00    -0.169 NA
ATOM      9  N   UNL     1       0.088   5.514   0.048  0.00  0.00    -0.215 N 
ATOM     10  C   UNL     1      -0.910   6.163  -0.579  0.00  0.00    +0.146 A 
ATOM     11  N   UNL     1      -2.092   5.693  -1.162  0.00  0.00    -0.303 N 
ATOM     12  C   UNL     1      -2.308   4.656  -2.003  0.00  0.00    +0.093 A 
ATOM     13  C   UNL     1      -3.616   4.664  -2.346  0.00  0.00    +0.020 A 
ATOM     14  C   UNL     1      -4.227   5.740  -1.666  0.00  0.00    +0.025 A 
ATOM     15  C   UNL     1      -3.280   6.339  -0.926  0.00  0.00    +0.050 A 
ATOM     16  C   UNL     1      -3.420   7.475   0.044  0.00  0.00    +0.155 C 
ATOM     17  C   UNL     1       1.202   8.985   0.496  0.00  0.00    +0.068 C 
ATOM     18  H   UNL     1      -1.820  10.927  -1.375  0.00  0.00    +0.156 HD
ENDROOT
BRANCH   1  24
ATOM     19  C   UNL     1      -2.103  15.874  -0.287  0.00  0.00    +0.044 C 
ATOM     20  C   UNL     1      -2.994  14.659  -0.285  0.00  0.00    -0.046 A 
ATOM     21  C   UNL     1      -4.348  14.795  -0.034  0.00  0.00    +0.004 A 
ATOM     22  C   UNL     1      -5.168  13.682  -0.031  0.00  0.00    +0.002 A 
ATOM     23  C   UNL     1      -4.639  12.431  -0.279  0.00  0.00    +0.023 A 
ATOM     24  C   UNL     1      -3.280  12.291  -0.531  0.00  0.00    +0.038 A 
ATOM     25  C   UNL     1      -2.458  13.410  -0.528  0.00  0.00    -0.026 A 
ATOM     26  C   UNL     1      -0.982  13.262  -0.795  0.00  0.00    +0.046 C 
ENDBRANCH   1  24
BRANCH  16  27
ATOM     27  C   UNL     1      -2.764   7.094   1.346  0.00  0.00    -0.021 A 
ATOM     28  C   UNL     1      -2.741   5.770   1.746  0.00  0.00    +0.007 A 
ATOM     29  C   UNL     1      -2.135   5.417   2.936  0.00  0.00    +0.023 A 
ATOM     30  C   UNL     1      -1.559   6.395   3.736  0.00  0.00    +0.029 A 
ATOM     31  C   UNL     1      -1.589   7.724   3.335  0.00  0.00    +0.023 A 
ATOM     32  C   UNL     1      -2.191   8.070   2.141  0.00  0.00    +0.007 A 
BRANCH  30  33
ATOM     33  N   UNL     1      -0.950   6.042   4.943  0.00  0.00    -0.336 N 
ATOM     34  C   UNL     1      -0.342   7.074   5.786  0.00  0.00    +0.129 C 
ATOM     35  C   UNL     1      -0.919   4.639   5.365  0.00  0.00    +0.129 C 
ENDBRANCH  30  33
ENDBRANCH  16  27
BRANCH   9  36
ATOM     36  C   UNL     1       0.211   4.125   0.194  0.00  0.00    +0.068 A 
ATOM     37  C   UNL     1       1.467   3.532   0.168  0.00  0.00    +0.028 A 
ATOM     38  C   UNL     1       1.585   2.163   0.312  0.00  0.00    +0.002 A 
ATOM     39  C   UNL     1       0.456   1.384   0.482  0.00  0.00    +0.000 A 
ATOM     40  C   UNL     1      -0.796   1.971   0.502  0.00  0.00    +0.002 A 
ATOM     41  C   UNL     1      -0.921   3.340   0.364  0.00  0.00    +0.028 A 
ENDBRANCH   9  36
TORSDOF 4
