REMARK  Name = ZINC09880764
REMARK  10 active torsions:
REMARK  status: ('A' for Active; 'I' for Inactive)
REMARK    1  A    between atoms: C_1  and  C_2
REMARK    2  A    between atoms: C_2  and  C_3
REMARK    3  A    between atoms: C_2  and  C_4
REMARK    4  A    between atoms: C_2  and  N_5
REMARK    5  A    between atoms: C_9  and  C_11
REMARK    6  A    between atoms: C_11  and  S_12
REMARK    7  A    between atoms: S_12  and  C_13
REMARK    8  A    between atoms: C_16  and  C_25
REMARK    9  A    between atoms: N_17  and  C_18
REMARK   10  A    between atoms: C_25  and  N_60
REMARK                            x       y       z     vdW  Elec       q    Type
REMARK                         _______ _______ _______ _____ _____    ______ ____
ROOT
ATOM      1  C   UNL     1       6.231   1.117   2.094  0.00  0.00    +0.197 A 
ATOM      2  N   UNL     1       6.413   0.042   1.363  0.00  0.00    -0.122 NA
ATOM      3  N   UNL     1       5.366  -0.703   1.412  0.00  0.00    -0.135 NA
ATOM      4  C   UNL     1       4.456  -0.149   2.163  0.00  0.00    +0.122 A 
ATOM      5  N   UNL     1       4.975   1.030   2.629  0.00  0.00    -0.276 N 
ENDROOT
BRANCH   5   6
ATOM      6  C   UNL     1       4.348   1.956   3.477  0.00  0.00    +0.050 A 
ATOM      7  C   UNL     1       3.247   2.672   3.031  0.00  0.00    +0.029 A 
ATOM      8  C   UNL     1       2.629   3.580   3.869  0.00  0.00    +0.040 A 
ATOM      9  C   UNL     1       3.114   3.781   5.151  0.00  0.00    +0.124 A 
ATOM     10  C   UNL     1       4.216   3.071   5.596  0.00  0.00    +0.040 A 
ATOM     11  C   UNL     1       4.833   2.160   4.762  0.00  0.00    +0.029 A 
ATOM     12  F   UNL     1       2.511   4.673   5.967  0.00  0.00    -0.205 F 
ENDBRANCH   5   6
BRANCH   1  13
ATOM     13  S   UNL     1       7.386   2.425   2.339  0.00  0.00    -0.076 S 
BRANCH  13  14
ATOM     14  C   UNL     1       8.764   1.821   1.333  0.00  0.00    +0.173 C 
BRANCH  14  19
ATOM     15  N   UNL     1      13.197   3.206   0.092  0.00  0.00    -0.294 N 
ATOM     16  C   UNL     1      12.057   3.448   0.770  0.00  0.00    +0.306 C 
ATOM     17  O   UNL     1      11.947   4.463   1.430  0.00  0.00    -0.252 OA
ATOM     18  N   UNL     1      11.040   2.565   0.716  0.00  0.00    -0.239 N 
ATOM     19  C   UNL     1       9.901   2.808   1.393  0.00  0.00    +0.231 C 
ATOM     20  O   UNL     1       9.791   3.820   2.052  0.00  0.00    -0.274 OA
ATOM     21  H   UNL     1      13.285   2.396  -0.435  0.00  0.00    +0.151 HD
ATOM     22  H   UNL     1      11.128   1.756   0.189  0.00  0.00    +0.159 HD
BRANCH  15  24
ATOM     23  C   UNL     1      14.762   4.325   1.601  0.00  0.00    +0.031 C 
ATOM     24  C   UNL     1      14.302   4.165   0.151  0.00  0.00    +0.028 C 
ATOM     25  C   UNL     1      15.467   3.654  -0.700  0.00  0.00    +0.031 C 
ATOM     26  C   UNL     1      13.832   5.518  -0.388  0.00  0.00    +0.031 C 
ENDBRANCH  15  24
ENDBRANCH  14  19
ENDBRANCH  13  14
ENDBRANCH   1  13
BRANCH   4  27
ATOM     27  C   UNL     1       3.089  -0.706   2.468  0.00  0.00    -0.001 C 
BRANCH  27  33
ATOM     28  C   UNL     1       1.779  -1.678   4.256  0.00  0.00    -0.078 C 
ATOM     29  C   UNL     1       1.866  -2.316   5.644  0.00  0.00    -0.019 C 
ATOM     30  C   UNL     1       2.632  -3.638   5.546  0.00  0.00    -0.004 C 
ATOM     31  C   UNL     1       4.021  -3.371   4.959  0.00  0.00    -0.019 C 
ATOM     32  C   UNL     1       3.871  -2.703   3.590  0.00  0.00    -0.078 C 
ATOM     33  N   UNL     1       3.147  -1.425   3.757  0.00  0.00    +0.384 N 
ATOM     34  H   UNL     1       3.649  -0.845   4.440  0.00  0.00    -0.081 HD
ENDBRANCH  27  33
ENDBRANCH   4  27
TORSDOF 7
