REMARK  Name = ZINC36575575
REMARK  17 active torsions:
REMARK  status: ('A' for Active; 'I' for Inactive)
REMARK    1  A    between atoms: C_1  and  C_2
REMARK    2  A    between atoms: C_2  and  C_3
REMARK    3  A    between atoms: C_3  and  N_4
REMARK    4  A    between atoms: N_4  and  C_5
REMARK    5  A    between atoms: C_5  and  C_7
REMARK    6  A    between atoms: C_5  and  C_16
REMARK    7  A    between atoms: N_18  and  C_19
REMARK    8  A    between atoms: C_19  and  C_20
REMARK    9  A    between atoms: C_19  and  C_21
REMARK   10  A    between atoms: C_19  and  C_22
REMARK   11  A    between atoms: C_22  and  C_23
REMARK   12  A    between atoms: C_23  and  C_24
REMARK   13  A    between atoms: C_23  and  C_25
REMARK   14  A    between atoms: C_23  and  C_26
REMARK   15  A    between atoms: C_27  and  C_29
REMARK   16  A    between atoms: C_29  and  N_30
REMARK   17  A    between atoms: C_31  and  C_33
REMARK                            x       y       z     vdW  Elec       q    Type
REMARK                         _______ _______ _______ _____ _____    ______ ____
ROOT
ATOM      1  C   UNL     1       2.724  -2.760   1.206  0.00  0.00    +0.192 C 
ENDROOT
BRANCH   1   2
ATOM      2  C   UNL     1       2.234  -3.380  -0.076  0.00  0.00    -0.015 A 
ATOM      3  C   UNL     1       1.730  -2.577  -1.082  0.00  0.00    +0.010 A 
ATOM      4  C   UNL     1       1.279  -3.141  -2.261  0.00  0.00    +0.050 A 
ATOM      5  C   UNL     1       1.333  -4.514  -2.437  0.00  0.00    +0.166 A 
ATOM      6  C   UNL     1       1.841  -5.324  -1.424  0.00  0.00    +0.167 A 
ATOM      7  C   UNL     1       2.296  -4.750  -0.247  0.00  0.00    +0.055 A 
ATOM      8  O   UNL     1       1.788  -6.624  -1.836  0.00  0.00    -0.453 OA
ATOM      9  C   UNL     1       0.867  -6.639  -2.942  0.00  0.00    +0.466 C 
ATOM     10  O   UNL     1       0.961  -5.308  -3.484  0.00  0.00    -0.453 OA
ENDBRANCH   1   2
BRANCH   1  11
ATOM     11  C   UNL     1       4.160  -2.334   1.042  0.00  0.00    +0.238 C 
ATOM     12  O   UNL     1       4.532  -1.269   1.488  0.00  0.00    -0.273 OA
ATOM     13  N   UNL     1       5.032  -3.138   0.401  0.00  0.00    -0.308 N 
ATOM     14  H   UNL     1       4.735  -3.990   0.045  0.00  0.00    +0.149 HD
BRANCH  13  15
ATOM     15  C   UNL     1       6.428  -2.724   0.242  0.00  0.00    +0.030 C 
ATOM     16  C   UNL     1       6.497  -1.506  -0.681  0.00  0.00    +0.031 C 
ATOM     17  C   UNL     1       7.012  -2.362   1.609  0.00  0.00    +0.031 C 
BRANCH  15  18
ATOM     18  C   UNL     1       7.234  -3.873  -0.369  0.00  0.00    +0.031 C 
BRANCH  18  19
ATOM     19  C   UNL     1       6.663  -5.208   0.112  0.00  0.00    -0.036 C 
ATOM     20  C   UNL     1       5.477  -5.603  -0.771  0.00  0.00    +0.010 C 
ATOM     21  C   UNL     1       7.745  -6.287   0.024  0.00  0.00    +0.010 C 
ATOM     22  C   UNL     1       6.196  -5.071   1.562  0.00  0.00    +0.010 C 
ENDBRANCH  18  19
ENDBRANCH  15  18
ENDBRANCH  13  15
ENDBRANCH   1  11
BRANCH   1  23
ATOM     23  N   UNL     1       1.902  -1.590   1.528  0.00  0.00    -0.285 N 
ATOM     24  C   UNL     1       0.603  -1.748   1.851  0.00  0.00    +0.234 C 
ATOM     25  O   UNL     1       0.115  -2.858   1.874  0.00  0.00    -0.274 OA
BRANCH  23  26
ATOM     26  C   UNL     1       2.493  -0.250   1.500  0.00  0.00    +0.108 C 
BRANCH  26  28
ATOM     27  C   UNL     1       3.467   1.519   0.028  0.00  0.00    +0.005 C 
ATOM     28  C   UNL     1       2.890   0.102   0.065  0.00  0.00    +0.016 C 
ENDBRANCH  26  28
ENDBRANCH  23  26
BRANCH  24  29
ATOM     29  C   UNL     1      -0.242  -0.545   2.182  0.00  0.00    +0.200 C 
BRANCH  29  30
ATOM     30  N   UNL     1      -1.606  -0.978   2.495  0.00  0.00    -0.303 N 
ATOM     31  C   UNL     1      -2.544  -0.068   2.823  0.00  0.00    +0.244 C 
ATOM     32  O   UNL     1      -2.258   1.113   2.859  0.00  0.00    -0.270 OA
ATOM     33  H   UNL     1      -1.834  -1.921   2.467  0.00  0.00    +0.150 HD
BRANCH  31  34
ATOM     34  C   UNL     1      -3.920  -0.505   3.140  0.00  0.00    +0.037 A 
ATOM     35  C   UNL     1      -4.250  -1.860   3.106  0.00  0.00    +0.013 A 
ATOM     36  C   UNL     1      -5.537  -2.262   3.402  0.00  0.00    +0.001 A 
ATOM     37  C   UNL     1      -6.498  -1.323   3.733  0.00  0.00    +0.000 A 
ATOM     38  C   UNL     1      -6.178   0.022   3.768  0.00  0.00    +0.001 A 
ATOM     39  C   UNL     1      -4.894   0.436   3.480  0.00  0.00    +0.013 A 
ENDBRANCH  31  34
ENDBRANCH  29  30
ENDBRANCH  24  29
ENDBRANCH   1  23
TORSDOF 11
