REMARK  Name = ZINC11538987
REMARK  12 active torsions:
REMARK  status: ('A' for Active; 'I' for Inactive)
REMARK    1  A    between atoms: C_1  and  C_2
REMARK    2  A    between atoms: C_2  and  C_3
REMARK    3  A    between atoms: C_3  and  O_4
REMARK    4  A    between atoms: O_4  and  C_5
REMARK    5  A    between atoms: C_8  and  N_15
REMARK    6  A    between atoms: C_10  and  O_11
REMARK    7  A    between atoms: O_11  and  C_12
REMARK    8  A    between atoms: C_12  and  C_13
REMARK    9  A    between atoms: C_13  and  C_14
REMARK   10  A    between atoms: N_20  and  C_23
REMARK   11  A    between atoms: C_23  and  C_24
REMARK   12  A    between atoms: C_29  and  C_34
REMARK                            x       y       z     vdW  Elec       q    Type
REMARK                         _______ _______ _______ _____ _____    ______ ____
ROOT
ATOM      1  N   UNL     1      -1.438   8.339  -3.294  0.00  0.00    -0.186 N 
ATOM      2  C   UNL     1      -2.657   8.014  -2.809  0.00  0.00    +0.314 C 
ATOM      3  O   UNL     1      -3.717   8.062  -3.396  0.00  0.00    -0.264 OA
ATOM      4  C   UNL     1      -2.421   7.583  -1.393  0.00  0.00    +0.310 C 
ATOM      5  O   UNL     1      -3.251   7.208  -0.592  0.00  0.00    -0.264 OA
ATOM      6  N   UNL     1      -1.090   7.700  -1.198  0.00  0.00    -0.212 N 
ATOM      7  C   UNL     1      -0.524   8.153  -2.328  0.00  0.00    +0.323 C 
ATOM      8  O   UNL     1       0.665   8.365  -2.462  0.00  0.00    -0.251 OA
ENDROOT
BRANCH   1  12
ATOM      9  C   UNL     1      -0.642   9.710  -7.155  0.00  0.00    +0.162 A 
ATOM     10  C   UNL     1       0.393   9.554  -6.247  0.00  0.00    +0.051 A 
ATOM     11  C   UNL     1       0.129   9.101  -4.968  0.00  0.00    +0.028 A 
ATOM     12  C   UNL     1      -1.173   8.800  -4.592  0.00  0.00    +0.050 A 
ATOM     13  C   UNL     1      -2.211   8.949  -5.501  0.00  0.00    +0.073 A 
ATOM     14  C   UNL     1      -1.948   9.409  -6.780  0.00  0.00    +0.164 A 
BRANCH   9  15
ATOM     15  O   UNL     1      -0.381  10.155  -8.414  0.00  0.00    -0.488 OA
BRANCH  15  16
ATOM     16  C   UNL     1       0.983  10.444  -8.730  0.00  0.00    +0.229 C 
BRANCH  16  18
ATOM     17  C   UNL     1       2.539  11.238 -10.516  0.00  0.00    +0.007 C 
ATOM     18  C   UNL     1       1.079  10.929 -10.178  0.00  0.00    +0.038 C 
ENDBRANCH  16  18
ENDBRANCH  15  16
ENDBRANCH   9  15
BRANCH  14  19
ATOM     19  O   UNL     1      -2.964   9.561  -7.672  0.00  0.00    -0.488 OA
BRANCH  19  20
ATOM     20  C   UNL     1      -4.279   9.234  -7.218  0.00  0.00    +0.229 C 
BRANCH  20  21
ATOM     21  C   UNL     1      -5.281   9.466  -8.350  0.00  0.00    +0.038 C 
ATOM     22  C   UNL     1      -6.689   9.116  -7.865  0.00  0.00    +0.007 C 
ENDBRANCH  20  21
ENDBRANCH  19  20
ENDBRANCH  14  19
ENDBRANCH   1  12
BRANCH   6  23
ATOM     23  C   UNL     1      -0.380   7.390   0.045  0.00  0.00    +0.174 C 
BRANCH  23  24
ATOM     24  C   UNL     1       0.046   5.944   0.033  0.00  0.00    +0.067 A 
ATOM     25  C   UNL     1       1.383   5.607   0.018  0.00  0.00    +0.095 A 
ATOM     26  C   UNL     1       1.758   4.263   0.008  0.00  0.00    +0.259 A 
ATOM     27  O   UNL     1       2.940   3.959  -0.005  0.00  0.00    -0.267 OA
ATOM     28  N   UNL     1       0.800   3.288   0.012  0.00  0.00    -0.259 N 
ATOM     29  C   UNL     1       1.010   1.930   0.003  0.00  0.00    +0.033 A 
ATOM     30  C   UNL     1      -0.013   1.076   0.008  0.00  0.00    +0.070 A 
ATOM     31  S   UNL     1      -1.414   2.183   0.019  0.00  0.00    -0.057 S 
ATOM     32  C   UNL     1      -0.502   3.711   0.026  0.00  0.00    +0.180 A 
ATOM     33  N   UNL     1      -0.861   4.971   0.036  0.00  0.00    -0.226 NA
ATOM     34  C   UNL     1       2.420   1.398  -0.014  0.00  0.00    +0.064 C 
ENDBRANCH  23  24
ENDBRANCH   6  23
TORSDOF 9
