REMARK  Name = ZINC36737277
REMARK  9 active torsions:
REMARK  status: ('A' for Active; 'I' for Inactive)
REMARK    1  A    between atoms: C_1  and  C_2
REMARK    2  A    between atoms: C_2  and  C_3
REMARK    3  A    between atoms: C_3  and  C_4
REMARK    4  A    between atoms: C_4  and  C_5
REMARK    5  A    between atoms: C_5  and  C_7
REMARK    6  A    between atoms: C_5  and  C_9
REMARK    7  A    between atoms: C_7  and  C_8
REMARK    8  A    between atoms: N_11  and  C_12
REMARK    9  A    between atoms: C_13  and  N_20
REMARK                            x       y       z     vdW  Elec       q    Type
REMARK                         _______ _______ _______ _____ _____    ______ ____
ROOT
ATOM      1  C   UNL     1       2.387  -4.213  -2.735  0.00  0.00    +0.220 C 
ATOM      2  O   UNL     1       2.360  -4.956  -1.776  0.00  0.00    -0.275 OA
ATOM      3  N   UNL     1       2.578  -4.714  -3.971  0.00  0.00    -0.283 N 
ATOM      4  H   UNL     1       2.521  -4.132  -4.745  0.00  0.00    +0.155 HD
ENDROOT
BRANCH   3   5
ATOM      5  C   UNL     1       2.860  -6.078  -4.139  0.00  0.00    +0.068 A 
ATOM      6  C   UNL     1       3.984  -6.475  -4.862  0.00  0.00    +0.048 A 
ATOM      7  C   UNL     1       4.258  -7.825  -5.024  0.00  0.00    +0.040 A 
ATOM      8  C   UNL     1       3.417  -8.773  -4.470  0.00  0.00    +0.021 A 
ATOM      9  C   UNL     1       2.302  -8.379  -3.752  0.00  0.00    +0.032 A 
ATOM     10  C   UNL     1       2.025  -7.034  -3.581  0.00  0.00    +0.042 A 
ATOM     11 BR   UNL     1       0.504  -6.501  -2.592  0.00  0.00    -0.048 Br
ATOM     12 BR   UNL     1       3.793 -10.613  -4.693  0.00  0.00    -0.050 Br
BRANCH   6  13
ATOM     13  N   UNL     1       4.833  -5.515  -5.423  0.00  0.00    -0.356 N 
ATOM     14  H   UNL     1       4.640  -4.571  -5.309  0.00  0.00    +0.142 HD
ATOM     15  H   UNL     1       5.614  -5.793  -5.926  0.00  0.00    +0.142 HD
ENDBRANCH   6  13
ENDBRANCH   3   5
BRANCH   1  16
ATOM     16  C   UNL     1       2.207  -2.729  -2.543  0.00  0.00    +0.075 C 
BRANCH  16  17
ATOM     17  C   UNL     1       3.576  -2.064  -2.390  0.00  0.00    +0.009 C 
ATOM     18  C   UNL     1       4.261  -2.592  -1.128  0.00  0.00    +0.004 C 
ENDBRANCH  16  17
BRANCH  16  19
ATOM     19  C   UNL     1       1.374  -2.475  -1.284  0.00  0.00    +0.013 C 
BRANCH  19  20
ATOM     20  C   UNL     1       1.085  -0.978  -1.158  0.00  0.00    +0.000 C 
BRANCH  20  22
ATOM     21  C   UNL     1      -0.036   0.773   0.227  0.00  0.00    +0.004 C 
ATOM     22  C   UNL     1       0.252  -0.724   0.100  0.00  0.00    -0.003 C 
ENDBRANCH  20  22
ENDBRANCH  19  20
ENDBRANCH  16  19
ENDBRANCH   1  16
TORSDOF 7
