REMARK  Name = ZINC62203324
REMARK  3 active torsions:
REMARK  status: ('A' for Active; 'I' for Inactive)
REMARK    1  A    between atoms: C_1  and  C_2
REMARK    2  A    between atoms: C_12  and  N_17
REMARK    3  A    between atoms: C_14  and  C_16
REMARK                            x       y       z     vdW  Elec       q    Type
REMARK                         _______ _______ _______ _____ _____    ______ ____
ROOT
ATOM      1  C   UNL     1      -0.018   1.503   0.010  0.00  0.00    +0.046 C 
ATOM      2  C   UNL     1       0.002  -0.004   0.002  0.00  0.00    -0.023 A 
ATOM      3  C   UNL     1       0.006  -0.675  -1.193  0.00  0.00    +0.025 A 
ATOM      4  C   UNL     1       0.025  -2.062  -1.246  0.00  0.00    +0.042 A 
ATOM      5  C   UNL     1       0.041  -2.785  -0.066  0.00  0.00    +0.037 A 
ATOM      6  C   UNL     1       0.037  -2.121   1.135  0.00  0.00    +0.043 A 
ATOM      7  C   UNL     1       0.023  -0.710   1.227  0.00  0.00    +0.084 A 
ATOM      8  N   UNL     1       0.028  -0.205   2.480  0.00  0.00    -0.221 NA
ATOM      9  C   UNL     1       0.049  -0.968   3.547  0.00  0.00    +0.196 A 
ATOM     10  S   UNL     1       0.052  -2.610   2.843  0.00  0.00    -0.048 S 
ATOM     11  N   UNL     1       0.056  -0.593   4.886  0.00  0.00    -0.194 N 
ATOM     12  C   UNL     1       0.083  -1.437   5.956  0.00  0.00    +0.122 A 
ATOM     13  C   UNL     1       0.081  -0.668   7.080  0.00  0.00    +0.068 A 
ATOM     14  C   UNL     1       0.051   0.672   6.684  0.00  0.00    +0.062 A 
ATOM     15  N   UNL     1       0.043   0.719   5.376  0.00  0.00    -0.168 NA
ATOM     16  C   UNL     1       0.039   1.863   7.607  0.00  0.00    +0.067 C 
ATOM     17 CL   UNL     1       0.028  -2.882  -2.776  0.00  0.00    -0.083 Cl
ENDROOT
BRANCH  12  18
ATOM     18  N   UNL     1       0.108  -2.826   5.909  0.00  0.00    -0.343 N 
ATOM     19  H   UNL     1       0.107  -3.282   5.053  0.00  0.00    +0.144 HD
ATOM     20  H   UNL     1       0.127  -3.339   6.732  0.00  0.00    +0.144 HD
ENDBRANCH  12  18
TORSDOF 1
