REMARK  Name = ZINC04828412
REMARK  7 active torsions:
REMARK  status: ('A' for Active; 'I' for Inactive)
REMARK    1  A    between atoms: C_1  and  C_2
REMARK    2  A    between atoms: C_2  and  C_4
REMARK    3  A    between atoms: C_2  and  S_19
REMARK    4  A    between atoms: N_6  and  C_7
REMARK    5  A    between atoms: C_12  and  C_13
REMARK    6  A    between atoms: S_19  and  C_20
REMARK    7  A    between atoms: C_23  and  C_25
REMARK                            x       y       z     vdW  Elec       q    Type
REMARK                         _______ _______ _______ _____ _____    ______ ____
ROOT
ATOM      1  C   UNL     1       3.615  -2.795  -2.728  0.00  0.00    +0.230 C 
ATOM      2  O   UNL     1       3.635  -4.007  -2.733  0.00  0.00    -0.274 OA
ATOM      3  N   UNL     1       2.786  -2.138  -1.893  0.00  0.00    -0.284 N 
ATOM      4  H   UNL     1       2.722  -1.171  -1.935  0.00  0.00    +0.155 HD
ENDROOT
BRANCH   3   5
ATOM      5  C   UNL     1       2.020  -2.850  -0.966  0.00  0.00    +0.041 A 
ATOM      6  C   UNL     1       1.521  -4.103  -1.291  0.00  0.00    +0.024 A 
ATOM      7  C   UNL     1       0.765  -4.805  -0.373  0.00  0.00    +0.002 A 
ATOM      8  C   UNL     1       0.500  -4.265   0.874  0.00  0.00    +0.001 A 
ATOM      9  C   UNL     1       0.994  -3.022   1.212  0.00  0.00    +0.010 A 
ATOM     10  C   UNL     1       1.753  -2.302   0.294  0.00  0.00    +0.003 A 
BRANCH  10  11
ATOM     11  C   UNL     1       2.282  -0.963   0.651  0.00  0.00    -0.016 A 
ATOM     12  C   UNL     1       1.433   0.005   1.185  0.00  0.00    +0.008 A 
ATOM     13  C   UNL     1       1.931   1.249   1.516  0.00  0.00    +0.001 A 
ATOM     14  C   UNL     1       3.270   1.536   1.319  0.00  0.00    +0.000 A 
ATOM     15  C   UNL     1       4.117   0.579   0.790  0.00  0.00    +0.001 A 
ATOM     16  C   UNL     1       3.630  -0.668   0.455  0.00  0.00    +0.008 A 
ENDBRANCH  10  11
ENDBRANCH   3   5
BRANCH   1  18
ATOM     17  C   UNL     1       3.715  -1.559  -4.876  0.00  0.00    +0.029 C 
ATOM     18  C   UNL     1       4.515  -2.022  -3.658  0.00  0.00    +0.139 C 
BRANCH  18  19
ATOM     19  S   UNL     1       5.878  -3.084  -4.199  0.00  0.00    -0.053 S 
BRANCH  19  20
ATOM     20  C   UNL     1       6.826  -1.920  -5.119  0.00  0.00    +0.278 A 
ATOM     21  N   UNL     1       6.533  -0.654  -5.306  0.00  0.00    -0.101 NA
ATOM     22  N   UNL     1       7.448  -0.103  -6.024  0.00  0.00    -0.103 NA
ATOM     23  C   UNL     1       8.358  -0.998  -6.333  0.00  0.00    +0.284 A 
ATOM     24  O   UNL     1       7.983  -2.167  -5.765  0.00  0.00    -0.408 OA
BRANCH  23  25
ATOM     25  C   UNL     1       9.562  -0.772  -7.145  0.00  0.00    +0.191 A 
ATOM     26  C   UNL     1       9.934   0.410  -7.713  0.00  0.00    +0.055 A 
ATOM     27  C   UNL     1      11.143   0.170  -8.394  0.00  0.00    +0.042 A 
ATOM     28  C   UNL     1      11.448  -1.130  -8.211  0.00  0.00    +0.196 A 
ATOM     29  O   UNL     1      10.495  -1.695  -7.452  0.00  0.00    -0.458 OA
ENDBRANCH  23  25
ENDBRANCH  19  20
ENDBRANCH  18  19
ENDBRANCH   1  18
TORSDOF 6
