REMARK  Name = ZINC63572335
REMARK  6 active torsions:
REMARK  status: ('A' for Active; 'I' for Inactive)
REMARK    1  A    between atoms: C_1  and  C_2
REMARK    2  A    between atoms: C_2  and  C_3
REMARK    3  A    between atoms: C_2  and  N_4
REMARK    4  A    between atoms: C_20  and  C_22
REMARK    5  A    between atoms: C_25  and  O_28
REMARK    6  A    between atoms: O_28  and  C_29
REMARK                            x       y       z     vdW  Elec       q    Type
REMARK                         _______ _______ _______ _____ _____    ______ ____
ROOT
ATOM      1  N   UNL     1       0.735  -0.402  -1.117  0.00  0.00    -0.297 N 
ATOM      2  C   UNL     1       2.075  -0.547  -1.159  0.00  0.00    +0.303 C 
ATOM      3  O   UNL     1       2.754  -0.202  -0.212  0.00  0.00    -0.253 OA
ATOM      4  N   UNL     1       2.661  -1.074  -2.252  0.00  0.00    -0.276 N 
ATOM      5  C   UNL     1       1.849  -1.377  -3.436  0.00  0.00    +0.114 C 
ATOM      6  C   UNL     1       1.990  -2.870  -3.786  0.00  0.00    +0.052 C 
ATOM      7  C   UNL     1       3.461  -3.196  -3.707  0.00  0.00    -0.035 C 
ATOM      8  C   UNL     1       4.278  -3.782  -4.573  0.00  0.00    +0.001 A 
ATOM      9  C   UNL     1       4.030  -4.423  -5.875  0.00  0.00    +0.030 A 
ATOM     10  C   UNL     1       5.122  -4.914  -6.519  0.00  0.00    +0.042 A 
ATOM     11  C   UNL     1       6.421  -4.832  -6.005  0.00  0.00    +0.022 A 
ATOM     12  C   UNL     1       6.739  -4.267  -4.813  0.00  0.00    +0.027 A 
ATOM     13  C   UNL     1       5.673  -3.723  -4.039  0.00  0.00    +0.043 A 
ATOM     14  N   UNL     1       5.688  -3.154  -2.870  0.00  0.00    -0.375 N 
ATOM     15  C   UNL     1       4.310  -2.839  -2.492  0.00  0.00    +0.131 C 
ATOM     16  C   UNL     1       4.109  -1.335  -2.248  0.00  0.00    +0.134 C 
ATOM     17 CL   UNL     1       4.893  -5.682  -8.059  0.00  0.00    -0.084 Cl
ATOM     18  H   UNL     1       0.200  -0.608  -1.899  0.00  0.00    +0.150 HD
ATOM     19  H   UNL     1       6.478  -2.969  -2.339  0.00  0.00    +0.160 HD
ENDROOT
BRANCH  16  20
ATOM     20  C   UNL     1       4.774  -0.543  -3.344  0.00  0.00    -0.024 A 
ATOM     21  C   UNL     1       5.793   0.339  -3.037  0.00  0.00    +0.009 A 
ATOM     22  C   UNL     1       6.404   1.067  -4.040  0.00  0.00    +0.046 A 
ATOM     23  C   UNL     1       5.994   0.911  -5.356  0.00  0.00    +0.120 A 
ATOM     24  C   UNL     1       4.971   0.025  -5.661  0.00  0.00    +0.046 A 
ATOM     25  C   UNL     1       4.367  -0.704  -4.655  0.00  0.00    +0.009 A 
BRANCH  23  26
ATOM     26  O   UNL     1       6.593   1.626  -6.344  0.00  0.00    -0.495 OA
ATOM     27  C   UNL     1       6.119   1.415  -7.676  0.00  0.00    +0.277 C 
ENDBRANCH  23  26
ENDBRANCH  16  20
BRANCH   1  29
ATOM     28  C   UNL     1       0.108   1.597   0.145  0.00  0.00    +0.027 C 
ATOM     29  C   UNL     1       0.088   0.068   0.111  0.00  0.00    +0.068 C 
ATOM     30  C   UNL     1      -1.360  -0.424   0.144  0.00  0.00    +0.027 C 
ENDBRANCH   1  29
TORSDOF 3
