REMARK  Name = ZINC02777230
REMARK  7 active torsions:
REMARK  status: ('A' for Active; 'I' for Inactive)
REMARK    1  A    between atoms: C_1  and  C_2
REMARK    2  A    between atoms: C_2  and  C_3
REMARK    3  A    between atoms: C_3  and  C_4
REMARK    4  A    between atoms: C_6  and  C_14
REMARK    5  A    between atoms: N_16  and  N_17
REMARK    6  A    between atoms: C_18  and  C_19
REMARK    7  A    between atoms: C_20  and  C_24
REMARK                            x       y       z     vdW  Elec       q    Type
REMARK                         _______ _______ _______ _____ _____    ______ ____
ROOT
ATOM      1  C   UNL     1       0.002  -0.004  -0.015  0.00  0.00    +0.043 A 
ATOM      2  C   UNL     1       1.194  -0.723  -0.032  0.00  0.00    +0.037 A 
ATOM      3  C   UNL     1       2.406  -0.043  -0.022  0.00  0.00    +0.049 A 
ATOM      4  C   UNL     1       2.368   1.375   0.005  0.00  0.00    +0.013 A 
ATOM      5  C   UNL     1       3.544   2.135   0.017  0.00  0.00    +0.011 A 
ATOM      6  C   UNL     1       3.466   3.495   0.042  0.00  0.00    +0.001 A 
ATOM      7  C   UNL     1       2.231   4.140   0.057  0.00  0.00    +0.002 A 
ATOM      8  C   UNL     1       1.069   3.432   0.046  0.00  0.00    +0.028 A 
ATOM      9  C   UNL     1       1.110   2.026   0.020  0.00  0.00    +0.072 A 
ATOM     10  N   UNL     1      -0.016   1.306   0.009  0.00  0.00    -0.252 NA
ENDROOT
BRANCH   3  11
ATOM     11  C   UNL     1       3.691  -0.773  -0.039  0.00  0.00    +0.264 C 
ATOM     12  O   UNL     1       4.737  -0.160  -0.137  0.00  0.00    -0.268 OA
ATOM     13  N   UNL     1       3.704  -2.117   0.055  0.00  0.00    -0.203 N 
ATOM     14  H   UNL     1       2.870  -2.606   0.133  0.00  0.00    +0.178 HD
BRANCH  13  15
ATOM     15  N   UNL     1       4.923  -2.809   0.039  0.00  0.00    -0.187 NA
ATOM     16  C   UNL     1       4.935  -4.107   0.129  0.00  0.00    +0.145 C 
BRANCH  16  17
ATOM     17  C   UNL     1       6.210  -4.830   0.112  0.00  0.00    +0.035 A 
ATOM     18  C   UNL     1       6.442  -6.192   0.201  0.00  0.00    -0.035 A 
ATOM     19  C   UNL     1       7.743  -6.638   0.157  0.00  0.00    +0.011 A 
ATOM     20  C   UNL     1       8.752  -5.735   0.041  0.00  0.00    +0.046 A 
ATOM     21  S   UNL     1       7.870  -4.184  -0.021  0.00  0.00    -0.095 S 
ATOM     22  C   UNL     1       5.298  -7.163   0.337  0.00  0.00    +0.045 C 
ENDBRANCH  16  17
ENDBRANCH  13  15
ENDBRANCH   3  11
BRANCH   1  23
ATOM     23  C   UNL     1      -1.305  -0.753  -0.026  0.00  0.00    +0.055 C 
BRANCH  23  25
ATOM     24  C   UNL     1      -3.484  -1.072   1.155  0.00  0.00    +0.004 C 
ATOM     25  C   UNL     1      -2.157  -0.311   1.166  0.00  0.00    +0.003 C 
ENDBRANCH  23  25
ENDBRANCH   1  23
TORSDOF 5
