REMARK  Name = ZINC44944216
REMARK  5 active torsions:
REMARK  status: ('A' for Active; 'I' for Inactive)
REMARK    1  A    between atoms: C_4  and  C_33
REMARK    2  A    between atoms: C_5  and  C_7
REMARK    3  A    between atoms: C_7  and  N_8
REMARK    4  A    between atoms: C_9  and  C_11
REMARK    5  A    between atoms: C_17  and  C_19
REMARK                            x       y       z     vdW  Elec       q    Type
REMARK                         _______ _______ _______ _____ _____    ______ ____
ROOT
ATOM      1  C   UNL     1       1.794  -4.496   2.945  0.00  0.00    +0.091 C 
ATOM      2  C   UNL     1       3.154  -3.965   3.405  0.00  0.00    +0.040 C 
ATOM      3  C   UNL     1       3.586  -4.667   4.659  0.00  0.00    -0.030 C 
ATOM      4  C   UNL     1       3.078  -5.781   5.079  0.00  0.00    -0.030 C 
ATOM      5  C   UNL     1       1.979  -6.522   4.374  0.00  0.00    +0.040 C 
ATOM      6  C   UNL     1       1.846  -6.029   2.932  0.00  0.00    +0.091 C 
ENDROOT
BRANCH   6   7
ATOM      7  C   UNL     1       0.581  -6.574   2.321  0.00  0.00    +0.220 C 
ATOM      8  O   UNL     1      -0.473  -6.001   2.499  0.00  0.00    -0.275 OA
ATOM      9  N   UNL     1       0.621  -7.697   1.578  0.00  0.00    -0.298 N 
ATOM     10  C   UNL     1       1.864  -8.472   1.459  0.00  0.00    +0.126 C 
ATOM     11  C   UNL     1       1.583  -9.918   1.885  0.00  0.00    +0.125 C 
ATOM     12  N   UNL     1       0.384 -10.391   1.178  0.00  0.00    -0.314 N 
ATOM     13  C   UNL     1      -0.860  -9.616   1.297  0.00  0.00    +0.125 C 
ATOM     14  C   UNL     1      -0.580  -8.172   0.876  0.00  0.00    +0.126 C 
ATOM     15  C   UNL     1       0.425 -11.549   0.411  0.00  0.00    +0.099 A 
ATOM     16  C   UNL     1       1.574 -12.334   0.408  0.00  0.00    +0.042 A 
ATOM     17  C   UNL     1       1.601 -13.484  -0.359  0.00  0.00    +0.005 A 
ATOM     18  C   UNL     1       0.474 -13.812  -1.101  0.00  0.00    +0.018 A 
ATOM     19  C   UNL     1      -0.632 -12.988  -1.051  0.00  0.00    +0.084 A 
ATOM     20  N   UNL     1      -0.632 -11.899  -0.306  0.00  0.00    -0.350 N 
ATOM     21  H   UNL     1      -1.424 -11.339  -0.285  0.00  0.00    +0.166 HD
ENDBRANCH   6   7
BRANCH   1  23
ATOM     22  N   UNL     1       1.410  -2.662   1.331  0.00  0.00    -0.311 N 
ATOM     23  C   UNL     1       1.494  -3.988   1.559  0.00  0.00    +0.217 C 
ATOM     24  O   UNL     1       1.329  -4.771   0.648  0.00  0.00    -0.275 OA
ATOM     25  H   UNL     1       1.542  -2.035   2.059  0.00  0.00    +0.149 HD
BRANCH  22  26
ATOM     26  C   UNL     1       1.118  -2.168  -0.017  0.00  0.00    +0.140 C 
BRANCH  26  31
ATOM     27  C   UNL     1      -0.173   1.379   0.050  0.00  0.00    +0.000 A 
ATOM     28  C   UNL     1       1.005   2.102   0.024  0.00  0.00    +0.001 A 
ATOM     29  C   UNL     1       2.219   1.444  -0.016  0.00  0.00    +0.013 A 
ATOM     30  C   UNL     1       2.256   0.061  -0.029  0.00  0.00    +0.059 A 
ATOM     31  C   UNL     1       1.078  -0.661  -0.002  0.00  0.00    -0.019 A 
ATOM     32  C   UNL     1      -0.137  -0.002   0.036  0.00  0.00    +0.006 A 
BRANCH  30  33
ATOM     33  C   UNL     1       3.580  -0.657  -0.073  0.00  0.00    +0.418 C 
ATOM     34  F   UNL     1       4.618   0.280  -0.095  0.00  0.00    -0.166 F 
ATOM     35  F   UNL     1       3.708  -1.469   1.059  0.00  0.00    -0.166 F 
ATOM     36  F   UNL     1       3.642  -1.449  -1.225  0.00  0.00    -0.166 F 
ENDBRANCH  30  33
ENDBRANCH  26  31
ENDBRANCH  22  26
ENDBRANCH   1  23
TORSDOF 5
