REMARK  Name = ZINC15879749
REMARK  6 active torsions:
REMARK  status: ('A' for Active; 'I' for Inactive)
REMARK    1  A    between atoms: C_7  and  C_13
REMARK    2  A    between atoms: C_13  and  O_15
REMARK    3  A    between atoms: O_15  and  C_16
REMARK    4  A    between atoms: C_16  and  C_17
REMARK    5  A    between atoms: N_19  and  C_20
REMARK    6  A    between atoms: C_21  and  C_30
REMARK                            x       y       z     vdW  Elec       q    Type
REMARK                         _______ _______ _______ _____ _____    ______ ____
ROOT
ATOM      1  C   UNL     1      -3.638  -0.964   0.125  0.00  0.00    +0.328 C 
ENDROOT
BRANCH   1   2
ATOM      2  C   UNL     1      -4.854  -0.083   0.262  0.00  0.00    +0.255 C 
ATOM      3  O   UNL     1      -4.724   1.120   0.351  0.00  0.00    -0.272 OA
ATOM      4  N   UNL     1      -6.084  -0.632   0.286  0.00  0.00    -0.276 N 
ATOM      5  H   UNL     1      -6.202  -1.722   0.205  0.00  0.00    +0.155 HD
BRANCH   4   6
ATOM      6  C   UNL     1      -7.203   0.180   0.412  0.00  0.00    +0.090 A 
ATOM      7  C   UNL     1      -8.537  -0.193   0.450  0.00  0.00    +0.084 A 
ATOM      8  C   UNL     1      -9.532   0.860   0.597  0.00  0.00    -0.018 A 
ATOM      9  C   UNL     1      -9.029   2.112   0.665  0.00  0.00    -0.004 A 
ATOM     10  S   UNL     1      -7.272   1.904   0.554  0.00  0.00    -0.077 S 
ATOM     11  C   UNL     1      -9.786   3.397   0.791  0.00  0.00    +0.043 C 
ATOM     12  C   UNL     1     -10.817   3.269   1.921  0.00  0.00    +0.005 C 
ATOM     13  C   UNL     1     -12.116   2.731   1.329  0.00  0.00    +0.001 C 
ATOM     14  C   UNL     1     -11.813   1.779   0.173  0.00  0.00    +0.005 C 
ATOM     15  C   UNL     1     -11.026   0.572   0.670  0.00  0.00    +0.037 C 
BRANCH   7  16
ATOM     16  C   UNL     1      -8.924  -1.568   0.352  0.00  0.00    +0.102 C 
ATOM     17  N   UNL     1      -9.231  -2.659   0.274  0.00  0.00    -0.191 NA
ENDBRANCH   7  16
ENDBRANCH   4   6
ENDBRANCH   1   2
BRANCH   1  18
ATOM     18  O   UNL     1      -2.442  -0.141   0.125  0.00  0.00    -0.452 OA
BRANCH  18  19
ATOM     19  C   UNL     1      -1.262  -0.779   0.009  0.00  0.00    +0.340 C 
ATOM     20  O   UNL     1      -1.232  -1.989  -0.089  0.00  0.00    -0.245 OA
BRANCH  19  27
ATOM     21  C   UNL     1      -1.228   3.530  -0.031  0.00  0.00    +0.001 A 
ATOM     22  C   UNL     1      -0.032   4.233  -0.038  0.00  0.00    +0.002 A 
ATOM     23  C   UNL     1       1.174   3.567  -0.032  0.00  0.00    +0.026 A 
ATOM     24  C   UNL     1       1.197   2.175  -0.019  0.00  0.00    +0.050 A 
ATOM     25  C   UNL     1      -0.018   1.467  -0.012  0.00  0.00    +0.012 A 
ATOM     26  C   UNL     1      -1.230   2.164  -0.012  0.00  0.00    +0.011 A 
ATOM     27  C   UNL     1       0.002  -0.004   0.002  0.00  0.00    +0.073 A 
ATOM     28  C   UNL     1       1.211  -0.640   0.007  0.00  0.00    +0.085 A 
ATOM     29  C   UNL     1       2.439   0.152  -0.001  0.00  0.00    +0.250 A 
ATOM     30  O   UNL     1       3.518  -0.413   0.004  0.00  0.00    -0.268 OA
ATOM     31  N   UNL     1       2.396   1.496  -0.014  0.00  0.00    -0.322 N 
ATOM     32  H   UNL     1       3.344   2.054  -0.020  0.00  0.00    +0.169 HD
ENDBRANCH  19  27
ENDBRANCH  18  19
ENDBRANCH   1  18
TORSDOF 6
