REMARK  Name = ZINC62039024
REMARK  11 active torsions:
REMARK  status: ('A' for Active; 'I' for Inactive)
REMARK    1  A    between atoms: C_1  and  C_2
REMARK    2  A    between atoms: C_2  and  C_3
REMARK    3  A    between atoms: C_6  and  C_9
REMARK    4  A    between atoms: C_10  and  C_33
REMARK    5  A    between atoms: C_14  and  S_18
REMARK    6  A    between atoms: S_18  and  C_19
REMARK    7  A    between atoms: C_19  and  C_20
REMARK    8  A    between atoms: N_22  and  C_23
REMARK    9  A    between atoms: C_25  and  N_30
REMARK   10  A    between atoms: C_28  and  O_29
REMARK   11  A    between atoms: C_33  and  C_34
REMARK                            x       y       z     vdW  Elec       q    Type
REMARK                         _______ _______ _______ _____ _____    ______ ____
ROOT
ATOM      1  C   UNL     1      -5.390  -2.016  -0.001  0.00  0.00    +0.004 A 
ATOM      2  C   UNL     1      -5.666  -3.247   0.489  0.00  0.00    -0.000 A 
ATOM      3  S   UNL     1      -7.429  -3.396   0.269  0.00  0.00    -0.073 S 
ATOM      4  C   UNL     1      -7.755  -1.817  -0.469  0.00  0.00    +0.113 A 
ATOM      5  C   UNL     1      -6.486  -1.206  -0.523  0.00  0.00    +0.047 A 
ATOM      6  C   UNL     1      -6.461   0.102  -1.079  0.00  0.00    +0.109 A 
ATOM      7  N   UNL     1      -7.594   0.648  -1.494  0.00  0.00    -0.229 NA
ATOM      8  C   UNL     1      -8.751   0.018  -1.408  0.00  0.00    +0.223 A 
ATOM      9  N   UNL     1      -8.834  -1.201  -0.910  0.00  0.00    -0.228 NA
ENDROOT
BRANCH   1  13
ATOM     10  C   UNL     1      -1.407  -0.531  -0.003  0.00  0.00    -0.048 A 
ATOM     11  C   UNL     1      -2.049  -0.780   1.197  0.00  0.00    +0.004 A 
ATOM     12  C   UNL     1      -3.342  -1.262   1.204  0.00  0.00    +0.009 A 
ATOM     13  C   UNL     1      -4.001  -1.498  -0.002  0.00  0.00    -0.016 A 
ATOM     14  C   UNL     1      -3.349  -1.245  -1.208  0.00  0.00    +0.009 A 
ATOM     15  C   UNL     1      -2.058  -0.758  -1.202  0.00  0.00    +0.004 A 
BRANCH  10  17
ATOM     16  C   UNL     1      -0.021   1.525   0.013  0.00  0.00    +0.009 C 
ATOM     17  C   UNL     1       0.005  -0.004  -0.004  0.00  0.00    +0.032 C 
ENDBRANCH  10  17
ENDBRANCH   1  13
BRANCH   2  18
ATOM     18  C   UNL     1      -4.711  -4.253   1.078  0.00  0.00    +0.040 C 
ATOM     19  C   UNL     1      -4.599  -4.025   2.587  0.00  0.00    +0.009 C 
ENDBRANCH   2  18
BRANCH   6  20
ATOM     20  S   UNL     1      -4.942   0.985  -1.215  0.00  0.00    -0.096 S 
BRANCH  20  21
ATOM     21  C   UNL     1      -5.419   2.564  -1.968  0.00  0.00    +0.171 C 
BRANCH  21  22
ATOM     22  C   UNL     1      -4.196   3.427  -2.143  0.00  0.00    +0.228 C 
ATOM     23  O   UNL     1      -3.110   3.017  -1.793  0.00  0.00    -0.275 OA
ATOM     24  N   UNL     1      -4.309   4.655  -2.687  0.00  0.00    -0.282 N 
ATOM     25  H   UNL     1      -5.166   4.958  -3.026  0.00  0.00    +0.155 HD
BRANCH  24  26
ATOM     26  C   UNL     1      -3.189   5.494  -2.764  0.00  0.00    +0.078 A 
ATOM     27  C   UNL     1      -1.931   4.954  -2.986  0.00  0.00    +0.059 A 
ATOM     28  C   UNL     1      -0.828   5.783  -3.061  0.00  0.00    +0.128 A 
ATOM     29  C   UNL     1      -0.975   7.150  -2.916  0.00  0.00    +0.036 A 
ATOM     30  C   UNL     1      -2.226   7.695  -2.694  0.00  0.00    +0.049 A 
ATOM     31  C   UNL     1      -3.338   6.871  -2.623  0.00  0.00    +0.138 A 
BRANCH  28  32
ATOM     32  N   UNL     1       0.515   5.206  -3.298  0.00  0.00    +0.056 N 
ATOM     33  O   UNL     1       0.645   4.011  -3.425  0.00  0.00    -0.126 OA
ATOM     34  O   UNL     1       1.481   5.930  -3.364  0.00  0.00    -0.126 OA
ENDBRANCH  28  32
BRANCH  31  35
ATOM     35  O   UNL     1      -4.570   7.406  -2.411  0.00  0.00    -0.505 OA
ATOM     36  H   UNL     1      -4.809   7.484  -1.478  0.00  0.00    +0.292 HD
ENDBRANCH  31  35
ENDBRANCH  24  26
ENDBRANCH  21  22
ENDBRANCH  20  21
ENDBRANCH   6  20
TORSDOF 9
