REMARK  Name = ZINC32126830
REMARK  7 active torsions:
REMARK  status: ('A' for Active; 'I' for Inactive)
REMARK    1  A    between atoms: C_1  and  O_2
REMARK    2  A    between atoms: O_2  and  C_3
REMARK    3  A    between atoms: N_13  and  C_14
REMARK    4  A    between atoms: C_14  and  N_16
REMARK    5  A    between atoms: C_17  and  C_19
REMARK    6  A    between atoms: C_22  and  O_26
REMARK    7  A    between atoms: O_26  and  C_27
REMARK                            x       y       z     vdW  Elec       q    Type
REMARK                         _______ _______ _______ _____ _____    ______ ____
ROOT
ATOM      1  C   UNL     1      -2.349   1.180   0.020  0.00  0.00    +0.163 C 
ATOM      2  S   UNL     1      -2.325  -0.532   0.010  0.00  0.00    -0.016 S 
ENDROOT
BRANCH   1  13
ATOM      3  C   UNL     1      -8.817  -1.588   0.036  0.00  0.00    +0.140 A 
ATOM      4  C   UNL     1      -8.524  -0.232   0.041  0.00  0.00    +0.064 A 
ATOM      5  C   UNL     1      -7.213   0.177   0.037  0.00  0.00    +0.042 A 
ATOM      6  C   UNL     1      -6.130  -0.730   0.028  0.00  0.00    +0.057 A 
ATOM      7  C   UNL     1      -6.462  -2.104   0.022  0.00  0.00    +0.050 A 
ATOM      8  C   UNL     1      -7.772  -2.509   0.027  0.00  0.00    +0.085 A 
ATOM      9 CL   UNL     1      -8.137  -4.206   0.020  0.00  0.00    -0.080 Cl
ATOM     10  N   UNL     1      -4.899  -0.170   0.025  0.00  0.00    -0.335 N 
ATOM     11  C   UNL     1      -4.715   1.129   0.030  0.00  0.00    +0.163 A 
ATOM     12  S   UNL     1      -6.390   1.751   0.049  0.00  0.00    -0.052 S 
ATOM     13  N   UNL     1      -3.525   1.838   0.029  0.00  0.00    -0.169 NA
ATOM     14  H   UNL     1      -4.004  -0.810   0.018  0.00  0.00    +0.168 HD
BRANCH   3  16
ATOM     15  C   UNL     1     -11.123  -1.006   0.050  0.00  0.00    +0.277 C 
ATOM     16  O   UNL     1     -10.109  -2.013   0.041  0.00  0.00    -0.494 OA
ENDBRANCH   3  16
ENDBRANCH   1  13
BRANCH   1  17
ATOM     17  N   UNL     1      -1.191   1.869   0.018  0.00  0.00    -0.262 N 
ATOM     18  C   UNL     1      -0.014   1.211   0.009  0.00  0.00    +0.250 C 
ATOM     19  O   UNL     1       0.002  -0.004   0.002  0.00  0.00    -0.270 OA
ATOM     20  H   UNL     1      -1.206   2.969   0.024  0.00  0.00    +0.157 HD
BRANCH  18  21
ATOM     21  C   UNL     1       1.253   1.966   0.001  0.00  0.00    +0.040 A 
ATOM     22  C   UNL     1       1.236   3.364   0.003  0.00  0.00    +0.036 A 
ATOM     23  C   UNL     1       2.422   4.066   0.001  0.00  0.00    +0.085 A 
ATOM     24  C   UNL     1       3.635   3.385  -0.014  0.00  0.00    +0.157 A 
ATOM     25  C   UNL     1       3.656   1.994  -0.022  0.00  0.00    +0.085 A 
ATOM     26  C   UNL     1       2.474   1.286  -0.015  0.00  0.00    +0.036 A 
ATOM     27 CL   UNL     1       5.173   1.150  -0.041  0.00  0.00    -0.080 Cl
ATOM     28 CL   UNL     1       2.402   5.801   0.010  0.00  0.00    -0.080 Cl
BRANCH  24  29
ATOM     29  O   UNL     1       4.801   4.080  -0.021  0.00  0.00    -0.492 OA
ATOM     30  C   UNL     1       5.347   4.418  -1.298  0.00  0.00    +0.277 C 
ENDBRANCH  24  29
ENDBRANCH  18  21
ENDBRANCH   1  17
TORSDOF 5
