REMARK  Name = ZINC33123099
REMARK  8 active torsions:
REMARK  status: ('A' for Active; 'I' for Inactive)
REMARK    1  A    between atoms: C_1  and  C_2
REMARK    2  A    between atoms: C_5  and  C_20
REMARK    3  A    between atoms: C_7  and  S_8
REMARK    4  A    between atoms: S_8  and  N_11
REMARK    5  A    between atoms: N_11  and  C_12
REMARK    6  A    between atoms: C_14  and  C_19
REMARK    7  A    between atoms: C_16  and  C_18
REMARK    8  A    between atoms: C_21  and  C_32
REMARK                            x       y       z     vdW  Elec       q    Type
REMARK                         _______ _______ _______ _____ _____    ______ ____
ROOT
ATOM      1  C   UNL     1       3.907  -6.630   0.122  0.00  0.00    +0.046 C 
ATOM      2  C   UNL     1       2.834  -5.572   0.153  0.00  0.00    -0.024 A 
ATOM      3  C   UNL     1       2.637  -4.758  -0.949  0.00  0.00    +0.006 A 
ATOM      4  C   UNL     1       1.656  -3.788  -0.926  0.00  0.00    +0.009 A 
ATOM      5  C   UNL     1       0.864  -3.627   0.210  0.00  0.00    -0.011 A 
ATOM      6  C   UNL     1       1.071  -4.446   1.319  0.00  0.00    +0.037 A 
ATOM      7  C   UNL     1       2.051  -5.417   1.282  0.00  0.00    +0.112 A 
ENDROOT
BRANCH   5   8
ATOM      8  C   UNL     1      -0.191  -2.586   0.240  0.00  0.00    +0.045 A 
ATOM      9  C   UNL     1      -1.578  -2.808   0.326  0.00  0.00    +0.070 A 
ATOM     10  N   UNL     1      -2.178  -1.653   0.346  0.00  0.00    -0.167 NA
ATOM     11  N   UNL     1      -1.212  -0.629   0.317  0.00  0.00    -0.185 N 
ATOM     12  C   UNL     1       0.009  -1.210   0.190  0.00  0.00    +0.139 A 
ATOM     13  N   UNL     1       1.247  -0.641  -0.029  0.00  0.00    -0.270 N 
ATOM     14  C   UNL     1       1.642   0.557   0.449  0.00  0.00    +0.219 C 
ATOM     15  O   UNL     1       2.748   0.981   0.189  0.00  0.00    -0.275 OA
ATOM     16  C   UNL     1       0.714   1.361   1.299  0.00  0.00    +0.105 C 
ATOM     17  C   UNL     1      -0.533   1.750   0.550  0.00  0.00    +0.110 C 
ATOM     18  C   UNL     1      -1.536   0.676   0.428  0.00  0.00    +0.250 C 
ATOM     19  O   UNL     1      -2.705   0.980   0.422  0.00  0.00    -0.271 OA
ATOM     20  C   UNL     1      -2.254  -4.154   0.383  0.00  0.00    +0.068 C 
ATOM     21  H   UNL     1       1.998  -1.172  -0.633  0.00  0.00    +0.156 HD
ENDBRANCH   5   8
BRANCH   7  22
ATOM     22  S   UNL     1       2.310  -6.458   2.681  0.00  0.00    +0.073 S 
ATOM     23  O   UNL     1       3.705  -6.439   2.949  0.00  0.00    -0.150 OA
ATOM     24  O   UNL     1       1.343  -6.082   3.651  0.00  0.00    -0.150 OA
BRANCH  22  25
ATOM     25  N   UNL     1       1.938  -8.003   2.216  0.00  0.00    -0.216 N 
ATOM     26  H   UNL     1       2.709  -8.787   2.245  0.00  0.00    +0.174 HD
BRANCH  25  27
ATOM     27  C   UNL     1       0.645  -8.312   1.789  0.00  0.00    +0.049 A 
ATOM     28  C   UNL     1      -0.453  -7.873   2.518  0.00  0.00    +0.028 A 
ATOM     29  C   UNL     1      -1.731  -8.176   2.090  0.00  0.00    -0.048 A 
ATOM     30  C   UNL     1      -1.918  -8.925   0.943  0.00  0.00    +0.006 A 
ATOM     31  C   UNL     1      -0.827  -9.368   0.217  0.00  0.00    -0.048 A 
ATOM     32  C   UNL     1       0.453  -9.064   0.636  0.00  0.00    +0.028 A 
ATOM     33  C   UNL     1      -1.036 -10.182  -1.033  0.00  0.00    +0.044 C 
ATOM     34  C   UNL     1      -2.922  -7.696   2.878  0.00  0.00    +0.044 C 
ENDBRANCH  25  27
ENDBRANCH  22  25
ENDBRANCH   7  22
TORSDOF 4
