REMARK  Name = ZINC21977301
REMARK  7 active torsions:
REMARK  status: ('A' for Active; 'I' for Inactive)
REMARK    1  A    between atoms: C_1  and  C_2
REMARK    2  A    between atoms: C_3  and  C_7
REMARK    3  A    between atoms: C_10  and  S_15
REMARK    4  A    between atoms: N_11  and  C_12
REMARK    5  A    between atoms: C_12  and  C_13
REMARK    6  A    between atoms: S_15  and  C_16
REMARK    7  A    between atoms: C_16  and  C_17
REMARK                            x       y       z     vdW  Elec       q    Type
REMARK                         _______ _______ _______ _____ _____    ______ ____
ROOT
ATOM      1  C   UNL     1      -4.718  -1.808   2.331  0.00  0.00    +0.143 A 
ATOM      2  N   UNL     1      -5.850  -1.615   1.677  0.00  0.00    -0.216 NA
ATOM      3  C   UNL     1      -6.703  -2.599   1.439  0.00  0.00    +0.128 A 
ATOM      4  C   UNL     1      -6.400  -3.906   1.912  0.00  0.00    +0.051 A 
ATOM      5  C   UNL     1      -7.190  -5.134   1.769  0.00  0.00    -0.025 A 
ATOM      6  C   UNL     1      -6.675  -6.252   2.320  0.00  0.00    -0.004 A 
ATOM      7  S   UNL     1      -5.133  -5.750   3.041  0.00  0.00    -0.073 S 
ATOM      8  C   UNL     1      -5.181  -4.032   2.606  0.00  0.00    +0.114 A 
ATOM      9  N   UNL     1      -4.385  -2.998   2.794  0.00  0.00    -0.224 NA
ATOM     10  C   UNL     1      -7.274  -7.624   2.339  0.00  0.00    +0.043 C 
ATOM     11  C   UNL     1      -7.729  -8.000   0.922  0.00  0.00    +0.005 C 
ATOM     12  C   UNL     1      -9.171  -7.537   0.744  0.00  0.00    +0.001 C 
ATOM     13  C   UNL     1      -9.412  -6.257   1.542  0.00  0.00    +0.005 C 
ATOM     14  C   UNL     1      -8.523  -5.132   1.026  0.00  0.00    +0.037 C 
ATOM     15  N   UNL     1      -7.875  -2.358   0.746  0.00  0.00    -0.343 N 
ATOM     16  H   UNL     1      -8.579  -3.181   0.553  0.00  0.00    +0.144 HD
ATOM     17  H   UNL     1      -8.103  -1.343   0.387  0.00  0.00    +0.144 HD
ENDROOT
BRANCH   1  18
ATOM     18  C   UNL     1      -3.791  -0.642   2.559  0.00  0.00    +0.153 C 
BRANCH  18  19
ATOM     19  S   UNL     1      -2.622  -0.523   1.183  0.00  0.00    -0.078 S 
BRANCH  19  23
ATOM     20  C   UNL     1      -0.228   2.503   1.804  0.00  0.00    +0.168 A 
ATOM     21  N   UNL     1      -1.014   2.535   2.856  0.00  0.00    -0.128 NA
ATOM     22  N   UNL     1      -1.870   1.579   2.793  0.00  0.00    -0.122 NA
ATOM     23  C   UNL     1      -1.688   0.881   1.696  0.00  0.00    +0.193 A 
ATOM     24  N   UNL     1      -0.639   1.446   1.026  0.00  0.00    -0.298 N 
BRANCH  20  27
ATOM     25  C   UNL     1      -0.313   5.630   2.002  0.00  0.00    +0.087 C 
ATOM     26  C   UNL     1       0.867   4.788   1.591  0.00  0.00    +0.112 A 
ATOM     27  C   UNL     1       0.886   3.430   1.511  0.00  0.00    +0.060 A 
ATOM     28  C   UNL     1       2.240   3.076   1.067  0.00  0.00    +0.053 A 
ATOM     29  C   UNL     1       2.900   4.238   0.928  0.00  0.00    +0.196 A 
ATOM     30  O   UNL     1       2.078   5.249   1.245  0.00  0.00    -0.467 OA
ENDBRANCH  20  27
BRANCH  24  31
ATOM     31  C   UNL     1      -0.069   1.014  -0.252  0.00  0.00    +0.152 C 
BRANCH  31  32
ATOM     32  C   UNL     1      -0.833   1.649  -1.385  0.00  0.00    -0.013 C 
ATOM     33  C   UNL     1      -1.444   0.896  -2.266  0.00  0.00    +0.005 C 
ENDBRANCH  31  32
ENDBRANCH  24  31
ENDBRANCH  19  23
ENDBRANCH  18  19
ENDBRANCH   1  18
TORSDOF 6
