REMARK  Name = ZINC21263302
REMARK  11 active torsions:
REMARK  status: ('A' for Active; 'I' for Inactive)
REMARK    1  A    between atoms: C_1  and  C_2
REMARK    2  A    between atoms: C_2  and  C_31
REMARK    3  A    between atoms: C_4  and  N_10
REMARK    4  A    between atoms: C_6  and  C_8
REMARK    5  A    between atoms: C_6  and  C_9
REMARK    6  A    between atoms: N_10  and  C_11
REMARK    7  A    between atoms: C_11  and  N_13
REMARK    8  A    between atoms: N_13  and  C_14
REMARK    9  A    between atoms: N_13  and  C_24
REMARK   10  A    between atoms: C_14  and  C_15
REMARK   11  A    between atoms: C_24  and  C_25
REMARK                            x       y       z     vdW  Elec       q    Type
REMARK                         _______ _______ _______ _____ _____    ______ ____
ROOT
ATOM      1  N   UNL     1       3.101   3.601   0.750  0.00  0.00    -0.306 N 
ENDROOT
BRANCH   1   2
ATOM      2  C   UNL     1       4.031   3.111   1.593  0.00  0.00    +0.133 C 
ATOM      3  S   UNL     1       5.662   3.612   1.454  0.00  0.00    -0.019 S 
BRANCH   2   4
ATOM      4  N   UNL     1       3.677   2.227   2.547  0.00  0.00    -0.324 N 
ATOM      5  H   UNL     1       2.629   1.905   2.637  0.00  0.00    +0.148 HD
BRANCH   4   9
ATOM      6  C   UNL     1       5.849   1.796   6.353  0.00  0.00    -0.010 C 
ATOM      7  C   UNL     1       5.038   0.657   5.723  0.00  0.00    -0.072 C 
ATOM      8  C   UNL     1       4.009   1.237   4.756  0.00  0.00    +0.009 C 
ATOM      9  C   UNL     1       4.690   1.693   3.466  0.00  0.00    +0.069 C 
ATOM     10  C   UNL     1       5.368   0.485   2.821  0.00  0.00    +0.009 C 
ATOM     11  C   UNL     1       6.412  -0.106   3.765  0.00  0.00    -0.072 C 
ATOM     12  N   UNL     1       5.906  -0.322   5.104  0.00  0.00    +0.386 N 
ATOM     13  C   UNL     1       7.655   0.791   3.780  0.00  0.00    -0.010 C 
ATOM     14  C   UNL     1       6.842  -1.472   3.185  0.00  0.00    -0.010 C 
ATOM     15  C   UNL     1       4.263  -0.038   6.865  0.00  0.00    -0.010 C 
ATOM     16  H   UNL     1       6.815  -0.444   5.712  0.00  0.00    -0.084 HD
ATOM     17  H   UNL     1       5.380  -1.286   5.034  0.00  0.00    -0.084 HD
ENDBRANCH   4   9
ENDBRANCH   2   4
ENDBRANCH   1   2
BRANCH   1  18
ATOM     18  C   UNL     1       3.485   4.562  -0.286  0.00  0.00    +0.142 C 
BRANCH  18  19
ATOM     19  C   UNL     1       3.366   5.963   0.258  0.00  0.00    -0.026 A 
ATOM     20  C   UNL     1       4.447   6.555   0.883  0.00  0.00    +0.009 A 
ATOM     21  C   UNL     1       4.343   7.839   1.383  0.00  0.00    +0.050 A 
ATOM     22  C   UNL     1       3.152   8.537   1.259  0.00  0.00    +0.166 A 
ATOM     23  C   UNL     1       2.062   7.940   0.629  0.00  0.00    +0.167 A 
ATOM     24  C   UNL     1       2.176   6.655   0.125  0.00  0.00    +0.054 A 
ATOM     25  O   UNL     1       1.020   8.822   0.633  0.00  0.00    -0.453 OA
ATOM     26  C   UNL     1       1.606  10.108   0.906  0.00  0.00    +0.466 C 
ATOM     27  O   UNL     1       2.792   9.791   1.658  0.00  0.00    -0.453 OA
ENDBRANCH  18  19
ENDBRANCH   1  18
BRANCH   1  28
ATOM     28  C   UNL     1       1.705   3.173   0.870  0.00  0.00    +0.138 C 
BRANCH  28  29
ATOM     29  C   UNL     1       1.474   1.937  -0.002  0.00  0.00    +0.136 C 
ATOM     30  C   UNL     1      -0.019   1.541   0.011  0.00  0.00    +0.035 C 
ATOM     31  C   UNL     1       0.002  -0.004   0.002  0.00  0.00    +0.031 C 
ATOM     32  C   UNL     1       1.506  -0.359  -0.014  0.00  0.00    +0.160 C 
ATOM     33  O   UNL     1       2.163   0.795   0.553  0.00  0.00    -0.375 OA
ENDBRANCH  28  29
ENDBRANCH   1  28
TORSDOF 7
