REMARK  Name = ZINC36935317
REMARK  4 active torsions:
REMARK  status: ('A' for Active; 'I' for Inactive)
REMARK    1  A    between atoms: C_1  and  C_2
REMARK    2  A    between atoms: C_7  and  C_8
REMARK    3  A    between atoms: C_9  and  C_15
REMARK    4  A    between atoms: C_13  and  N_14
REMARK                            x       y       z     vdW  Elec       q    Type
REMARK                         _______ _______ _______ _____ _____    ______ ____
ROOT
ATOM      1  C   UNL     1       0.025   0.020   2.494  0.00  0.00    +0.049 A 
ATOM      2  C   UNL     1      -1.114   0.414   3.240  0.00  0.00    +0.103 A 
ATOM      3  N   UNL     1      -0.697   1.035   4.321  0.00  0.00    -0.172 NA
ATOM      4  N   UNL     1       0.702   1.066   4.314  0.00  0.00    -0.263 N 
ATOM      5  H   UNL     1       1.264   1.466   4.996  0.00  0.00    +0.190 HD
ATOM      6  C   UNL     1       1.139   0.439   3.199  0.00  0.00    +0.120 A 
ENDROOT
BRANCH   1  13
ATOM      7  C   UNL     1      -0.018   1.503   0.010  0.00  0.00    +0.044 C 
ATOM      8  C   UNL     1       0.002  -0.004   0.002  0.00  0.00    -0.043 A 
ATOM      9  C   UNL     1       0.006  -0.689  -1.196  0.00  0.00    +0.004 A 
ATOM     10  C   UNL     1       0.025  -2.072  -1.205  0.00  0.00    +0.000 A 
ATOM     11  C   UNL     1       0.040  -2.777  -0.015  0.00  0.00    +0.001 A 
ATOM     12  C   UNL     1       0.037  -2.104   1.189  0.00  0.00    +0.009 A 
ATOM     13  C   UNL     1       0.023  -0.709   1.205  0.00  0.00    -0.010 A 
ENDBRANCH   1  13
BRANCH   2  14
ATOM     14  C   UNL     1      -2.528   0.169   2.867  0.00  0.00    +0.010 A 
ATOM     15  C   UNL     1      -3.488  -0.087   3.842  0.00  0.00    +0.017 A 
ATOM     16  C   UNL     1      -4.767  -0.305   3.463  0.00  0.00    +0.046 A 
ATOM     17  S   UNL     1      -4.665  -0.157   1.687  0.00  0.00    -0.104 S 
ATOM     18  C   UNL     1      -2.920   0.194   1.558  0.00  0.00    +0.055 A 
ENDBRANCH   2  14
BRANCH   6  19
ATOM     19  N   UNL     1       2.464   0.253   2.827  0.00  0.00    -0.343 N 
ATOM     20  H   UNL     1       2.675  -0.210   2.001  0.00  0.00    +0.144 HD
ATOM     21  H   UNL     1       3.178   0.586   3.392  0.00  0.00    +0.144 HD
ENDBRANCH   6  19
TORSDOF 3
