REMARK  Name = ZINC08739544
REMARK  7 active torsions:
REMARK  status: ('A' for Active; 'I' for Inactive)
REMARK    1  A    between atoms: C_1  and  C_2
REMARK    2  A    between atoms: C_2  and  C_3
REMARK    3  A    between atoms: C_2  and  C_4
REMARK    4  A    between atoms: C_2  and  C_5
REMARK    5  A    between atoms: C_8  and  C_11
REMARK    6  A    between atoms: N_13  and  C_14
REMARK    7  A    between atoms: C_14  and  C_15
REMARK                            x       y       z     vdW  Elec       q    Type
REMARK                         _______ _______ _______ _____ _____    ______ ____
ROOT
ATOM      1  C   UNL     1       6.083  -1.477  -6.166  0.00  0.00    +0.233 C 
ATOM      2  O   UNL     1       6.480  -0.783  -5.254  0.00  0.00    -0.274 OA
ATOM      3  N   UNL     1       6.908  -1.787  -7.186  0.00  0.00    -0.300 N 
ATOM      4  C   UNL     1       6.440  -2.623  -8.300  0.00  0.00    +0.107 C 
ATOM      5  C   UNL     1       6.707  -1.884  -9.615  0.00  0.00    +0.013 C 
ATOM      6  C   UNL     1       8.187  -1.504  -9.691  0.00  0.00    -0.022 C 
ATOM      7  C   UNL     1       8.541  -0.573  -8.531  0.00  0.00    +0.013 C 
ATOM      8  C   UNL     1       8.291  -1.292  -7.207  0.00  0.00    +0.107 C 
ATOM      9  C   UNL     1       8.467  -0.816 -11.000  0.00  0.00    +0.027 A 
ATOM     10  C   UNL     1       9.552  -1.076 -11.766  0.00  0.00    +0.059 A 
ATOM     11  N   UNL     1       9.490  -0.301 -12.848  0.00  0.00    -0.241 NA
ATOM     12  C   UNL     1       8.409   0.434 -12.786  0.00  0.00    +0.196 A 
ATOM     13  N   UNL     1       7.746   0.139 -11.643  0.00  0.00    -0.349 N 
ATOM     14  C   UNL     1      10.604  -2.085 -11.375  0.00  0.00    +0.038 C 
ATOM     15  C   UNL     1      10.419  -2.397  -9.883  0.00  0.00    -0.075 C 
ATOM     16  N   UNL     1       9.011  -2.720  -9.615  0.00  0.00    +0.387 N 
ATOM     17  H   UNL     1       8.930  -3.122  -8.692  0.00  0.00    -0.085 HD
ATOM     18  H   UNL     1       6.913   0.535 -11.341  0.00  0.00    +0.166 HD
ATOM     19  H   UNL     1       8.685  -3.389 -10.297  0.00  0.00    -0.085 HD
ENDROOT
BRANCH   1  20
ATOM     20  C   UNL     1       4.667  -1.994  -6.158  0.00  0.00    +0.200 C 
BRANCH  20  23
ATOM     21  C   UNL     1       2.696  -1.860  -4.732  0.00  0.00    +0.244 C 
ATOM     22  O   UNL     1       2.106  -2.559  -5.533  0.00  0.00    -0.270 OA
ATOM     23  N   UNL     1       3.981  -1.521  -4.953  0.00  0.00    -0.303 N 
ATOM     24  H   UNL     1       4.452  -0.963  -4.314  0.00  0.00    +0.150 HD
BRANCH  21  28
ATOM     25  C   UNL     1       0.707  -0.490  -1.238  0.00  0.00    -0.042 A 
ATOM     26  C   UNL     1       0.033  -1.285  -2.147  0.00  0.00    +0.005 A 
ATOM     27  C   UNL     1       0.672  -1.733  -3.284  0.00  0.00    +0.013 A 
ATOM     28  C   UNL     1       2.004  -1.383  -3.516  0.00  0.00    +0.037 A 
ATOM     29  C   UNL     1       2.679  -0.581  -2.595  0.00  0.00    +0.013 A 
ATOM     30  C   UNL     1       2.025  -0.135  -1.464  0.00  0.00    +0.005 A 
BRANCH  25  32
ATOM     31  C   UNL     1      -0.019   1.526   0.010  0.00  0.00    +0.015 C 
ATOM     32  C   UNL     1       0.002  -0.004   0.002  0.00  0.00    -0.013 C 
ATOM     33  C   UNL     1       0.742  -0.511   1.242  0.00  0.00    +0.015 C 
ATOM     34  C   UNL     1      -1.433  -0.534   0.013  0.00  0.00    +0.015 C 
ENDBRANCH  25  32
ENDBRANCH  21  28
ENDBRANCH  20  23
ENDBRANCH   1  20
TORSDOF 4
