REMARK  Name = ZINC15019418
REMARK  8 active torsions:
REMARK  status: ('A' for Active; 'I' for Inactive)
REMARK    1  A    between atoms: C_1  and  C_2
REMARK    2  A    between atoms: C_2  and  N_3
REMARK    3  A    between atoms: C_4  and  C_22
REMARK    4  A    between atoms: C_7  and  S_8
REMARK    5  A    between atoms: S_8  and  C_9
REMARK    6  A    between atoms: C_9  and  C_10
REMARK    7  A    between atoms: C_25  and  O_28
REMARK    8  A    between atoms: O_28  and  C_29
REMARK                            x       y       z     vdW  Elec       q    Type
REMARK                         _______ _______ _______ _____ _____    ______ ____
ROOT
ATOM      1  N   UNL     1      -5.222  -0.235   0.019  0.00  0.00    -0.302 N 
ATOM      2  C   UNL     1      -6.076  -1.313   0.027  0.00  0.00    +0.165 A 
ATOM      3  N   UNL     1      -5.331  -2.394   0.054  0.00  0.00    -0.128 NA
ATOM      4  N   UNL     1      -4.088  -2.070   0.059  0.00  0.00    -0.122 NA
ATOM      5  C   UNL     1      -3.962  -0.762   0.043  0.00  0.00    +0.192 A 
ENDROOT
BRANCH   2   6
ATOM      6  C   UNL     1      -7.553  -1.264   0.008  0.00  0.00    +0.020 A 
ATOM      7  C   UNL     1      -8.296  -2.377   0.406  0.00  0.00    +0.015 A 
ATOM      8  C   UNL     1      -9.673  -2.326   0.391  0.00  0.00    +0.046 A 
ATOM      9  C   UNL     1     -10.322  -1.173  -0.029  0.00  0.00    +0.120 A 
ATOM     10  C   UNL     1      -9.588  -0.065  -0.430  0.00  0.00    +0.046 A 
ATOM     11  C   UNL     1      -8.210  -0.106  -0.413  0.00  0.00    +0.015 A 
BRANCH   9  12
ATOM     12  O   UNL     1     -11.680  -1.128  -0.047  0.00  0.00    -0.495 OA
ATOM     13  C   UNL     1     -12.374  -2.302   0.379  0.00  0.00    +0.277 C 
ENDBRANCH   9  12
ENDBRANCH   2   6
BRANCH   1  15
ATOM     14  C   UNL     1      -5.607   1.677  -1.457  0.00  0.00    +0.027 C 
ATOM     15  C   UNL     1      -5.587   1.184  -0.009  0.00  0.00    +0.122 C 
ENDBRANCH   1  15
BRANCH   5  16
ATOM     16  S   UNL     1      -2.450   0.142   0.045  0.00  0.00    -0.078 S 
BRANCH  16  17
ATOM     17  C   UNL     1      -1.265  -1.226   0.083  0.00  0.00    +0.151 C 
BRANCH  17  18
ATOM     18  C   UNL     1       0.138  -0.676   0.090  0.00  0.00    +0.121 A 
ATOM     19  N   UNL     1       1.174  -1.554   0.118  0.00  0.00    -0.310 N 
ATOM     20  H   UNL     1       0.996  -2.507   0.133  0.00  0.00    +0.170 HD
ATOM     21  C   UNL     1       2.453  -1.110   0.125  0.00  0.00    +0.259 A 
ATOM     22  O   UNL     1       3.391  -1.885   0.149  0.00  0.00    -0.267 OA
ATOM     23  C   UNL     1       2.665   0.345   0.102  0.00  0.00    +0.065 A 
ATOM     24  C   UNL     1       3.941   0.904   0.107  0.00  0.00    +0.015 A 
ATOM     25  C   UNL     1       4.082   2.274   0.085  0.00  0.00    +0.001 A 
ATOM     26  C   UNL     1       2.964   3.099   0.057  0.00  0.00    +0.002 A 
ATOM     27  C   UNL     1       1.695   2.566   0.052  0.00  0.00    +0.028 A 
ATOM     28  C   UNL     1       1.526   1.180   0.074  0.00  0.00    +0.078 A 
ATOM     29  N   UNL     1       0.294   0.613   0.069  0.00  0.00    -0.233 NA
ENDBRANCH  17  18
ENDBRANCH  16  17
ENDBRANCH   5  16
TORSDOF 6
