REMARK  Name = ZINC27572525
REMARK  10 active torsions:
REMARK  status: ('A' for Active; 'I' for Inactive)
REMARK    1  A    between atoms: C_1  and  O_2
REMARK    2  A    between atoms: O_2  and  C_3
REMARK    3  A    between atoms: C_3  and  C_4
REMARK    4  A    between atoms: C_4  and  N_5
REMARK    5  A    between atoms: C_6  and  C_8
REMARK    6  A    between atoms: C_12  and  N_13
REMARK    7  A    between atoms: C_14  and  C_16
REMARK    8  A    between atoms: C_16  and  N_17
REMARK    9  A    between atoms: C_21  and  C_24
REMARK   10  A    between atoms: N_26  and  C_27
REMARK                            x       y       z     vdW  Elec       q    Type
REMARK                         _______ _______ _______ _____ _____    ______ ____
ROOT
ATOM      1  N   UNL     1      -0.010   0.964   0.022  0.00  0.00    -0.281 N 
ATOM      2  C   UNL     1      -1.186   1.623   0.032  0.00  0.00    +0.201 C 
ATOM      3  O   UNL     1      -1.201   2.835   0.047  0.00  0.00    -0.278 OA
ATOM      4  H   UNL     1       0.004  -0.136   0.013  0.00  0.00    +0.155 HD
ENDROOT
BRANCH   1   9
ATOM      5  C   UNL     1       2.479   1.179   0.007  0.00  0.00    +0.069 A 
ATOM      6  C   UNL     1       3.565   2.143   0.011  0.00  0.00    -0.023 A 
ATOM      7  C   UNL     1       3.183   3.439   0.030  0.00  0.00    -0.004 A 
ATOM      8  S   UNL     1       1.414   3.389   0.034  0.00  0.00    -0.077 S 
ATOM      9  C   UNL     1       1.182   1.673   0.022  0.00  0.00    +0.084 A 
ATOM     10  C   UNL     1       4.074   4.643   0.040  0.00  0.00    +0.043 C 
ATOM     11  C   UNL     1       5.496   4.190   0.402  0.00  0.00    +0.005 C 
ATOM     12  C   UNL     1       5.859   2.972  -0.452  0.00  0.00    +0.005 C 
ATOM     13  C   UNL     1       5.040   1.760  -0.004  0.00  0.00    +0.037 C 
BRANCH   5  15
ATOM     14  N   UNL     1       2.872  -0.940   1.147  0.00  0.00    -0.309 N 
ATOM     15  C   UNL     1       2.743  -0.264  -0.012  0.00  0.00    +0.247 C 
ATOM     16  O   UNL     1       2.845  -0.850  -1.073  0.00  0.00    -0.270 OA
ATOM     17  H   UNL     1       2.779  -0.410   2.106  0.00  0.00    +0.149 HD
BRANCH  14  18
ATOM     18  C   UNL     1       3.136  -2.381   1.128  0.00  0.00    +0.132 C 
BRANCH  18  19
ATOM     19  C   UNL     1       3.237  -2.900   2.564  0.00  0.00    +0.178 C 
BRANCH  19  21
ATOM     20  C   UNL     1       1.958  -3.213   4.566  0.00  0.00    +0.194 C 
ATOM     21  O   UNL     1       1.972  -2.756   3.213  0.00  0.00    -0.381 OA
ENDBRANCH  19  21
ENDBRANCH  18  19
ENDBRANCH  14  18
ENDBRANCH   5  15
ENDBRANCH   1   9
BRANCH   2  22
ATOM     22  C   UNL     1      -2.481   0.853   0.026  0.00  0.00    +0.019 C 
BRANCH  22  23
ATOM     23  N   UNL     1      -3.610   1.793   0.040  0.00  0.00    +0.386 N 
ATOM     24  C   UNL     1      -3.660   2.573  -1.204  0.00  0.00    -0.078 C 
ATOM     25  C   UNL     1      -4.754   3.638  -1.095  0.00  0.00    -0.018 C 
ATOM     26  C   UNL     1      -6.101   2.955  -0.844  0.00  0.00    +0.009 C 
ATOM     27  C   UNL     1      -6.007   2.111   0.430  0.00  0.00    +0.059 C 
ATOM     28  C   UNL     1      -4.877   1.091   0.278  0.00  0.00    -0.065 C 
ATOM     29  H   UNL     1      -3.455   2.497   0.871  0.00  0.00    -0.081 HD
BRANCH  27  30
ATOM     30  C   UNL     1      -7.311   1.389   0.653  0.00  0.00    +0.218 C 
ATOM     31  O   UNL     1      -7.334   0.177   0.691  0.00  0.00    -0.275 OA
ATOM     32  N   UNL     1      -8.451   2.090   0.812  0.00  0.00    -0.285 N 
ATOM     33  H   UNL     1      -8.419   3.189   0.854  0.00  0.00    +0.155 HD
BRANCH  32  34
ATOM     34  C   UNL     1      -9.674   1.421   0.921  0.00  0.00    +0.033 A 
ATOM     35  C   UNL     1     -10.825   1.982   0.384  0.00  0.00    +0.023 A 
ATOM     36  C   UNL     1     -12.031   1.315   0.490  0.00  0.00    +0.002 A 
ATOM     37  C   UNL     1     -12.094   0.097   1.139  0.00  0.00    +0.000 A 
ATOM     38  C   UNL     1     -10.951  -0.462   1.681  0.00  0.00    +0.002 A 
ATOM     39  C   UNL     1      -9.741   0.196   1.573  0.00  0.00    +0.023 A 
ENDBRANCH  32  34
ENDBRANCH  27  30
ENDBRANCH  22  23
ENDBRANCH   2  22
TORSDOF 9
