REMARK  Name = ZINC13041467
REMARK  15 active torsions:
REMARK  status: ('A' for Active; 'I' for Inactive)
REMARK    1  A    between atoms: C_1  and  C_2
REMARK    2  A    between atoms: C_2  and  O_3
REMARK    3  A    between atoms: O_3  and  C_4
REMARK    4  A    between atoms: C_4  and  C_6
REMARK    5  A    between atoms: C_10  and  N_11
REMARK    6  A    between atoms: C_12  and  C_14
REMARK    7  A    between atoms: C_14  and  C_16
REMARK    8  A    between atoms: C_14  and  N_69
REMARK    9  A    between atoms: C_17  and  N_69
REMARK   10  A    between atoms: C_18  and  C_19
REMARK   11  A    between atoms: C_18  and  N_69
REMARK   12  A    between atoms: N_21  and  C_22
REMARK   13  A    between atoms: C_24  and  C_29
REMARK   14  A    between atoms: C_27  and  C_28
REMARK   15  A    between atoms: C_31  and  C_35
REMARK                            x       y       z     vdW  Elec       q    Type
REMARK                         _______ _______ _______ _____ _____    ______ ____
ROOT
ATOM      1  N   UNL     1      -2.317  -5.905   0.798  0.00  0.00    -0.281 N 
ATOM      2  C   UNL     1      -3.578  -6.195   0.422  0.00  0.00    +0.204 C 
ATOM      3  O   UNL     1      -4.304  -5.318   0.005  0.00  0.00    -0.277 OA
ATOM      4  H   UNL     1      -1.737  -6.607   1.132  0.00  0.00    +0.155 HD
ENDROOT
BRANCH   1   9
ATOM      5  C   UNL     1      -0.594  -4.112   1.043  0.00  0.00    +0.091 A 
ATOM      6  C   UNL     1      -0.357  -2.691   0.852  0.00  0.00    -0.021 A 
ATOM      7  C   UNL     1      -1.403  -1.994   0.360  0.00  0.00    -0.004 A 
ATOM      8  S   UNL     1      -2.688  -3.194   0.151  0.00  0.00    -0.077 S 
ATOM      9  C   UNL     1      -1.849  -4.603   0.708  0.00  0.00    +0.086 A 
ATOM     10  C   UNL     1      -1.451  -0.528   0.060  0.00  0.00    +0.046 C 
ATOM     11  C   UNL     1      -0.013   0.009   0.041  0.00  0.00    -0.009 C 
ATOM     12  C   UNL     1       0.719  -0.497   1.287  0.00  0.00    +0.008 C 
ATOM     13  C   UNL     1       0.964  -2.002   1.171  0.00  0.00    +0.037 C 
ATOM     14  C   UNL     1      -0.036   1.539   0.045  0.00  0.00    +0.008 C 
BRANCH   5  15
ATOM     15  C   UNL     1       0.450  -4.993   1.570  0.00  0.00    +0.342 C 
ATOM     16  O   UNL     1       0.548  -5.170   2.770  0.00  0.00    -0.245 OA
BRANCH  15  17
ATOM     17  O   UNL     1       1.304  -5.607   0.726  0.00  0.00    -0.461 OA
BRANCH  17  19
ATOM     18  C   UNL     1       3.182  -7.070   0.212  0.00  0.00    +0.048 C 
ATOM     19  C   UNL     1       2.314  -6.466   1.318  0.00  0.00    +0.229 C 
ENDBRANCH  17  19
ENDBRANCH  15  17
ENDBRANCH   5  15
ENDBRANCH   1   9
BRANCH   2  20
ATOM     20  C   UNL     1      -4.087  -7.611   0.520  0.00  0.00    +0.017 C 
ATOM     21  C   UNL     1      -3.222  -8.525  -0.350  0.00  0.00    -0.004 C 
BRANCH  20  23
ATOM     22  C   UNL     1      -5.565  -7.360  -1.381  0.00  0.00    -0.094 C 
ATOM     23  N   UNL     1      -5.493  -7.644   0.068  0.00  0.00    +0.391 N 
ATOM     24  H   UNL     1      -6.024  -6.926   0.575  0.00  0.00    -0.080 HD
BRANCH  23  25
ATOM     25  C   UNL     1      -6.084  -8.969   0.352  0.00  0.00    +0.020 C 
BRANCH  25  26
ATOM     26  C   UNL     1      -7.566  -8.907   0.088  0.00  0.00    +0.201 C 
ATOM     27  O   UNL     1      -8.069  -7.877  -0.311  0.00  0.00    -0.278 OA
ATOM     28  N   UNL     1      -8.334  -9.995   0.294  0.00  0.00    -0.287 N 
ATOM     29  H   UNL     1      -7.923 -10.840   0.535  0.00  0.00    +0.155 HD
BRANCH  28  30
ATOM     30  C   UNL     1      -9.724  -9.907   0.160  0.00  0.00    +0.036 A 
ATOM     31  C   UNL     1     -10.363  -8.686   0.329  0.00  0.00    +0.027 A 
ATOM     32  C   UNL     1     -11.735  -8.601   0.192  0.00  0.00    -0.049 A 
ATOM     33  C   UNL     1     -12.473  -9.733  -0.104  0.00  0.00    +0.004 A 
ATOM     34  C   UNL     1     -11.840 -10.951  -0.268  0.00  0.00    +0.005 A 
ATOM     35  C   UNL     1     -10.468 -11.041  -0.137  0.00  0.00    -0.029 A 
ATOM     36  C   UNL     1      -9.779 -12.370  -0.315  0.00  0.00    +0.045 C 
ATOM     37  C   UNL     1     -12.429  -7.275   0.370  0.00  0.00    +0.044 C 
ENDBRANCH  28  30
ENDBRANCH  25  26
ENDBRANCH  23  25
ENDBRANCH  20  23
ENDBRANCH   2  20
TORSDOF 9
