REMARK  Name = ZINC39745269
REMARK  13 active torsions:
REMARK  status: ('A' for Active; 'I' for Inactive)
REMARK    1  A    between atoms: C_1  and  C_2
REMARK    2  A    between atoms: C_2  and  C_3
REMARK    3  A    between atoms: C_4  and  C_36
REMARK    4  A    between atoms: C_9  and  C_11
REMARK    5  A    between atoms: C_11  and  C_13
REMARK    6  A    between atoms: C_11  and  S_14
REMARK    7  A    between atoms: S_14  and  C_15
REMARK    8  A    between atoms: C_18  and  C_23
REMARK    9  A    between atoms: N_19  and  C_20
REMARK   10  A    between atoms: C_20  and  C_21
REMARK   11  A    between atoms: C_23  and  C_25
REMARK   12  A    between atoms: C_23  and  N_26
REMARK   13  A    between atoms: C_27  and  C_29
REMARK                            x       y       z     vdW  Elec       q    Type
REMARK                         _______ _______ _______ _____ _____    ______ ____
ROOT
ATOM      1  C   UNL     1       8.043  -2.195  -5.715  0.00  0.00    +0.193 A 
ATOM      2  N   UNL     1       8.825  -2.439  -4.689  0.00  0.00    -0.122 NA
ATOM      3  N   UNL     1      10.043  -2.551  -5.084  0.00  0.00    -0.132 NA
ATOM      4  C   UNL     1      10.111  -2.386  -6.375  0.00  0.00    +0.155 A 
ATOM      5  N   UNL     1       8.839  -2.159  -6.824  0.00  0.00    -0.301 N 
ENDROOT
BRANCH   4   6
ATOM      6  C   UNL     1      11.359  -2.441  -7.218  0.00  0.00    +0.138 C 
ATOM      7  C   UNL     1      11.799  -3.897  -7.383  0.00  0.00    +0.036 C 
BRANCH   6   8
ATOM      8  N   UNL     1      12.425  -1.680  -6.562  0.00  0.00    -0.302 N 
ATOM      9  C   UNL     1      13.429  -1.159  -7.294  0.00  0.00    +0.245 C 
ATOM     10  O   UNL     1      13.450  -1.319  -8.499  0.00  0.00    -0.270 OA
ATOM     11  H   UNL     1      12.409  -1.552  -5.601  0.00  0.00    +0.150 HD
BRANCH   9  12
ATOM     12  C   UNL     1      14.505  -0.391  -6.633  0.00  0.00    +0.037 A 
ATOM     13  C   UNL     1      14.487  -0.209  -5.248  0.00  0.00    +0.014 A 
ATOM     14  C   UNL     1      15.494   0.507  -4.636  0.00  0.00    +0.021 A 
ATOM     15  C   UNL     1      16.521   1.047  -5.392  0.00  0.00    +0.041 A 
ATOM     16  C   UNL     1      16.544   0.870  -6.766  0.00  0.00    +0.021 A 
ATOM     17  C   UNL     1      15.546   0.150  -7.388  0.00  0.00    +0.014 A 
ATOM     18 CL   UNL     1      17.784   1.949  -4.615  0.00  0.00    -0.084 Cl
ENDBRANCH   9  12
ENDBRANCH   6   8
ENDBRANCH   4   6
BRANCH   1  19
ATOM     19  S   UNL     1       6.297  -1.964  -5.670  0.00  0.00    -0.074 S 
BRANCH  19  20
ATOM     20  C   UNL     1       5.877  -2.135  -3.914  0.00  0.00    +0.137 C 
ATOM     21  C   UNL     1       6.172  -3.564  -3.455  0.00  0.00    +0.029 C 
BRANCH  20  28
ATOM     22  C   UNL     1       0.707  -0.490  -1.238  0.00  0.00    +0.053 A 
ATOM     23  C   UNL     1       0.033  -0.724  -2.390  0.00  0.00    +0.011 A 
ATOM     24  S   UNL     1       1.365  -1.259  -3.453  0.00  0.00    -0.057 S 
ATOM     25  C   UNL     1       2.618  -1.130  -2.337  0.00  0.00    +0.165 A 
ATOM     26  N   UNL     1       2.010  -0.702  -1.252  0.00  0.00    -0.229 NA
ATOM     27  N   UNL     1       3.968  -1.406  -2.519  0.00  0.00    -0.264 N 
ATOM     28  C   UNL     1       4.413  -1.836  -3.716  0.00  0.00    +0.232 C 
ATOM     29  O   UNL     1       3.635  -1.983  -4.635  0.00  0.00    -0.274 OA
ATOM     30  C   UNL     1      -1.436  -0.574  -2.692  0.00  0.00    +0.053 C 
ATOM     31  H   UNL     1       4.591  -1.288  -1.784  0.00  0.00    +0.157 HD
BRANCH  22  33
ATOM     32  C   UNL     1      -0.019   1.526   0.010  0.00  0.00    +0.010 C 
ATOM     33  C   UNL     1       0.002  -0.004   0.002  0.00  0.00    +0.053 C 
ENDBRANCH  22  33
ENDBRANCH  20  28
ENDBRANCH  19  20
ENDBRANCH   1  19
BRANCH   5  34
ATOM     34  C   UNL     1       8.418  -1.923  -8.207  0.00  0.00    +0.152 C 
BRANCH  34  35
ATOM     35  C   UNL     1       8.463  -0.445  -8.501  0.00  0.00    -0.013 C 
ATOM     36  C   UNL     1       9.159  -0.000  -9.517  0.00  0.00    +0.005 C 
ENDBRANCH  34  35
ENDBRANCH   5  34
TORSDOF 9
