REMARK  Name = ZINC09704261
REMARK  9 active torsions:
REMARK  status: ('A' for Active; 'I' for Inactive)
REMARK    1  A    between atoms: C_1  and  C_2
REMARK    2  A    between atoms: C_3  and  N_15
REMARK    3  A    between atoms: N_6  and  C_9
REMARK    4  A    between atoms: N_7  and  C_8
REMARK    5  A    between atoms: N_15  and  S_16
REMARK    6  A    between atoms: S_16  and  C_19
REMARK    7  A    between atoms: C_22  and  S_28
REMARK    8  A    between atoms: C_23  and  N_25
REMARK    9  A    between atoms: S_28  and  C_29
REMARK                            x       y       z     vdW  Elec       q    Type
REMARK                         _______ _______ _______ _____ _____    ______ ____
ROOT
ATOM      1  S   UNL     1      -5.186   7.218   0.327  0.00  0.00    +0.073 S 
ATOM      2  O   UNL     1      -5.088   8.402  -0.453  0.00  0.00    -0.150 OA
ATOM      3  O   UNL     1      -5.868   6.059  -0.131  0.00  0.00    -0.150 OA
ENDROOT
BRANCH   1   4
ATOM      4  C   UNL     1      -3.537   6.720   0.696  0.00  0.00    +0.111 A 
ATOM      5  C   UNL     1      -3.295   5.455   1.200  0.00  0.00    +0.030 A 
ATOM      6  C   UNL     1      -2.004   5.061   1.490  0.00  0.00    +0.019 A 
ATOM      7  C   UNL     1      -0.947   5.938   1.275  0.00  0.00    +0.043 A 
ATOM      8  C   UNL     1      -1.194   7.210   0.774  0.00  0.00    +0.142 A 
ATOM      9  C   UNL     1      -2.488   7.595   0.480  0.00  0.00    +0.062 A 
BRANCH   8  10
ATOM     10  N   UNL     1      -0.072   8.149   0.550  0.00  0.00    +0.058 N 
ATOM     11  O   UNL     1      -0.290   9.264   0.111  0.00  0.00    -0.126 OA
ATOM     12  O   UNL     1       1.069   7.807   0.804  0.00  0.00    -0.126 OA
ENDBRANCH   8  10
BRANCH   7  13
ATOM     13  S   UNL     1       0.703   5.439   1.643  0.00  0.00    -0.087 S 
BRANCH  13  14
ATOM     14  C   UNL     1       1.383   5.024   0.072  0.00  0.00    +0.013 A 
ATOM     15  C   UNL     1       2.730   4.698  -0.040  0.00  0.00    +0.015 A 
ATOM     16  C   UNL     1       3.260   4.373  -1.272  0.00  0.00    +0.001 A 
ATOM     17  C   UNL     1       2.453   4.372  -2.396  0.00  0.00    +0.000 A 
ATOM     18  C   UNL     1       1.114   4.701  -2.289  0.00  0.00    +0.001 A 
ATOM     19  C   UNL     1       0.575   5.021  -1.058  0.00  0.00    +0.015 A 
ENDBRANCH  13  14
ENDBRANCH   7  13
ENDBRANCH   1   4
BRANCH   1  20
ATOM     20  N   UNL     1      -5.898   7.652   1.758  0.00  0.00    -0.209 N 
ATOM     21  H   UNL     1      -6.632   7.127   2.113  0.00  0.00    +0.174 HD
BRANCH  20  24
ATOM     22  C   UNL     1      -6.889   8.497   4.529  0.00  0.00    +0.067 C 
ATOM     23  C   UNL     1      -5.853   9.187   3.680  0.00  0.00    +0.061 A 
ATOM     24  C   UNL     1      -5.438   8.787   2.459  0.00  0.00    +0.135 A 
ATOM     25  C   UNL     1      -4.454   9.703   2.008  0.00  0.00    +0.295 A 
ATOM     26  O   UNL     1      -3.856   9.651   0.948  0.00  0.00    -0.264 OA
ATOM     27  N   UNL     1      -4.301  10.644   2.961  0.00  0.00    -0.216 N 
ATOM     28  N   UNL     1      -5.169  10.330   4.015  0.00  0.00    -0.282 N 
ATOM     29  C   UNL     1      -5.321  11.089   5.259  0.00  0.00    +0.171 C 
BRANCH  27  30
ATOM     30  C   UNL     1      -3.427  11.735   2.910  0.00  0.00    +0.067 A 
ATOM     31  C   UNL     1      -3.389  12.544   1.782  0.00  0.00    +0.028 A 
ATOM     32  C   UNL     1      -2.529  13.624   1.737  0.00  0.00    +0.002 A 
ATOM     33  C   UNL     1      -1.698  13.893   2.810  0.00  0.00    +0.000 A 
ATOM     34  C   UNL     1      -1.730  13.086   3.932  0.00  0.00    +0.002 A 
ATOM     35  C   UNL     1      -2.592  12.008   3.986  0.00  0.00    +0.028 A 
ENDBRANCH  27  30
ENDBRANCH  20  24
ENDBRANCH   1  20
TORSDOF 7
