REMARK  Name = ZINC19845744
REMARK  4 active torsions:
REMARK  status: ('A' for Active; 'I' for Inactive)
REMARK    1  A    between atoms: C_1  and  C_2
REMARK    2  A    between atoms: C_11  and  O_13
REMARK    3  A    between atoms: O_13  and  C_14
REMARK    4  A    between atoms: C_19  and  N_20
REMARK                            x       y       z     vdW  Elec       q    Type
REMARK                         _______ _______ _______ _____ _____    ______ ____
ROOT
ATOM      1  C   UNL     1       2.540  -0.413   0.212  0.00  0.00    +0.045 C 
ATOM      2  C   UNL     1       2.460   1.085   0.353  0.00  0.00    -0.033 A 
ATOM      3  C   UNL     1       3.579   1.827   0.560  0.00  0.00    +0.096 A 
ATOM      4  C   UNL     1       3.478   3.228   0.689  0.00  0.00    +0.337 A 
ATOM      5  O   UNL     1       4.489   3.881   0.876  0.00  0.00    -0.245 OA
ATOM      6  O   UNL     1       2.296   3.859   0.612  0.00  0.00    -0.422 OA
ATOM      7  C   UNL     1       1.146   3.181   0.407  0.00  0.00    +0.143 A 
ATOM      8  C   UNL     1       1.174   1.781   0.270  0.00  0.00    +0.021 A 
ATOM      9  C   UNL     1      -0.015   1.074   0.058  0.00  0.00    +0.015 A 
ATOM     10  C   UNL     1      -1.200   1.747  -0.021  0.00  0.00    +0.047 A 
ATOM     11  C   UNL     1      -1.234   3.133   0.119  0.00  0.00    +0.132 A 
ATOM     12  C   UNL     1      -0.066   3.849   0.330  0.00  0.00    +0.093 A 
ENDROOT
BRANCH  11  13
ATOM     13  O   UNL     1      -2.420   3.788   0.044  0.00  0.00    -0.454 OA
BRANCH  13  14
ATOM     14  C   UNL     1      -3.555   3.044  -0.054  0.00  0.00    +0.149 A 
ATOM     15  C   UNL     1      -4.095   2.762  -1.299  0.00  0.00    +0.048 A 
ATOM     16  C   UNL     1      -5.246   2.003  -1.397  0.00  0.00    +0.004 A 
ATOM     17  C   UNL     1      -5.867   1.530  -0.256  0.00  0.00    +0.002 A 
ATOM     18  C   UNL     1      -5.338   1.811   0.990  0.00  0.00    +0.026 A 
ATOM     19  C   UNL     1      -4.180   2.569   1.097  0.00  0.00    +0.067 A 
BRANCH  19  20
ATOM     20  N   UNL     1      -3.643   2.855   2.356  0.00  0.00    -0.355 N 
ATOM     21  H   UNL     1      -4.138   2.479   3.264  0.00  0.00    +0.142 HD
ATOM     22  H   UNL     1      -2.725   3.456   2.439  0.00  0.00    +0.142 HD
ENDBRANCH  19  20
ENDBRANCH  13  14
ENDBRANCH  11  13
TORSDOF 3
