REMARK  Name = ZINC03696946
REMARK  2 active torsions:
REMARK  status: ('A' for Active; 'I' for Inactive)
REMARK    1  A    between atoms: C_8  and  C_10
REMARK    2  A    between atoms: N_18  and  C_20
REMARK                            x       y       z     vdW  Elec       q    Type
REMARK                         _______ _______ _______ _____ _____    ______ ____
ROOT
ATOM      1  C   UNL     1       3.796  -3.324  -0.052  0.00  0.00    +0.094 C 
ATOM      2  C   UNL     1       5.156  -3.359  -0.060  0.00  0.00    +0.018 C 
ATOM      3  C   UNL     1       6.072  -2.165  -0.210  0.00  0.00    +0.041 C 
ATOM      4  C   UNL     1       7.182  -2.539  -1.206  0.00  0.00    +0.006 C 
ATOM      5  C   UNL     1       8.284  -3.309  -0.504  0.00  0.00    +0.021 C 
ATOM      6  C   UNL     1       7.809  -4.174   0.639  0.00  0.00    +0.114 C 
ATOM      7  N   UNL     1       6.789  -5.138   0.221  0.00  0.00    -0.371 N 
ATOM      8  C   UNL     1       5.562  -4.706   0.006  0.00  0.00    +0.121 C 
ATOM      9  N   UNL     1       4.428  -5.490  -0.116  0.00  0.00    -0.203 N 
ATOM     10  N   UNL     1       3.325  -4.625  -0.053  0.00  0.00    -0.255 N 
ATOM     11  H   UNL     1       2.393  -4.893  -0.019  0.00  0.00    +0.171 HD
ATOM     12  H   UNL     1       7.011  -6.075   0.105  0.00  0.00    +0.161 HD
ENDROOT
BRANCH   1  20
ATOM     13  C   UNL     1      -0.017   1.362   0.009  0.00  0.00    +0.001 A 
ATOM     14  C   UNL     1       1.171   2.082   0.002  0.00  0.00    +0.004 A 
ATOM     15  C   UNL     1       2.387   1.433  -0.013  0.00  0.00    +0.047 A 
ATOM     16  C   UNL     1       2.431   0.044  -0.021  0.00  0.00    +0.136 A 
ATOM     17  C   UNL     1       1.224  -0.680  -0.013  0.00  0.00    +0.021 A 
ATOM     18  C   UNL     1       0.002  -0.004   0.002  0.00  0.00    +0.011 A 
ATOM     19  C   UNL     1       1.609  -2.091  -0.025  0.00  0.00    +0.059 A 
ATOM     20  C   UNL     1       2.968  -2.110  -0.038  0.00  0.00    +0.152 A 
ATOM     21  O   UNL     1       3.441  -0.848  -0.036  0.00  0.00    -0.454 OA
ENDBRANCH   1  20
BRANCH   9  22
ATOM     22  C   UNL     1       4.390  -6.881  -0.266  0.00  0.00    +0.090 A 
ATOM     23  C   UNL     1       5.022  -7.699   0.661  0.00  0.00    +0.028 A 
ATOM     24  C   UNL     1       4.983  -9.071   0.509  0.00  0.00    +0.002 A 
ATOM     25  C   UNL     1       4.314  -9.632  -0.563  0.00  0.00    +0.003 A 
ATOM     26  C   UNL     1       3.683  -8.822  -1.489  0.00  0.00    +0.040 A 
ATOM     27  C   UNL     1       3.713  -7.447  -1.341  0.00  0.00    +0.146 A 
ATOM     28  F   UNL     1       3.091  -6.656  -2.242  0.00  0.00    -0.203 F 
ENDBRANCH   9  22
TORSDOF 2
