REMARK  Name = ZINC30760488
REMARK  4 active torsions:
REMARK  status: ('A' for Active; 'I' for Inactive)
REMARK    1  A    between atoms: C_9  and  C_12
REMARK    2  A    between atoms: N_14  and  N_15
REMARK    3  A    between atoms: C_16  and  C_17
REMARK    4  A    between atoms: C_20  and  N_23
REMARK                            x       y       z     vdW  Elec       q    Type
REMARK                         _______ _______ _______ _____ _____    ______ ____
ROOT
ATOM      1  C   UNL     1      -0.924   7.502  -0.472  0.00  0.00    +0.276 C 
ATOM      2  O   UNL     1      -0.221   7.703   0.496  0.00  0.00    -0.270 OA
ATOM      3  N   UNL     1      -1.897   8.378  -0.791  0.00  0.00    -0.204 N 
ATOM      4  H   UNL     1      -2.535   8.196  -1.669  0.00  0.00    +0.177 HD
ENDROOT
BRANCH   1  13
ATOM      5  C   UNL     1       0.921   1.678  -2.195  0.00  0.00    +0.004 A 
ATOM      6  C   UNL     1       1.978   2.352  -1.612  0.00  0.00    +0.004 A 
ATOM      7  C   UNL     1       1.810   3.647  -1.161  0.00  0.00    +0.049 A 
ATOM      8  C   UNL     1       0.580   4.275  -1.291  0.00  0.00    +0.163 A 
ATOM      9  C   UNL     1      -0.482   3.598  -1.880  0.00  0.00    +0.162 A 
ATOM     10  C   UNL     1      -0.305   2.300  -2.335  0.00  0.00    +0.049 A 
ATOM     11  O   UNL     1      -1.696   4.197  -2.022  0.00  0.00    -0.484 OA
ATOM     12  C   UNL     1      -1.938   5.358  -1.221  0.00  0.00    +0.283 C 
ATOM     13  C   UNL     1      -0.710   6.272  -1.317  0.00  0.00    +0.297 C 
ATOM     14  O   UNL     1       0.427   5.548  -0.835  0.00  0.00    -0.472 OA
ENDBRANCH   1  13
BRANCH   3  15
ATOM     15  N   UNL     1      -2.096   9.521  -0.006  0.00  0.00    -0.188 NA
ATOM     16  C   UNL     1      -3.105  10.302  -0.241  0.00  0.00    +0.138 C 
BRANCH  16  17
ATOM     17  C   UNL     1      -4.281   9.789  -0.970  0.00  0.00    -0.005 A 
ATOM     18  C   UNL     1      -4.441   8.415  -1.164  0.00  0.00    +0.012 A 
ATOM     19  C   UNL     1      -5.546   7.942  -1.841  0.00  0.00    +0.033 A 
ATOM     20  C   UNL     1      -6.488   8.826  -2.337  0.00  0.00    +0.126 A 
ATOM     21  C   UNL     1      -6.332  10.189  -2.154  0.00  0.00    +0.033 A 
ATOM     22  C   UNL     1      -5.235  10.676  -1.474  0.00  0.00    +0.012 A 
BRANCH  20  23
ATOM     23  N   UNL     1      -7.667   8.312  -3.069  0.00  0.00    +0.056 N 
ATOM     24  O   UNL     1      -8.498   9.087  -3.508  0.00  0.00    -0.126 OA
ATOM     25  O   UNL     1      -7.807   7.113  -3.232  0.00  0.00    -0.126 OA
ENDBRANCH  20  23
ENDBRANCH  16  17
ENDBRANCH   3  15
TORSDOF 4
