REMARK  Name = ZINC38875994
REMARK  8 active torsions:
REMARK  status: ('A' for Active; 'I' for Inactive)
REMARK    1  A    between atoms: C_1  and  C_2
REMARK    2  A    between atoms: C_7  and  C_8
REMARK    3  A    between atoms: N_11  and  C_12
REMARK    4  A    between atoms: C_12  and  C_14
REMARK    5  A    between atoms: C_15  and  C_20
REMARK    6  A    between atoms: C_17  and  C_19
REMARK    7  A    between atoms: N_21  and  C_22
REMARK    8  A    between atoms: C_22  and  C_23
REMARK                            x       y       z     vdW  Elec       q    Type
REMARK                         _______ _______ _______ _____ _____    ______ ____
ROOT
ATOM      1  C   UNL     1      -0.018   1.503   0.010  0.00  0.00    +0.044 C 
ATOM      2  C   UNL     1       0.002  -0.004   0.002  0.00  0.00    -0.046 A 
ATOM      3  C   UNL     1       0.005  -0.671  -1.199  0.00  0.00    +0.030 A 
ATOM      4  C   UNL     1       0.025  -2.076  -1.245  0.00  0.00    +0.059 A 
ATOM      5  C   UNL     1       0.040  -2.741  -0.009  0.00  0.00    +0.039 A 
ATOM      6  C   UNL     1       0.037  -2.073   1.192  0.00  0.00    +0.020 A 
ATOM      7  C   UNL     1       0.023  -0.689   1.205  0.00  0.00    -0.046 A 
ATOM      8  C   UNL     1       0.025   0.061   2.511  0.00  0.00    +0.044 C 
ATOM      9  S   UNL     1       0.062  -4.458  -0.468  0.00  0.00    -0.052 S 
ATOM     10  C   UNL     1       0.051  -4.240  -2.240  0.00  0.00    +0.168 A 
ATOM     11  N   UNL     1       0.059  -5.165  -3.191  0.00  0.00    -0.152 NA
ATOM     12  N   UNL     1       0.031  -2.883  -2.368  0.00  0.00    -0.310 N 
ENDROOT
BRANCH  11  13
ATOM     13  C   UNL     1       0.079  -6.464  -2.863  0.00  0.00    +0.278 C 
ATOM     14  O   UNL     1       0.089  -6.796  -1.689  0.00  0.00    -0.267 OA
BRANCH  13  15
ATOM     15  C   UNL     1       0.088  -7.490  -3.917  0.00  0.00    +0.098 A 
ATOM     16  C   UNL     1       0.102  -8.861  -3.810  0.00  0.00    +0.058 A 
ATOM     17  N   UNL     1       0.106  -9.538  -4.933  0.00  0.00    -0.249 NA
ATOM     18  C   UNL     1       0.098  -8.934  -6.099  0.00  0.00    +0.076 A 
ATOM     19  S   UNL     1       0.075  -7.301  -5.693  0.00  0.00    -0.067 S 
ATOM     20  C   UNL     1       0.101  -9.555  -7.473  0.00  0.00    +0.073 C 
ATOM     21  C   UNL     1       0.112  -9.551  -2.470  0.00  0.00    +0.067 C 
ENDBRANCH  13  15
ENDBRANCH  11  13
BRANCH  12  22
ATOM     22  C   UNL     1       0.016  -2.277  -3.702  0.00  0.00    +0.212 C 
BRANCH  22  23
ATOM     23  C   UNL     1       1.398  -2.053  -4.155  0.00  0.00    -0.084 C 
ATOM     24  C   UNL     1       2.501  -1.875  -4.517  0.00  0.00    +0.005 C 
ENDBRANCH  22  23
ENDBRANCH  12  22
TORSDOF 4
