REMARK  Name = ZINC43222840
REMARK  8 active torsions:
REMARK  status: ('A' for Active; 'I' for Inactive)
REMARK    1  A    between atoms: C_1  and  C_2
REMARK    2  A    between atoms: C_2  and  C_4
REMARK    3  A    between atoms: C_2  and  N_14
REMARK    4  A    between atoms: C_15  and  C_17
REMARK    5  A    between atoms: C_22  and  C_24
REMARK    6  A    between atoms: N_26  and  C_27
REMARK    7  A    between atoms: C_27  and  C_29
REMARK    8  A    between atoms: C_27  and  C_30
REMARK                            x       y       z     vdW  Elec       q    Type
REMARK                         _______ _______ _______ _____ _____    ______ ____
ROOT
ATOM      1  C   UNL     1      -3.353  -1.244  -1.363  0.00  0.00    +0.068 C 
ATOM      2  C   UNL     1      -4.338  -0.249  -0.711  0.00  0.00    -0.069 C 
ATOM      3  N   UNL     1      -4.845   0.570  -1.842  0.00  0.00    +0.380 N 
ATOM      4  C   UNL     1      -5.020  -0.404  -2.950  0.00  0.00    -0.069 C 
ATOM      5  C   UNL     1      -3.800  -1.348  -2.836  0.00  0.00    +0.068 C 
ATOM      6  H   UNL     1      -5.729   0.994  -1.602  0.00  0.00    -0.086 HD
ATOM      7  H   UNL     1      -4.171   1.276  -2.096  0.00  0.00    -0.086 HD
ENDROOT
BRANCH   1   9
ATOM      8  N   UNL     1      -1.367  -0.518  -0.078  0.00  0.00    -0.309 N 
ATOM      9  C   UNL     1      -1.944  -0.715  -1.280  0.00  0.00    +0.215 C 
ATOM     10  O   UNL     1      -1.329  -0.465  -2.296  0.00  0.00    -0.276 OA
ATOM     11  H   UNL     1      -1.859  -0.718   0.734  0.00  0.00    +0.149 HD
BRANCH   8  13
ATOM     12  C   UNL     1      -0.026   1.526  -0.016  0.00  0.00    +0.033 C 
ATOM     13  C   UNL     1       0.002  -0.004   0.002  0.00  0.00    +0.101 C 
BRANCH  13  14
ATOM     14  C   UNL     1       0.643  -0.480   1.280  0.00  0.00    -0.020 A 
ATOM     15  C   UNL     1      -0.126  -0.765   2.367  0.00  0.00    +0.006 A 
ATOM     16  C   UNL     1       0.449  -1.206   3.557  0.00  0.00    +0.001 A 
ATOM     17  C   UNL     1       1.797  -1.365   3.667  0.00  0.00    +0.008 A 
ATOM     18  C   UNL     1       2.623  -1.081   2.567  0.00  0.00    -0.018 A 
ATOM     19  C   UNL     1       2.037  -0.638   1.354  0.00  0.00    -0.013 A 
ATOM     20  C   UNL     1       2.864  -0.360   0.252  0.00  0.00    +0.009 A 
ATOM     21  C   UNL     1       4.210  -0.524   0.361  0.00  0.00    +0.001 A 
ATOM     22  C   UNL     1       4.785  -0.966   1.551  0.00  0.00    +0.001 A 
ATOM     23  C   UNL     1       4.018  -1.232   2.643  0.00  0.00    +0.008 A 
ENDBRANCH  13  14
ENDBRANCH   8  13
ENDBRANCH   1   9
BRANCH   5  24
ATOM     24  C   UNL     1      -4.200  -2.764  -3.162  0.00  0.00    +0.215 C 
ATOM     25  O   UNL     1      -4.138  -3.623  -2.309  0.00  0.00    -0.276 OA
ATOM     26  N   UNL     1      -4.625  -3.075  -4.403  0.00  0.00    -0.312 N 
ATOM     27  H   UNL     1      -4.674  -2.388  -5.085  0.00  0.00    +0.149 HD
BRANCH  26  28
ATOM     28  C   UNL     1      -5.013  -4.452  -4.720  0.00  0.00    +0.073 C 
ATOM     29  C   UNL     1      -3.770  -5.257  -5.103  0.00  0.00    +0.028 C 
BRANCH  28  30
ATOM     30  C   UNL     1      -5.998  -4.447  -5.891  0.00  0.00    +0.009 C 
ATOM     31  C   UNL     1      -7.241  -3.642  -5.508  0.00  0.00    +0.005 C 
ATOM     32  C   UNL     1      -8.226  -3.637  -6.679  0.00  0.00    +0.000 C 
ATOM     33  C   UNL     1      -8.632  -5.074  -7.010  0.00  0.00    +0.000 C 
ATOM     34  C   UNL     1      -7.388  -5.879  -7.393  0.00  0.00    +0.000 C 
ATOM     35  C   UNL     1      -6.403  -5.884  -6.223  0.00  0.00    +0.005 C 
ENDBRANCH  28  30
ENDBRANCH  26  28
ENDBRANCH   5  24
TORSDOF 6
