REMARK  Name = ZINC14365638
REMARK  8 active torsions:
REMARK  status: ('A' for Active; 'I' for Inactive)
REMARK    1  A    between atoms: C_4  and  S_7
REMARK    2  A    between atoms: S_7  and  C_10
REMARK    3  A    between atoms: C_10  and  C_15
REMARK    4  A    between atoms: C_15  and  O_17
REMARK    5  A    between atoms: O_17  and  C_18
REMARK    6  A    between atoms: C_18  and  C_19
REMARK    7  A    between atoms: N_21  and  C_22
REMARK    8  A    between atoms: C_22  and  C_28
REMARK                            x       y       z     vdW  Elec       q    Type
REMARK                         _______ _______ _______ _____ _____    ______ ____
ROOT
ATOM      1  C   UNL     1       4.313   0.375   2.465  0.00  0.00    +0.336 C 
ATOM      2  O   UNL     1       5.274   0.677   3.132  0.00  0.00    -0.248 OA
ENDROOT
BRANCH   1   3
ATOM      3  C   UNL     1       4.313  -0.913   1.682  0.00  0.00    +0.188 C 
ATOM      4  C   UNL     1       5.483  -1.809   2.137  0.00  0.00    +0.041 C 
ATOM      5  C   UNL     1       5.973  -2.486   0.833  0.00  0.00    +0.003 C 
ATOM      6  C   UNL     1       5.836  -1.351  -0.213  0.00  0.00    +0.003 C 
ATOM      7  C   UNL     1       4.537  -0.622   0.188  0.00  0.00    +0.041 C 
BRANCH   3   8
ATOM      8  S   UNL     1       2.737  -1.782   1.916  0.00  0.00    +0.013 S 
ATOM      9  O   UNL     1       2.821  -3.098   1.388  0.00  0.00    -0.168 OA
ATOM     10  O   UNL     1       1.653  -0.930   1.572  0.00  0.00    -0.168 OA
BRANCH   8  14
ATOM     11  C   UNL     1       2.377  -2.356   6.392  0.00  0.00    +0.000 A 
ATOM     12  C   UNL     1       1.899  -1.200   5.803  0.00  0.00    +0.002 A 
ATOM     13  C   UNL     1       2.009  -1.025   4.436  0.00  0.00    +0.027 A 
ATOM     14  C   UNL     1       2.598  -2.005   3.659  0.00  0.00    +0.089 A 
ATOM     15  C   UNL     1       3.077  -3.160   4.248  0.00  0.00    +0.027 A 
ATOM     16  C   UNL     1       2.966  -3.336   5.614  0.00  0.00    +0.002 A 
ENDBRANCH   8  14
ENDBRANCH   3   8
ENDBRANCH   1   3
BRANCH   1  17
ATOM     17  O   UNL     1       3.245   1.187   2.421  0.00  0.00    -0.454 OA
BRANCH  17  18
ATOM     18  C   UNL     1       3.271   2.339   3.266  0.00  0.00    +0.327 C 
BRANCH  18  19
ATOM     19  C   UNL     1       1.956   3.068   3.161  0.00  0.00    +0.252 C 
ATOM     20  O   UNL     1       1.051   2.596   2.507  0.00  0.00    -0.272 OA
ATOM     21  N   UNL     1       1.787   4.246   3.794  0.00  0.00    -0.295 N 
ATOM     22  H   UNL     1       2.511   4.624   4.317  0.00  0.00    +0.150 HD
BRANCH  21  23
ATOM     23  C   UNL     1       0.509   4.956   3.692  0.00  0.00    +0.121 C 
ATOM     24  C   UNL     1       0.222   5.280   2.225  0.00  0.00    +0.041 C 
ATOM     25  C   UNL     1      -1.113   6.021   2.118  0.00  0.00    +0.003 C 
ATOM     26  C   UNL     1      -1.041   7.320   2.923  0.00  0.00    +0.000 C 
ATOM     27  C   UNL     1      -0.753   6.996   4.390  0.00  0.00    +0.003 C 
ATOM     28  C   UNL     1       0.581   6.255   4.497  0.00  0.00    +0.041 C 
BRANCH  23  29
ATOM     29  C   UNL     1      -0.568   4.106   4.227  0.00  0.00    +0.088 C 
ATOM     30  N   UNL     1      -1.399   3.451   4.640  0.00  0.00    -0.194 NA
ENDBRANCH  23  29
ENDBRANCH  21  23
ENDBRANCH  18  19
ENDBRANCH  17  18
ENDBRANCH   1  17
TORSDOF 8
