REMARK  Name = ZINC02718035
REMARK  8 active torsions:
REMARK  status: ('A' for Active; 'I' for Inactive)
REMARK    1  A    between atoms: C_1  and  C_2
REMARK    2  A    between atoms: C_5  and  C_28
REMARK    3  A    between atoms: C_6  and  C_8
REMARK    4  A    between atoms: C_8  and  S_9
REMARK    5  A    between atoms: S_9  and  C_10
REMARK    6  A    between atoms: N_17  and  C_20
REMARK    7  A    between atoms: C_23  and  C_27
REMARK    8  A    between atoms: C_24  and  C_26
REMARK                            x       y       z     vdW  Elec       q    Type
REMARK                         _______ _______ _______ _____ _____    ______ ____
ROOT
ATOM      1  C   UNL     1       1.622  -4.015   4.517  0.00  0.00    +0.194 A 
ATOM      2  N   UNL     1       0.407  -4.301   4.975  0.00  0.00    -0.183 NA
ATOM      3  C   UNL     1       0.241  -4.966   6.109  0.00  0.00    +0.285 A 
ATOM      4  O   UNL     1      -1.000  -5.253   6.567  0.00  0.00    -0.265 OA
ATOM      5  C   UNL     1       1.383  -5.367   6.826  0.00  0.00    +0.105 A 
ATOM      6  C   UNL     1       1.600  -6.069   8.033  0.00  0.00    +0.150 A 
ATOM      7  N   UNL     1       2.884  -6.165   8.230  0.00  0.00    -0.172 NA
ATOM      8  N   UNL     1       3.572  -5.542   7.181  0.00  0.00    -0.214 N 
ATOM      9  C   UNL     1       2.651  -5.043   6.304  0.00  0.00    +0.171 A 
ATOM     10  N   UNL     1       2.723  -4.377   5.154  0.00  0.00    -0.202 NA
ENDROOT
BRANCH   8  11
ATOM     11  C   UNL     1       4.963  -5.446   7.054  0.00  0.00    +0.068 A 
ATOM     12  C   UNL     1       5.553  -5.495   5.797  0.00  0.00    +0.028 A 
ATOM     13  C   UNL     1       6.925  -5.400   5.675  0.00  0.00    +0.006 A 
ATOM     14  C   UNL     1       7.712  -5.256   6.803  0.00  0.00    -0.047 A 
ATOM     15  C   UNL     1       7.129  -5.207   8.056  0.00  0.00    -0.046 A 
ATOM     16  C   UNL     1       5.757  -5.296   8.184  0.00  0.00    +0.031 A 
ATOM     17  C   UNL     1       7.991  -5.051   9.282  0.00  0.00    +0.044 C 
ATOM     18  C   UNL     1       9.210  -5.153   6.666  0.00  0.00    +0.044 C 
ENDBRANCH   8  11
BRANCH   1  19
ATOM     19  S   UNL     1       1.770  -3.127   3.002  0.00  0.00    -0.081 S 
BRANCH  19  20
ATOM     20  C   UNL     1       0.054  -2.845   2.489  0.00  0.00    +0.112 C 
BRANCH  20  26
ATOM     21  C   UNL     1      -0.018   1.503   0.010  0.00  0.00    +0.044 C 
ATOM     22  C   UNL     1       0.002  -0.004   0.002  0.00  0.00    -0.050 A 
ATOM     23  C   UNL     1       0.006  -0.689  -1.199  0.00  0.00    +0.003 A 
ATOM     24  C   UNL     1       0.025  -2.071  -1.207  0.00  0.00    +0.004 A 
ATOM     25  C   UNL     1       0.040  -2.768  -0.013  0.00  0.00    -0.046 A 
ATOM     26  C   UNL     1       0.037  -2.084   1.188  0.00  0.00    -0.034 A 
ATOM     27  C   UNL     1       0.023  -0.702   1.195  0.00  0.00    +0.008 A 
ATOM     28  C   UNL     1       0.059  -4.275  -0.021  0.00  0.00    +0.044 C 
ENDBRANCH  20  26
ENDBRANCH  19  20
ENDBRANCH   1  19
TORSDOF 4
