REMARK  Name = ZINC10396023
REMARK  9 active torsions:
REMARK  status: ('A' for Active; 'I' for Inactive)
REMARK    1  A    between atoms: C_1  and  C_2
REMARK    2  A    between atoms: C_2  and  O_3
REMARK    3  A    between atoms: O_3  and  C_4
REMARK    4  A    between atoms: C_4  and  C_6
REMARK    5  A    between atoms: C_7  and  C_30
REMARK    6  A    between atoms: C_11  and  C_15
REMARK    7  A    between atoms: C_15  and  S_16
REMARK    8  A    between atoms: S_16  and  C_17
REMARK    9  A    between atoms: N_22  and  C_23
REMARK                            x       y       z     vdW  Elec       q    Type
REMARK                         _______ _______ _______ _____ _____    ______ ____
ROOT
ATOM      1  C   UNL     1       3.531  -9.130  11.822  0.00  0.00    +0.102 A 
ATOM      2  C   UNL     1       2.236  -8.744  11.642  0.00  0.00    -0.017 A 
ATOM      3  C   UNL     1       1.930  -7.751  10.704  0.00  0.00    +0.051 A 
ATOM      4  C   UNL     1       0.660  -7.199  10.355  0.00  0.00    +0.128 A 
ATOM      5  N   UNL     1       0.600  -6.253   9.433  0.00  0.00    -0.216 NA
ATOM      6  C   UNL     1       1.676  -5.804   8.811  0.00  0.00    +0.143 A 
ATOM      7  N   UNL     1       2.877  -6.273   9.088  0.00  0.00    -0.224 NA
ATOM      8  C   UNL     1       3.034  -7.213   9.997  0.00  0.00    +0.115 A 
ATOM      9  S   UNL     1       4.417  -8.102  10.663  0.00  0.00    -0.062 S 
ATOM     10  N   UNL     1      -0.489  -7.643  10.977  0.00  0.00    -0.343 N 
ATOM     11  C   UNL     1       1.138  -9.384  12.451  0.00  0.00    +0.046 C 
ATOM     12  H   UNL     1      -0.445  -8.009  11.874  0.00  0.00    +0.144 HD
ATOM     13  H   UNL     1      -1.341  -7.588  10.517  0.00  0.00    +0.144 HD
ENDROOT
BRANCH   1  14
ATOM     14  C   UNL     1       4.064 -10.140  12.742  0.00  0.00    +0.346 C 
ATOM     15  O   UNL     1       3.311 -10.756  13.472  0.00  0.00    -0.244 OA
BRANCH  14  16
ATOM     16  O   UNL     1       5.389 -10.387  12.777  0.00  0.00    -0.461 OA
BRANCH  16  18
ATOM     17  C   UNL     1       7.366 -11.539  13.610  0.00  0.00    +0.048 C 
ATOM     18  C   UNL     1       5.846 -11.400  13.712  0.00  0.00    +0.229 C 
ENDBRANCH  16  18
ENDBRANCH  14  16
ENDBRANCH   1  14
BRANCH   6  19
ATOM     19  C   UNL     1       1.528  -4.728   7.767  0.00  0.00    +0.152 C 
BRANCH  19  20
ATOM     20  S   UNL     1       1.279  -5.493   6.141  0.00  0.00    -0.089 S 
BRANCH  20  21
ATOM     21  C   UNL     1       1.125  -4.123   5.044  0.00  0.00    +0.160 A 
ATOM     22  N   UNL     1       1.175  -2.831   5.308  0.00  0.00    -0.133 NA
ATOM     23  N   UNL     1       1.034  -1.919   4.287  0.00  0.00    -0.125 NA
ATOM     24  C   UNL     1       0.841  -2.339   3.053  0.00  0.00    +0.183 A 
ATOM     25  S   UNL     1       0.861  -4.111   3.277  0.00  0.00    -0.025 S 
ATOM     26  N   UNL     1       0.674  -1.601   1.887  0.00  0.00    -0.319 N 
ATOM     27  H   UNL     1       0.544  -2.055   1.040  0.00  0.00    +0.148 HD
BRANCH  26  28
ATOM     28  C   UNL     1       0.692  -0.137   1.938  0.00  0.00    +0.072 C 
ATOM     29  C   UNL     1      -0.096   0.425   0.753  0.00  0.00    +0.022 C 
ATOM     30  C   UNL     1      -0.076   1.954   0.806  0.00  0.00    +0.002 C 
ATOM     31  C   UNL     1       1.370   2.448   0.737  0.00  0.00    +0.000 C 
ATOM     32  C   UNL     1       2.158   1.886   1.922  0.00  0.00    +0.002 C 
ATOM     33  C   UNL     1       2.139   0.357   1.869  0.00  0.00    +0.022 C 
ENDBRANCH  26  28
ENDBRANCH  20  21
ENDBRANCH  19  20
ENDBRANCH   6  19
TORSDOF 7
