REMARK  Name = ZINC22835690
REMARK  9 active torsions:
REMARK  status: ('A' for Active; 'I' for Inactive)
REMARK    1  A    between atoms: C_1  and  C_2
REMARK    2  A    between atoms: C_9  and  C_16
REMARK    3  A    between atoms: C_11  and  O_12
REMARK    4  A    between atoms: C_16  and  O_17
REMARK    5  A    between atoms: O_17  and  C_18
REMARK    6  A    between atoms: C_18  and  C_20
REMARK    7  A    between atoms: C_23  and  N_29
REMARK    8  A    between atoms: C_24  and  N_26
REMARK    9  A    between atoms: N_29  and  C_30
REMARK                            x       y       z     vdW  Elec       q    Type
REMARK                         _______ _______ _______ _____ _____    ______ ____
ROOT
ATOM      1  C   UNL     1      -0.309  -7.059   0.058  0.00  0.00    +0.269 C 
ENDROOT
BRANCH   1  10
ATOM      2  C   UNL     1      -0.450   1.315  -2.939  0.00  0.00    +0.109 C 
ATOM      3  C   UNL     1      -0.462  -0.189  -2.853  0.00  0.00    +0.214 C 
ATOM      4  O   UNL     1      -1.010  -0.842  -3.716  0.00  0.00    -0.276 OA
ATOM      5  N   UNL     1       0.137  -0.810  -1.818  0.00  0.00    -0.286 N 
ATOM      6  C   UNL     1       0.050  -2.196  -1.690  0.00  0.00    +0.037 A 
ATOM      7  C   UNL     1      -0.028  -2.771  -0.421  0.00  0.00    +0.024 A 
ATOM      8  C   UNL     1      -0.120  -4.125  -0.281  0.00  0.00    +0.014 A 
ATOM      9  C   UNL     1      -0.124  -4.944  -1.416  0.00  0.00    +0.024 A 
ATOM     10  C   UNL     1      -0.216  -6.400  -1.294  0.00  0.00    +0.007 A 
ATOM     11  C   UNL     1      -0.217  -7.141  -2.433  0.00  0.00    +0.095 A 
ATOM     12  C   UNL     1      -0.129  -6.500  -3.686  0.00  0.00    +0.285 A 
ATOM     13  O   UNL     1      -0.045  -5.165  -3.791  0.00  0.00    -0.425 OA
ATOM     14  C   UNL     1      -0.040  -4.371  -2.699  0.00  0.00    +0.141 A 
ATOM     15  C   UNL     1       0.047  -2.993  -2.825  0.00  0.00    +0.070 A 
ATOM     16  H   UNL     1       0.695  -0.223  -1.073  0.00  0.00    +0.155 HD
BRANCH  12  17
ATOM     17  O   UNL     1      -0.131  -7.176  -4.700  0.00  0.00    -0.480 OA
ATOM     18  H   UNL     1      -0.063  -6.691  -5.684  0.00  0.00    +0.295 HD
ENDBRANCH  12  17
ENDBRANCH   1  10
BRANCH   1  19
ATOM     19  O   UNL     1      -0.390  -8.499  -0.111  0.00  0.00    -0.456 OA
BRANCH  19  20
ATOM     20  C   UNL     1      -0.478  -9.242   1.010  0.00  0.00    +0.340 C 
ATOM     21  O   UNL     1      -0.488  -8.701   2.099  0.00  0.00    -0.245 OA
BRANCH  20  22
ATOM     22  C   UNL     1      -0.563 -10.711   0.916  0.00  0.00    +0.061 A 
ATOM     23  C   UNL     1      -0.558 -11.334  -0.335  0.00  0.00    +0.017 A 
ATOM     24  C   UNL     1      -0.631 -12.695  -0.422  0.00  0.00    +0.026 A 
ATOM     25  C   UNL     1      -0.723 -13.466   0.734  0.00  0.00    +0.058 A 
ATOM     26  C   UNL     1      -0.735 -12.854   1.984  0.00  0.00    +0.148 A 
ATOM     27  C   UNL     1      -0.656 -11.483   2.079  0.00  0.00    +0.049 A 
BRANCH  26  28
ATOM     28  N   UNL     1      -0.832 -13.676   3.211  0.00  0.00    +0.058 N 
ATOM     29  O   UNL     1      -0.944 -13.138   4.298  0.00  0.00    -0.126 OA
ATOM     30  O   UNL     1      -0.800 -14.892   3.134  0.00  0.00    -0.126 OA
ENDBRANCH  26  28
BRANCH  25  31
ATOM     31  N   UNL     1      -0.802 -14.851   0.639  0.00  0.00    -0.339 N 
ATOM     32  H   UNL     1      -0.786 -15.466   1.551  0.00  0.00    +0.146 HD
BRANCH  31  33
ATOM     33  C   UNL     1      -0.907 -15.491  -0.674  0.00  0.00    +0.071 C 
ATOM     34  C   UNL     1      -1.996 -16.550  -0.860  0.00  0.00    +0.024 C 
ATOM     35  C   UNL     1      -0.527 -16.969  -0.773  0.00  0.00    +0.024 C 
ENDBRANCH  31  33
ENDBRANCH  25  31
ENDBRANCH  20  22
ENDBRANCH  19  20
ENDBRANCH   1  19
TORSDOF 8
