REMARK  Name = ZINC40272255
REMARK  9 active torsions:
REMARK  status: ('A' for Active; 'I' for Inactive)
REMARK    1  A    between atoms: C_1  and  C_2
REMARK    2  A    between atoms: C_2  and  C_3
REMARK    3  A    between atoms: C_3  and  C_4
REMARK    4  A    between atoms: C_4  and  C_5
REMARK    5  A    between atoms: C_5  and  C_6
REMARK    6  A    between atoms: C_6  and  N_7
REMARK    7  A    between atoms: C_15  and  C_16
REMARK    8  A    between atoms: N_21  and  C_23
REMARK    9  A    between atoms: C_23  and  C_24
REMARK                            x       y       z     vdW  Elec       q    Type
REMARK                         _______ _______ _______ _____ _____    ______ ____
ROOT
ATOM      1  N   UNL     1       2.162  -4.523  -3.738  0.00  0.00    -0.327 N 
ATOM      2  C   UNL     1       1.577  -4.791  -4.959  0.00  0.00    +0.069 A 
ATOM      3  C   UNL     1       0.279  -4.723  -5.446  0.00  0.00    +0.028 A 
ATOM      4  C   UNL     1       0.021  -5.071  -6.755  0.00  0.00    +0.002 A 
ATOM      5  C   UNL     1       1.050  -5.489  -7.587  0.00  0.00    +0.002 A 
ATOM      6  C   UNL     1       2.333  -5.563  -7.125  0.00  0.00    +0.030 A 
ATOM      7  C   UNL     1       2.619  -5.214  -5.803  0.00  0.00    +0.089 A 
ATOM      8  N   UNL     1       3.760  -5.183  -5.068  0.00  0.00    -0.232 NA
ATOM      9  C   UNL     1       3.493  -4.773  -3.862  0.00  0.00    +0.116 A 
ENDROOT
BRANCH   9  10
ATOM     10  C   UNL     1       4.510  -4.604  -2.763  0.00  0.00    +0.081 C 
ATOM     11  C   UNL     1       5.654  -3.663  -3.208  0.00  0.00    +0.108 C 
ATOM     12  C   UNL     1       6.893  -4.263  -2.581  0.00  0.00    +0.217 C 
ATOM     13  O   UNL     1       7.952  -3.689  -2.449  0.00  0.00    -0.276 OA
ATOM     14  N   UNL     1       6.648  -5.527  -2.192  0.00  0.00    -0.296 N 
ATOM     15  C   UNL     1       5.269  -5.923  -2.504  0.00  0.00    +0.119 C 
BRANCH  14  16
ATOM     16  C   UNL     1       7.631  -6.396  -1.540  0.00  0.00    +0.142 C 
BRANCH  16  17
ATOM     17  C   UNL     1       7.543  -6.221  -0.046  0.00  0.00    -0.030 A 
ATOM     18  C   UNL     1       8.311  -5.259   0.584  0.00  0.00    +0.005 A 
ATOM     19  C   UNL     1       8.230  -5.099   1.954  0.00  0.00    +0.000 A 
ATOM     20  C   UNL     1       7.381  -5.900   2.695  0.00  0.00    +0.000 A 
ATOM     21  C   UNL     1       6.612  -6.861   2.065  0.00  0.00    +0.000 A 
ATOM     22  C   UNL     1       6.690  -7.018   0.694  0.00  0.00    +0.005 A 
ENDBRANCH  16  17
ENDBRANCH  14  16
ENDBRANCH   9  10
BRANCH   1  23
ATOM     23  C   UNL     1       1.476  -4.051  -2.532  0.00  0.00    +0.123 C 
BRANCH  23  24
ATOM     24  C   UNL     1       1.455  -2.521  -2.524  0.00  0.00    +0.022 C 
BRANCH  24  25
ATOM     25  C   UNL     1       0.739  -2.027  -1.265  0.00  0.00    +0.002 C 
BRANCH  25  26
ATOM     26  C   UNL     1       0.718  -0.497  -1.257  0.00  0.00    -0.000 C 
BRANCH  26  28
ATOM     27  C   UNL     1      -0.019   1.526   0.010  0.00  0.00    +0.004 C 
ATOM     28  C   UNL     1       0.002  -0.004   0.002  0.00  0.00    -0.003 C 
ENDBRANCH  26  28
ENDBRANCH  25  26
ENDBRANCH  24  25
ENDBRANCH  23  24
ENDBRANCH   1  23
TORSDOF 8
