REMARK  Name = ZINC12953841
REMARK  9 active torsions:
REMARK  status: ('A' for Active; 'I' for Inactive)
REMARK    1  A    between atoms: C_1  and  C_2
REMARK    2  A    between atoms: C_6  and  C_23
REMARK    3  A    between atoms: C_7  and  C_22
REMARK    4  A    between atoms: N_8  and  N_9
REMARK    5  A    between atoms: N_9  and  C_10
REMARK    6  A    between atoms: C_14  and  C_17
REMARK    7  A    between atoms: N_25  and  N_26
REMARK    8  A    between atoms: N_26  and  C_27
REMARK    9  A    between atoms: C_31  and  C_34
REMARK                            x       y       z     vdW  Elec       q    Type
REMARK                         _______ _______ _______ _____ _____    ______ ____
ROOT
ATOM      1  C   UNL     1       2.679  -1.437   2.288  0.00  0.00    +0.065 C 
ATOM      2  C   UNL     1       3.304  -2.137   1.109  0.00  0.00    +0.040 A 
ATOM      3  C   UNL     1       4.500  -2.741   1.263  0.00  0.00    +0.074 A 
ATOM      4  C   UNL     1       5.092  -3.401   0.158  0.00  0.00    +0.194 A 
ATOM      5  O   UNL     1       6.173  -3.958   0.262  0.00  0.00    -0.287 OA
ATOM      6  C   UNL     1       4.362  -3.393  -1.119  0.00  0.00    +0.105 A 
ATOM      7  C   UNL     1       3.142  -2.750  -1.170  0.00  0.00    +0.052 A 
ATOM      8  N   UNL     1       2.649  -2.142  -0.078  0.00  0.00    -0.266 N 
ATOM      9  C   UNL     1       2.361  -2.725  -2.459  0.00  0.00    +0.066 C 
ENDROOT
BRANCH   8  10
ATOM     10  N   UNL     1       1.409  -1.496  -0.168  0.00  0.00    -0.225 N 
ATOM     11  C   UNL     1       0.175  -2.234   0.114  0.00  0.00    +0.158 C 
ATOM     12  C   UNL     1       1.350  -0.152  -0.524  0.00  0.00    +0.158 A 
ATOM     13  C   UNL     1       2.526   0.544  -0.790  0.00  0.00    +0.083 A 
ATOM     14  C   UNL     1       2.451   1.880  -1.143  0.00  0.00    +0.037 A 
ATOM     15  C   UNL     1       1.199   2.476  -1.218  0.00  0.00    +0.074 A 
ATOM     16  C   UNL     1       0.075   1.726  -0.940  0.00  0.00    +0.125 A 
ATOM     17  N   UNL     1       0.175   0.453  -0.606  0.00  0.00    -0.237 NA
ATOM     18 CL   UNL     1       4.064  -0.253  -0.681  0.00  0.00    -0.080 Cl
BRANCH  15  19
ATOM     19  C   UNL     1       1.070   3.929  -1.598  0.00  0.00    +0.419 C 
ATOM     20  F   UNL     1       0.945   4.038  -2.987  0.00  0.00    -0.166 F 
ATOM     21  F   UNL     1      -0.062   4.473  -0.983  0.00  0.00    -0.166 F 
ATOM     22  F   UNL     1       2.209   4.624  -1.177  0.00  0.00    -0.166 F 
ENDBRANCH  15  19
ENDBRANCH   8  10
BRANCH   6  23
ATOM     23  C   UNL     1       4.916  -4.058  -2.311  0.00  0.00    +0.266 C 
ATOM     24  O   UNL     1       4.658  -5.226  -2.531  0.00  0.00    -0.268 OA
ATOM     25  N   UNL     1       5.709  -3.372  -3.158  0.00  0.00    -0.229 N 
ATOM     26  H   UNL     1       5.915  -2.440  -2.983  0.00  0.00    +0.173 HD
BRANCH  25  27
ATOM     27  N   UNL     1       6.236  -4.004  -4.292  0.00  0.00    -0.236 N 
ATOM     28  C   UNL     1       5.376  -4.275  -5.446  0.00  0.00    +0.155 C 
ATOM     29  C   UNL     1       7.576  -4.376  -4.321  0.00  0.00    +0.156 A 
ATOM     30  C   UNL     1       8.539  -3.455  -4.726  0.00  0.00    +0.083 A 
ATOM     31  C   UNL     1       9.868  -3.837  -4.746  0.00  0.00    +0.037 A 
ATOM     32  C   UNL     1      10.191  -5.134  -4.368  0.00  0.00    +0.074 A 
ATOM     33  C   UNL     1       9.185  -5.996  -3.982  0.00  0.00    +0.125 A 
ATOM     34  N   UNL     1       7.925  -5.603  -3.968  0.00  0.00    -0.237 NA
ATOM     35 CL   UNL     1       8.077  -1.848  -5.195  0.00  0.00    -0.080 Cl
BRANCH  32  36
ATOM     36  C   UNL     1      11.626  -5.595  -4.379  0.00  0.00    +0.419 C 
ATOM     37  F   UNL     1      11.690  -6.929  -3.961  0.00  0.00    -0.166 F 
ATOM     38  F   UNL     1      12.140  -5.488  -5.676  0.00  0.00    -0.166 F 
ATOM     39  F   UNL     1      12.379  -4.797  -3.511  0.00  0.00    -0.166 F 
ENDBRANCH  32  36
ENDBRANCH  25  27
ENDBRANCH   6  23
TORSDOF 5
