REMARK  Name = ZINC39610125
REMARK  4 active torsions:
REMARK  status: ('A' for Active; 'I' for Inactive)
REMARK    1  A    between atoms: C_6  and  C_7
REMARK    2  A    between atoms: C_7  and  N_8
REMARK    3  A    between atoms: C_9  and  C_11
REMARK    4  A    between atoms: C_22  and  C_24
REMARK                            x       y       z     vdW  Elec       q    Type
REMARK                         _______ _______ _______ _____ _____    ______ ____
ROOT
ATOM      1  C   UNL     1      -3.308  -1.937  -3.031  0.00  0.00    +0.100 C 
ATOM      2  C   UNL     1      -2.225  -2.714  -3.811  0.00  0.00    +0.121 C 
ATOM      3  N   UNL     1      -2.625  -4.136  -3.692  0.00  0.00    -0.296 N 
ATOM      4  C   UNL     1      -4.102  -4.115  -3.820  0.00  0.00    +0.115 C 
ATOM      5  C   UNL     1      -4.540  -2.858  -3.042  0.00  0.00    -0.004 C 
ATOM      6  C   UNL     1      -5.704  -2.175  -3.754  0.00  0.00    -0.010 C 
ATOM      7  C   UNL     1      -6.934  -3.086  -3.701  0.00  0.00    -0.082 C 
ATOM      8  N   UNL     1      -7.282  -3.360  -2.301  0.00  0.00    +0.379 N 
ATOM      9  C   UNL     1      -6.194  -4.099  -1.650  0.00  0.00    -0.082 C 
ATOM     10  C   UNL     1      -4.934  -3.231  -1.616  0.00  0.00    -0.010 C 
ATOM     11  C   UNL     1      -1.827  -5.206  -3.510  0.00  0.00    +0.249 C 
ATOM     12  O   UNL     1      -0.634  -5.051  -3.327  0.00  0.00    -0.270 OA
ATOM     13  H   UNL     1      -7.432  -2.488  -1.817  0.00  0.00    -0.086 HD
ATOM     14  H   UNL     1      -8.128  -3.909  -2.268  0.00  0.00    -0.086 HD
ENDROOT
BRANCH  11  15
ATOM     15  C   UNL     1      -2.399  -6.566  -3.533  0.00  0.00    +0.072 A 
ATOM     16  C   UNL     1      -3.461  -6.866  -4.391  0.00  0.00    +0.019 A 
ATOM     17  C   UNL     1      -3.991  -8.137  -4.408  0.00  0.00    +0.039 A 
ATOM     18  C   UNL     1      -3.475  -9.120  -3.576  0.00  0.00    +0.126 A 
ATOM     19  C   UNL     1      -2.423  -8.832  -2.723  0.00  0.00    +0.077 A 
ATOM     20  C   UNL     1      -1.877  -7.562  -2.700  0.00  0.00    +0.138 A 
ATOM     21  F   UNL     1      -0.848  -7.282  -1.872  0.00  0.00    -0.205 F 
ATOM     22  F   UNL     1      -4.001 -10.364  -3.599  0.00  0.00    -0.205 F 
ENDBRANCH  11  15
BRANCH   1  24
ATOM     23  N   UNL     1      -3.275  -0.581  -0.962  0.00  0.00    -0.311 N 
ATOM     24  C   UNL     1      -2.856  -1.683  -1.616  0.00  0.00    +0.218 C 
ATOM     25  O   UNL     1      -2.115  -2.469  -1.066  0.00  0.00    -0.275 OA
ATOM     26  H   UNL     1      -3.868   0.048  -1.402  0.00  0.00    +0.149 HD
BRANCH  23  27
ATOM     27  C   UNL     1      -2.835  -0.334   0.414  0.00  0.00    +0.139 C 
BRANCH  27  33
ATOM     28  C   UNL     1      -4.666   0.936   1.551  0.00  0.00    +0.009 A 
ATOM     29  C   UNL     1      -5.226   2.114   2.010  0.00  0.00    +0.050 A 
ATOM     30  C   UNL     1      -4.560   3.315   1.828  0.00  0.00    +0.166 A 
ATOM     31  C   UNL     1      -3.325   3.332   1.183  0.00  0.00    +0.167 A 
ATOM     32  C   UNL     1      -2.770   2.148   0.727  0.00  0.00    +0.054 A 
ATOM     33  C   UNL     1      -3.441   0.953   0.911  0.00  0.00    -0.027 A 
ATOM     34  O   UNL     1      -2.879   4.620   1.129  0.00  0.00    -0.453 OA
ATOM     35  C   UNL     1      -4.036   5.439   1.381  0.00  0.00    +0.466 C 
ATOM     36  O   UNL     1      -4.887   4.593   2.178  0.00  0.00    -0.453 OA
ENDBRANCH  27  33
ENDBRANCH  23  27
ENDBRANCH   1  24
TORSDOF 4
