REMARK  Name = ZINC06830017
REMARK  2 active torsions:
REMARK  status: ('A' for Active; 'I' for Inactive)
REMARK    1  A    between atoms: C_14  and  C_16
REMARK    2  A    between atoms: C_16  and  C_17
REMARK                            x       y       z     vdW  Elec       q    Type
REMARK                         _______ _______ _______ _____ _____    ______ ____
ROOT
ATOM      1  C   UNL     1       0.126   0.957   6.417  0.00  0.00    +0.226 A 
ATOM      2  N   UNL     1       1.040   1.119   7.333  0.00  0.00    -0.228 NA
ATOM      3  C   UNL     1       1.815   2.198   7.372  0.00  0.00    +0.114 A 
ATOM      4  C   UNL     1       1.699   3.230   6.431  0.00  0.00    +0.055 A 
ATOM      5  C   UNL     1       2.621   4.361   6.595  0.00  0.00    -0.024 A 
ATOM      6  C   UNL     1       3.481   4.300   7.629  0.00  0.00    -0.004 A 
ATOM      7  S   UNL     1       3.123   2.755   8.432  0.00  0.00    -0.073 S 
ATOM      8  C   UNL     1       4.370   5.512   7.699  0.00  0.00    +0.043 C 
ATOM      9  C   UNL     1       3.666   6.562   6.811  0.00  0.00    +0.010 C 
ATOM     10  C   UNL     1       2.871   5.669   5.839  0.00  0.00    +0.037 C 
ATOM     11  C   UNL     1       0.660   3.030   5.404  0.00  0.00    +0.168 A 
ATOM     12  N   UNL     1      -0.086   1.887   5.448  0.00  0.00    -0.201 N 
ATOM     13  N   UNL     1      -0.982   1.972   4.372  0.00  0.00    -0.149 NA
ATOM     14  C   UNL     1      -0.737   3.103   3.755  0.00  0.00    +0.153 A 
ATOM     15  N   UNL     1       0.249   3.745   4.375  0.00  0.00    -0.211 NA
ENDROOT
BRANCH  14  16
ATOM     16  C   UNL     1      -1.466   3.603   2.534  0.00  0.00    +0.085 C 
BRANCH  16  17
ATOM     17  C   UNL     1      -0.750   3.109   1.275  0.00  0.00    -0.022 C 
ATOM     18  C   UNL     1      -0.729   1.579   1.267  0.00  0.00    +0.011 C 
ATOM     19  C   UNL     1      -0.013   1.086   0.008  0.00  0.00    -0.010 C 
ATOM     20  C   UNL     1      -0.753   1.593  -1.232  0.00  0.00    +0.007 C 
ATOM     21  C   UNL     1      -0.773   3.123  -1.223  0.00  0.00    -0.010 C 
ATOM     22  C   UNL     1      -1.490   3.616   0.036  0.00  0.00    +0.011 C 
ATOM     23  C   UNL     1       0.662   3.652  -1.234  0.00  0.00    +0.007 C 
ATOM     24  C   UNL     1       1.402   3.145   0.006  0.00  0.00    -0.010 C 
ATOM     25  C   UNL     1       1.423   1.615  -0.003  0.00  0.00    +0.007 C 
ATOM     26  C   UNL     1       0.686   3.639   1.264  0.00  0.00    +0.011 C 
ENDBRANCH  16  17
ENDBRANCH  14  16
TORSDOF 2
