REMARK  Name = ZINC35870267
REMARK  5 active torsions:
REMARK  status: ('A' for Active; 'I' for Inactive)
REMARK    1  A    between atoms: C_1  and  C_2
REMARK    2  A    between atoms: C_2  and  N_3
REMARK    3  A    between atoms: C_4  and  C_6
REMARK    4  A    between atoms: C_11  and  N_29
REMARK    5  A    between atoms: N_19  and  C_22
REMARK                            x       y       z     vdW  Elec       q    Type
REMARK                         _______ _______ _______ _____ _____    ______ ____
ROOT
ATOM      1  C   UNL     1       1.532  -2.285  -2.665  0.00  0.00    +0.101 C 
ATOM      2  C   UNL     1       2.964  -1.750  -2.676  0.00  0.00    +0.051 C 
ATOM      3  C   UNL     1       3.679  -2.312  -3.878  0.00  0.00    -0.023 A 
ATOM      4  C   UNL     1       4.701  -1.587  -4.464  0.00  0.00    +0.038 A 
ATOM      5  C   UNL     1       5.357  -2.089  -5.573  0.00  0.00    +0.127 A 
ATOM      6  C   UNL     1       4.992  -3.315  -6.098  0.00  0.00    +0.034 A 
ATOM      7  C   UNL     1       3.976  -4.043  -5.514  0.00  0.00    +0.025 A 
ATOM      8  C   UNL     1       3.317  -3.543  -4.394  0.00  0.00    +0.033 A 
ATOM      9  N   UNL     1       2.305  -4.321  -3.806  0.00  0.00    -0.323 N 
ATOM     10  C   UNL     1       1.547  -3.817  -2.674  0.00  0.00    +0.103 C 
ATOM     11  C   UNL     1       0.110  -4.309  -2.643  0.00  0.00    +0.128 C 
ATOM     12  N   UNL     1      -0.044  -5.644  -3.187  0.00  0.00    -0.325 N 
ATOM     13  C   UNL     1       0.661  -6.089  -4.378  0.00  0.00    +0.124 C 
ATOM     14  C   UNL     1       2.110  -5.661  -4.357  0.00  0.00    +0.124 C 
ENDROOT
BRANCH  12  15
ATOM     15  C   UNL     1      -0.903  -6.537  -2.542  0.00  0.00    +0.048 A 
ATOM     16  C   UNL     1      -2.241  -6.603  -2.907  0.00  0.00    +0.024 A 
ATOM     17  C   UNL     1      -3.087  -7.488  -2.268  0.00  0.00    +0.002 A 
ATOM     18  C   UNL     1      -2.604  -8.307  -1.264  0.00  0.00    +0.002 A 
ATOM     19  C   UNL     1      -1.273  -8.245  -0.897  0.00  0.00    +0.022 A 
ATOM     20  C   UNL     1      -0.419  -7.366  -1.537  0.00  0.00    +0.062 A 
ATOM     21 CL   UNL     1       1.255  -7.293  -1.081  0.00  0.00    -0.082 Cl
ENDBRANCH  12  15
BRANCH   1  23
ATOM     22  N   UNL     1       0.688  -0.476  -1.203  0.00  0.00    -0.315 N 
ATOM     23  C   UNL     1       0.827  -1.799  -1.425  0.00  0.00    +0.218 C 
ATOM     24  O   UNL     1       0.384  -2.597  -0.627  0.00  0.00    -0.275 OA
ATOM     25  H   UNL     1       1.042   0.162  -1.842  0.00  0.00    +0.149 HD
BRANCH  22  27
ATOM     26  C   UNL     1      -0.019   1.526   0.010  0.00  0.00    +0.024 C 
ATOM     27  C   UNL     1       0.002  -0.004   0.002  0.00  0.00    +0.101 C 
ENDBRANCH  22  27
ENDBRANCH   1  23
BRANCH   5  28
ATOM     28  N   UNL     1       6.451  -1.313  -6.198  0.00  0.00    +0.056 N 
ATOM     29  O   UNL     1       6.770  -0.241  -5.739  0.00  0.00    -0.126 OA
ATOM     30  O   UNL     1       7.025  -1.751  -7.168  0.00  0.00    -0.126 OA
ENDBRANCH   5  28
TORSDOF 4
