REMARK  Name = ZINC60207698
REMARK  11 active torsions:
REMARK  status: ('A' for Active; 'I' for Inactive)
REMARK    1  A    between atoms: C_1  and  C_2
REMARK    2  A    between atoms: C_5  and  C_32
REMARK    3  A    between atoms: C_6  and  S_8
REMARK    4  A    between atoms: S_8  and  N_11
REMARK    5  A    between atoms: N_11  and  C_12
REMARK    6  A    between atoms: C_16  and  C_18
REMARK    7  A    between atoms: N_20  and  C_21
REMARK    8  A    between atoms: C_21  and  C_22
REMARK    9  A    between atoms: N_27  and  C_29
REMARK   10  A    between atoms: C_29  and  C_30
REMARK   11  A    between atoms: C_29  and  C_31
REMARK                            x       y       z     vdW  Elec       q    Type
REMARK                         _______ _______ _______ _____ _____    ______ ____
ROOT
ATOM      1  C   UNL     1      -1.903  -4.910   2.620  0.00  0.00    +0.049 A 
ATOM      2  C   UNL     1      -1.937  -4.900   1.230  0.00  0.00    +0.024 A 
ATOM      3  C   UNL     1      -2.374  -6.013   0.537  0.00  0.00    +0.003 A 
ATOM      4  C   UNL     1      -2.781  -7.141   1.220  0.00  0.00    +0.013 A 
ATOM      5  C   UNL     1      -2.751  -7.161   2.615  0.00  0.00    +0.038 A 
ATOM      6  C   UNL     1      -2.304  -6.040   3.315  0.00  0.00    +0.037 A 
ENDROOT
BRANCH   5   7
ATOM      7  C   UNL     1      -3.186  -8.369   3.350  0.00  0.00    +0.244 C 
ATOM      8  O   UNL     1      -3.159  -8.384   4.565  0.00  0.00    -0.270 OA
ATOM      9  N   UNL     1      -3.613  -9.453   2.671  0.00  0.00    -0.311 N 
ATOM     10  H   UNL     1      -3.634  -9.441   1.702  0.00  0.00    +0.149 HD
BRANCH   9  11
ATOM     11  C   UNL     1      -4.044 -10.649   3.399  0.00  0.00    +0.106 C 
BRANCH  11  12
ATOM     12  C   UNL     1      -4.476 -11.725   2.401  0.00  0.00    -0.011 C 
ATOM     13  C   UNL     1      -5.716 -11.247   1.639  0.00  0.00    +0.001 C 
ATOM     14  C   UNL     1      -6.187 -12.361   0.700  0.00  0.00    -0.018 C 
ATOM     15  C   UNL     1      -6.458 -13.628   1.515  0.00  0.00    -0.078 C 
ATOM     16  N   UNL     1      -5.229 -14.048   2.197  0.00  0.00    +0.381 N 
ATOM     17  C   UNL     1      -4.810 -13.015   3.152  0.00  0.00    -0.074 C 
ATOM     18  H   UNL     1      -4.498 -14.189   1.515  0.00  0.00    -0.081 HD
BRANCH  16  19
ATOM     19  C   UNL     1      -5.474 -15.306   2.915  0.00  0.00    -0.075 C 
ATOM     20  C   UNL     1      -5.900 -16.386   1.919  0.00  0.00    -0.014 C 
ATOM     21  C   UNL     1      -4.193 -15.745   3.627  0.00  0.00    -0.014 C 
ENDBRANCH  16  19
ENDBRANCH  11  12
ENDBRANCH   9  11
ENDBRANCH   5   7
BRANCH   1  22
ATOM     22  N   UNL     1      -1.459  -3.782   3.315  0.00  0.00    -0.216 N 
ATOM     23  H   UNL     1      -1.961  -3.454   4.078  0.00  0.00    +0.174 HD
BRANCH  22  24
ATOM     24  S   UNL     1      -0.076  -3.006   2.838  0.00  0.00    +0.073 S 
ATOM     25  O   UNL     1       0.167  -1.985   3.797  0.00  0.00    -0.150 OA
ATOM     26  O   UNL     1      -0.223  -2.730   1.452  0.00  0.00    -0.150 OA
BRANCH  24  32
ATOM     27  C   UNL     1       3.700  -5.949   0.741  0.00  0.00    +0.044 C 
ATOM     28  C   UNL     1       2.961  -5.489   1.972  0.00  0.00    -0.049 A 
ATOM     29  C   UNL     1       3.321  -5.974   3.216  0.00  0.00    +0.004 A 
ATOM     30  C   UNL     1       2.643  -5.553   4.344  0.00  0.00    +0.005 A 
ATOM     31  C   UNL     1       1.605  -4.646   4.229  0.00  0.00    -0.024 A 
ATOM     32  C   UNL     1       1.246  -4.161   2.985  0.00  0.00    +0.112 A 
ATOM     33  C   UNL     1       1.927  -4.579   1.857  0.00  0.00    +0.032 A 
ATOM     34  C   UNL     1       0.865  -4.188   5.459  0.00  0.00    +0.046 C 
ENDBRANCH  24  32
ENDBRANCH  22  24
ENDBRANCH   1  22
TORSDOF 7
