REMARK  Name = ZINC40448952
REMARK  13 active torsions:
REMARK  status: ('A' for Active; 'I' for Inactive)
REMARK    1  A    between atoms: C_1  and  C_2
REMARK    2  A    between atoms: C_2  and  C_3
REMARK    3  A    between atoms: C_3  and  C_4
REMARK    4  A    between atoms: C_4  and  O_6
REMARK    5  A    between atoms: O_6  and  C_7
REMARK    6  A    between atoms: C_7  and  C_34
REMARK    7  A    between atoms: C_12  and  C_33
REMARK    8  A    between atoms: C_14  and  O_32
REMARK    9  A    between atoms: C_28  and  C_29
REMARK   10  A    between atoms: C_34  and  C_36
REMARK   11  A    between atoms: C_36  and  O_37
REMARK   12  A    between atoms: O_37  and  C_38
REMARK   13  A    between atoms: C_38  and  C_40
REMARK                            x       y       z     vdW  Elec       q    Type
REMARK                         _______ _______ _______ _____ _____    ______ ____
ROOT
ATOM      1  C   UNL     1       1.026  -4.171   2.283  0.00  0.00    +0.180 C 
ATOM      2  C   UNL     1      -0.455  -4.555   2.528  0.00  0.00    +0.057 C 
ATOM      3  C   UNL     1      -0.495  -5.302   3.889  0.00  0.00    +0.009 C 
ATOM      4  C   UNL     1       0.758  -4.781   4.603  0.00  0.00    +0.006 C 
ATOM      5  C   UNL     1       1.798  -4.778   3.450  0.00  0.00    +0.021 C 
ATOM      6  C   UNL     1       3.005  -4.000   3.938  0.00  0.00    +0.045 C 
ATOM      7  C   UNL     1       3.611  -4.791   5.108  0.00  0.00    +0.154 C 
ATOM      8  C   UNL     1       2.596  -5.012   6.225  0.00  0.00    +0.153 C 
ATOM      9  C   UNL     1       1.298  -5.662   5.715  0.00  0.00    +0.037 C 
ATOM     10  C   UNL     1       0.275  -5.755   6.848  0.00  0.00    +0.048 C 
ATOM     11  C   UNL     1       0.808  -6.675   7.950  0.00  0.00    +0.194 C 
ATOM     12  C   UNL     1       2.164  -6.154   8.386  0.00  0.00    -0.020 C 
ATOM     13  C   UNL     1       2.391  -5.950   9.676  0.00  0.00    +0.054 C 
ATOM     14  C   UNL     1       3.687  -5.426  10.134  0.00  0.00    +0.179 C 
ATOM     15  O   UNL     1       3.912  -5.274  11.320  0.00  0.00    -0.288 OA
ATOM     16  C   UNL     1       4.705  -5.090   9.125  0.00  0.00    +0.047 C 
ATOM     17  C   UNL     1       4.460  -5.309   7.843  0.00  0.00    -0.009 C 
ATOM     18  C   UNL     1       3.213  -5.912   7.300  0.00  0.00    +0.047 C 
ATOM     19  C   UNL     1       3.574  -7.245   6.642  0.00  0.00    +0.023 C 
ATOM     20  F   UNL     1      -0.073  -6.669   9.038  0.00  0.00    -0.241 F 
ATOM     21  F   UNL     1       2.261  -3.778   6.794  0.00  0.00    -0.238 F 
ATOM     22  C   UNL     1       2.204  -6.214   3.113  0.00  0.00    +0.016 C 
ENDROOT
BRANCH   7  23
ATOM     23  O   UNL     1       4.728  -4.069   5.631  0.00  0.00    -0.389 OA
ATOM     24  H   UNL     1       5.434  -3.916   4.988  0.00  0.00    +0.210 HD
ENDBRANCH   7  23
BRANCH   1  25
ATOM     25  C   UNL     1       1.508  -4.753   0.979  0.00  0.00    +0.214 C 
ATOM     26  O   UNL     1       0.949  -5.710   0.501  0.00  0.00    -0.289 OA
BRANCH  25  27
ATOM     27  C   UNL     1       2.690  -4.140   0.272  0.00  0.00    +0.310 C 
BRANCH  27  28
ATOM     28  O   UNL     1       2.881  -4.789  -0.987  0.00  0.00    -0.457 OA
BRANCH  28  29
ATOM     29  C   UNL     1       3.900  -4.357  -1.746  0.00  0.00    +0.304 C 
ATOM     30  O   UNL     1       4.607  -3.458  -1.355  0.00  0.00    -0.251 OA
ATOM     31  C   UNL     1       4.163  -4.994  -3.087  0.00  0.00    +0.136 C 
ENDBRANCH  28  29
ENDBRANCH  27  28
ENDBRANCH  25  27
ENDBRANCH   1  25
BRANCH   1  32
ATOM     32  O   UNL     1       1.174  -2.750   2.275  0.00  0.00    -0.450 OA
BRANCH  32  33
ATOM     33  C   UNL     1       0.457  -2.067   1.369  0.00  0.00    +0.308 C 
ATOM     34  O   UNL     1      -0.199  -2.660   0.546  0.00  0.00    -0.251 OA
BRANCH  33  35
ATOM     35  C   UNL     1       0.470  -0.560   1.379  0.00  0.00    +0.120 C 
BRANCH  35  37
ATOM     36  C   UNL     1      -0.410   1.494   0.263  0.00  0.00    +0.004 C 
ATOM     37  C   UNL     1      -0.423  -0.035   0.253  0.00  0.00    +0.008 C 
ENDBRANCH  35  37
ENDBRANCH  33  35
ENDBRANCH  32  33
ENDBRANCH   1  32
TORSDOF 9
