REMARK  Name = ZINC22381550
REMARK  11 active torsions:
REMARK  status: ('A' for Active; 'I' for Inactive)
REMARK    1  A    between atoms: C_1  and  N_2
REMARK    2  A    between atoms: N_2  and  C_3
REMARK    3  A    between atoms: N_2  and  C_4
REMARK    4  A    between atoms: C_4  and  C_6
REMARK    5  A    between atoms: C_4  and  C_29
REMARK    6  A    between atoms: C_6  and  N_7
REMARK    7  A    between atoms: C_8  and  C_10
REMARK    8  A    between atoms: C_10  and  C_11
REMARK    9  A    between atoms: C_11  and  C_12
REMARK   10  A    between atoms: C_14  and  C_23
REMARK   11  A    between atoms: C_15  and  C_17
REMARK                            x       y       z     vdW  Elec       q    Type
REMARK                         _______ _______ _______ _____ _____    ______ ____
ROOT
ATOM      1  C   UNL     1       0.333   7.490   0.137  0.00  0.00    +0.105 C 
ENDROOT
BRANCH   1   2
ATOM      2  C   UNL     1       1.335   6.366   0.199  0.00  0.00    +0.197 A 
ATOM      3  N   UNL     1       2.627   6.515   0.234  0.00  0.00    -0.213 NA
ATOM      4  C   UNL     1       3.205   5.296   0.286  0.00  0.00    +0.117 A 
ATOM      5  C   UNL     1       2.187   4.365   0.280  0.00  0.00    +0.163 A 
ATOM      6  O   UNL     1       1.031   5.062   0.219  0.00  0.00    -0.439 OA
BRANCH   5   7
ATOM      7  C   UNL     1       2.332   2.897   0.325  0.00  0.00    +0.019 A 
ATOM      8  C   UNL     1       3.174   2.304   1.270  0.00  0.00    +0.011 A 
ATOM      9  C   UNL     1       3.304   0.931   1.306  0.00  0.00    +0.001 A 
ATOM     10  C   UNL     1       2.604   0.142   0.410  0.00  0.00    +0.000 A 
ATOM     11  C   UNL     1       1.769   0.723  -0.528  0.00  0.00    +0.001 A 
ATOM     12  C   UNL     1       1.629   2.095  -0.576  0.00  0.00    +0.011 A 
ENDBRANCH   5   7
BRANCH   4  13
ATOM     13  C   UNL     1       4.659   5.012   0.338  0.00  0.00    +0.004 A 
ATOM     14  C   UNL     1       5.495   5.789   1.139  0.00  0.00    +0.010 A 
ATOM     15  C   UNL     1       6.847   5.516   1.187  0.00  0.00    +0.001 A 
ATOM     16  C   UNL     1       7.375   4.482   0.434  0.00  0.00    +0.000 A 
ATOM     17  C   UNL     1       6.550   3.712  -0.367  0.00  0.00    +0.001 A 
ATOM     18  C   UNL     1       5.196   3.971  -0.419  0.00  0.00    +0.010 A 
ENDBRANCH   4  13
ENDBRANCH   1   2
BRANCH   1  19
ATOM     19  C   UNL     1       0.038   7.831  -1.326  0.00  0.00    +0.105 C 
BRANCH  19  21
ATOM     20  N   UNL     1      -1.376   9.425  -2.582  0.00  0.00    -0.316 N 
ATOM     21  C   UNL     1      -0.964   8.955  -1.388  0.00  0.00    +0.213 C 
ATOM     22  O   UNL     1      -1.399   9.436  -0.364  0.00  0.00    -0.276 OA
ATOM     23  H   UNL     1      -0.981   8.988  -3.511  0.00  0.00    +0.149 HD
BRANCH  20  24
ATOM     24  C   UNL     1      -2.350  10.518  -2.643  0.00  0.00    +0.096 C 
BRANCH  24  25
ATOM     25  C   UNL     1      -2.732  10.780  -4.101  0.00  0.00    +0.016 C 
BRANCH  25  26
ATOM     26  C   UNL     1      -1.525  11.276  -4.855  0.00  0.00    +0.093 A 
ATOM     27  C   UNL     1      -0.736  10.533  -5.652  0.00  0.00    +0.043 A 
ATOM     28  C   UNL     1       0.267  11.395  -6.153  0.00  0.00    +0.041 A 
ATOM     29  C   UNL     1       0.036  12.610  -5.625  0.00  0.00    +0.195 A 
ATOM     30  O   UNL     1      -1.050  12.532  -4.840  0.00  0.00    -0.469 OA
ENDBRANCH  25  26
BRANCH  25  32
ATOM     31  C   UNL     1      -5.079  11.235  -3.718  0.00  0.00    -0.096 C 
ATOM     32  N   UNL     1      -3.793  11.795  -4.154  0.00  0.00    +0.384 N 
ATOM     33  C   UNL     1      -3.434  12.974  -3.354  0.00  0.00    -0.096 C 
ATOM     34  H   UNL     1      -3.901  12.116  -5.200  0.00  0.00    -0.082 HD
ENDBRANCH  25  32
ENDBRANCH  24  25
ENDBRANCH  20  24
ENDBRANCH  19  21
ENDBRANCH   1  19
TORSDOF 9
