REMARK  Name = ZINC39597637
REMARK  5 active torsions:
REMARK  status: ('A' for Active; 'I' for Inactive)
REMARK    1  A    between atoms: C_7  and  C_10
REMARK    2  A    between atoms: C_10  and  C_11
REMARK    3  A    between atoms: C_11  and  N_12
REMARK    4  A    between atoms: C_13  and  C_15
REMARK    5  A    between atoms: C_26  and  C_28
REMARK                            x       y       z     vdW  Elec       q    Type
REMARK                         _______ _______ _______ _____ _____    ______ ____
ROOT
ATOM      1  C   UNL     1      -6.078   6.594  -2.696  0.00  0.00    +0.100 C 
ATOM      2  C   UNL     1      -7.463   6.904  -2.085  0.00  0.00    +0.121 C 
ATOM      3  N   UNL     1      -8.009   7.993  -2.930  0.00  0.00    -0.296 N 
ATOM      4  C   UNL     1      -7.602   7.630  -4.308  0.00  0.00    +0.115 C 
ATOM      5  C   UNL     1      -6.174   7.070  -4.155  0.00  0.00    -0.004 C 
ATOM      6  C   UNL     1      -5.961   5.899  -5.109  0.00  0.00    -0.010 C 
ATOM      7  C   UNL     1      -6.003   6.407  -6.552  0.00  0.00    -0.082 C 
ATOM      8  N   UNL     1      -4.957   7.418  -6.747  0.00  0.00    +0.379 N 
ATOM      9  C   UNL     1      -5.221   8.583  -5.893  0.00  0.00    -0.082 C 
ATOM     10  C   UNL     1      -5.146   8.166  -4.421  0.00  0.00    -0.010 C 
ATOM     11  C   UNL     1      -8.715   9.071  -2.534  0.00  0.00    +0.247 C 
ATOM     12  O   UNL     1      -8.860   9.300  -1.349  0.00  0.00    -0.270 OA
ATOM     13  H   UNL     1      -4.060   7.023  -6.507  0.00  0.00    -0.086 HD
ATOM     14  H   UNL     1      -4.946   7.707  -7.714  0.00  0.00    -0.086 HD
ENDROOT
BRANCH  11  15
ATOM     15  C   UNL     1      -9.312   9.974  -3.541  0.00  0.00    +0.040 A 
ATOM     16  C   UNL     1      -9.532   9.523  -4.843  0.00  0.00    +0.033 A 
ATOM     17  C   UNL     1     -10.091  10.371  -5.779  0.00  0.00    +0.043 A 
ATOM     18  C   UNL     1     -10.432  11.666  -5.428  0.00  0.00    +0.040 A 
ATOM     19  C   UNL     1     -10.216  12.119  -4.137  0.00  0.00    +0.043 A 
ATOM     20  C   UNL     1      -9.664  11.278  -3.191  0.00  0.00    +0.033 A 
ATOM     21 CL   UNL     1     -10.647  13.744  -3.706  0.00  0.00    -0.083 Cl
ATOM     22 CL   UNL     1     -10.364   9.813  -7.400  0.00  0.00    -0.083 Cl
ENDBRANCH  11  15
BRANCH   1  24
ATOM     23  N   UNL     1      -4.535   4.667  -2.535  0.00  0.00    -0.315 N 
ATOM     24  C   UNL     1      -5.802   5.113  -2.644  0.00  0.00    +0.218 C 
ATOM     25  O   UNL     1      -6.720   4.323  -2.702  0.00  0.00    -0.275 OA
ATOM     26  H   UNL     1      -3.801   5.299  -2.489  0.00  0.00    +0.149 HD
BRANCH  23  27
ATOM     27  C   UNL     1      -4.267   3.228  -2.485  0.00  0.00    +0.109 C 
BRANCH  27  28
ATOM     28  C   UNL     1      -2.760   2.994  -2.360  0.00  0.00    +0.056 C 
BRANCH  28  35
ATOM     29  C   UNL     1      -2.195  -0.280  -5.667  0.00  0.00    +0.001 A 
ATOM     30  C   UNL     1      -1.954  -1.542  -5.143  0.00  0.00    +0.002 A 
ATOM     31  C   UNL     1      -1.900  -1.739  -3.780  0.00  0.00    +0.026 A 
ATOM     32  C   UNL     1      -2.088  -0.663  -2.919  0.00  0.00    +0.047 A 
ATOM     33  N   UNL     1      -2.094  -0.535  -1.548  0.00  0.00    -0.360 N 
ATOM     34  C   UNL     1      -2.332   0.767  -1.203  0.00  0.00    +0.087 A 
ATOM     35  C   UNL     1      -2.484   1.513  -2.308  0.00  0.00    -0.021 A 
ATOM     36  C   UNL     1      -2.332   0.615  -3.455  0.00  0.00    +0.003 A 
ATOM     37  C   UNL     1      -2.378   0.792  -4.839  0.00  0.00    +0.010 A 
ATOM     38  H   UNL     1      -1.952  -1.261  -0.920  0.00  0.00    +0.165 HD
ENDBRANCH  28  35
ENDBRANCH  27  28
ENDBRANCH  23  27
ENDBRANCH   1  24
TORSDOF 5
