REMARK  Name = ZINC14234771
REMARK  14 active torsions:
REMARK  status: ('A' for Active; 'I' for Inactive)
REMARK    1  A    between atoms: C_1  and  C_2
REMARK    2  A    between atoms: C_2  and  N_3
REMARK    3  A    between atoms: N_3  and  C_4
REMARK    4  A    between atoms: N_3  and  S_6
REMARK    5  A    between atoms: C_4  and  C_5
REMARK    6  A    between atoms: S_6  and  C_9
REMARK    7  A    between atoms: C_13  and  C_15
REMARK    8  A    between atoms: N_17  and  N_18
REMARK    9  A    between atoms: C_19  and  C_21
REMARK   10  A    between atoms: C_21  and  C_23
REMARK   11  A    between atoms: C_21  and  N_26
REMARK   12  A    between atoms: C_23  and  C_24
REMARK   13  A    between atoms: C_23  and  C_25
REMARK   14  A    between atoms: C_27  and  C_29
REMARK                            x       y       z     vdW  Elec       q    Type
REMARK                         _______ _______ _______ _____ _____    ______ ____
ROOT
ATOM      1  C   UNL     1       2.369   1.025  -0.015  0.00  0.00    +0.260 C 
ATOM      2  O   UNL     1       2.385  -0.191  -0.022  0.00  0.00    -0.269 OA
ATOM      3  N   UNL     1       1.193   1.683  -0.000  0.00  0.00    -0.230 N 
ATOM      4  H   UNL     1       1.179   2.653   0.005  0.00  0.00    +0.173 HD
ENDROOT
BRANCH   1   9
ATOM      5  C   UNL     1       6.040   1.815  -0.046  0.00  0.00    +0.106 A 
ATOM      6  C   UNL     1       6.018   3.199  -0.039  0.00  0.00    +0.028 A 
ATOM      7  C   UNL     1       4.812   3.877  -0.024  0.00  0.00    +0.003 A 
ATOM      8  C   UNL     1       3.623   3.177  -0.021  0.00  0.00    +0.013 A 
ATOM      9  C   UNL     1       3.639   1.781  -0.023  0.00  0.00    +0.040 A 
ATOM     10  C   UNL     1       4.859   1.103  -0.038  0.00  0.00    +0.041 A 
BRANCH   5  11
ATOM     11  S   UNL     1       7.581   0.961  -0.066  0.00  0.00    +0.061 S 
ATOM     12  O   UNL     1       8.546   1.850   0.480  0.00  0.00    -0.153 OA
ATOM     13  O   UNL     1       7.338  -0.328   0.480  0.00  0.00    -0.153 OA
BRANCH  11  14
ATOM     14  N   UNL     1       7.994   0.732  -1.654  0.00  0.00    -0.177 NA
BRANCH  14  16
ATOM     15  C   UNL     1      10.270   1.353  -2.296  0.00  0.00    +0.022 C 
ATOM     16  C   UNL     1       8.791   1.740  -2.356  0.00  0.00    +0.106 C 
ENDBRANCH  14  16
BRANCH  14  17
ATOM     17  C   UNL     1       7.561  -0.479  -2.356  0.00  0.00    +0.106 C 
ATOM     18  C   UNL     1       6.263  -0.193  -3.114  0.00  0.00    +0.022 C 
ENDBRANCH  14  17
ENDBRANCH  11  14
ENDBRANCH   5  11
ENDBRANCH   1   9
BRANCH   3  19
ATOM     19  N   UNL     1      -0.011   0.966   0.007  0.00  0.00    -0.233 N 
ATOM     20  C   UNL     1      -1.187   1.624   0.017  0.00  0.00    +0.250 C 
ATOM     21  O   UNL     1      -1.204   2.837   0.023  0.00  0.00    -0.272 OA
ATOM     22  H   UNL     1       0.002  -0.004   0.002  0.00  0.00    +0.173 HD
BRANCH  20  23
ATOM     23  C   UNL     1      -2.482   0.853   0.018  0.00  0.00    +0.163 C 
BRANCH  23  24
ATOM     24  N   UNL     1      -3.608   1.789   0.029  0.00  0.00    -0.303 N 
ATOM     25  C   UNL     1      -4.801   1.404   0.526  0.00  0.00    +0.217 C 
ATOM     26  O   UNL     1      -4.941   0.282   0.964  0.00  0.00    -0.275 OA
ATOM     27  H   UNL     1      -3.496   2.687  -0.322  0.00  0.00    +0.149 HD
BRANCH  25  28
ATOM     28  C   UNL     1      -5.959   2.368   0.536  0.00  0.00    +0.075 C 
ATOM     29  C   UNL     1      -5.592   3.598   1.369  0.00  0.00    +0.013 C 
ATOM     30  C   UNL     1      -6.768   4.576   1.380  0.00  0.00    +0.001 C 
ATOM     31  C   UNL     1      -7.993   3.894   1.992  0.00  0.00    +0.000 C 
ATOM     32  C   UNL     1      -8.361   2.664   1.159  0.00  0.00    +0.001 C 
ATOM     33  C   UNL     1      -7.184   1.686   1.148  0.00  0.00    +0.013 C 
ENDBRANCH  25  28
ENDBRANCH  23  24
BRANCH  23  34
ATOM     34  C   UNL     1      -2.557  -0.021  -1.235  0.00  0.00    +0.012 C 
ATOM     35  C   UNL     1      -3.872  -0.804  -1.233  0.00  0.00    +0.009 C 
ATOM     36  C   UNL     1      -2.494   0.866  -2.480  0.00  0.00    +0.009 C 
ENDBRANCH  23  34
ENDBRANCH  20  23
ENDBRANCH   3  19
TORSDOF 10
