REMARK  Name = ZINC39859976
REMARK  7 active torsions:
REMARK  status: ('A' for Active; 'I' for Inactive)
REMARK    1  A    between atoms: C_1  and  C_2
REMARK    2  A    between atoms: C_6  and  N_9
REMARK    3  A    between atoms: C_7  and  C_8
REMARK    4  A    between atoms: C_13  and  C_14
REMARK    5  A    between atoms: C_17  and  N_20
REMARK    6  A    between atoms: N_20  and  C_21
REMARK    7  A    between atoms: N_20  and  C_22
REMARK                            x       y       z     vdW  Elec       q    Type
REMARK                         _______ _______ _______ _____ _____    ______ ____
ROOT
ATOM      1  N   UNL     1      -0.074  -1.946   3.023  0.00  0.00    -0.196 N 
ATOM      2  C   UNL     1      -1.181  -2.576   3.379  0.00  0.00    +0.265 C 
ATOM      3  O   UNL     1      -2.250  -2.341   2.847  0.00  0.00    -0.269 OA
ATOM      4  C   UNL     1      -1.055  -3.580   4.453  0.00  0.00    +0.080 C 
ATOM      5  C   UNL     1      -2.006  -4.370   5.015  0.00  0.00    +0.028 C 
ATOM      6  S   UNL     1       0.693  -3.472   4.810  0.00  0.00    -0.025 S 
ATOM      7  C   UNL     1       1.109  -2.215   3.612  0.00  0.00    +0.290 C 
ATOM      8  O   UNL     1       2.197  -1.720   3.382  0.00  0.00    -0.262 OA
ENDROOT
BRANCH   1  14
ATOM      9  C   UNL     1      -0.694   2.740   1.666  0.00  0.00    +0.044 C 
ATOM     10  C   UNL     1      -0.430   1.297   1.323  0.00  0.00    -0.046 A 
ATOM     11  C   UNL     1      -0.244   0.923   0.005  0.00  0.00    +0.004 A 
ATOM     12  C   UNL     1      -0.001  -0.400  -0.314  0.00  0.00    +0.002 A 
ATOM     13  C   UNL     1       0.056  -1.353   0.684  0.00  0.00    +0.024 A 
ATOM     14  C   UNL     1      -0.131  -0.982   2.008  0.00  0.00    +0.048 A 
ATOM     15  C   UNL     1      -0.369   0.349   2.326  0.00  0.00    -0.026 A 
ATOM     16  C   UNL     1      -0.567   0.758   3.763  0.00  0.00    +0.046 C 
ENDBRANCH   1  14
BRANCH   5  17
ATOM     17  C   UNL     1      -1.681  -5.184   6.192  0.00  0.00    -0.024 A 
ATOM     18  C   UNL     1      -0.530  -4.909   6.942  0.00  0.00    +0.010 A 
ATOM     19  C   UNL     1      -0.231  -5.672   8.041  0.00  0.00    +0.023 A 
ATOM     20  C   UNL     1      -1.069  -6.720   8.412  0.00  0.00    +0.029 A 
ATOM     21  C   UNL     1      -2.214  -6.998   7.670  0.00  0.00    +0.023 A 
ATOM     22  C   UNL     1      -2.524  -6.236   6.573  0.00  0.00    +0.010 A 
BRANCH  20  23
ATOM     23  N   UNL     1      -0.760  -7.493   9.528  0.00  0.00    -0.336 N 
ATOM     24  C   UNL     1       0.444  -7.203  10.310  0.00  0.00    +0.129 C 
ATOM     25  C   UNL     1      -1.640  -8.597   9.920  0.00  0.00    +0.129 C 
ENDBRANCH  20  23
ENDBRANCH   5  17
TORSDOF 3
