REMARK  Name = ZINC45824421
REMARK  7 active torsions:
REMARK  status: ('A' for Active; 'I' for Inactive)
REMARK    1  A    between atoms: C_3  and  C_17
REMARK    2  A    between atoms: C_5  and  S_7
REMARK    3  A    between atoms: S_7  and  N_10
REMARK    4  A    between atoms: N_10  and  C_11
REMARK    5  A    between atoms: C_11  and  C_12
REMARK    6  A    between atoms: N_19  and  N_20
REMARK    7  A    between atoms: C_21  and  C_23
REMARK                            x       y       z     vdW  Elec       q    Type
REMARK                         _______ _______ _______ _____ _____    ______ ____
ROOT
ATOM      1  C   UNL     1       3.657   2.160  -0.022  0.00  0.00    +0.260 C 
ATOM      2  O   UNL     1       4.716   1.564  -0.035  0.00  0.00    -0.269 OA
ATOM      3  N   UNL     1       3.642   3.508  -0.015  0.00  0.00    -0.230 N 
ATOM      4  H   UNL     1       2.797   3.984  -0.004  0.00  0.00    +0.173 HD
ENDROOT
BRANCH   1   7
ATOM      5  C   UNL     1      -0.017   1.379   0.010  0.00  0.00    +0.003 A 
ATOM      6  C   UNL     1       1.167   2.088   0.002  0.00  0.00    +0.013 A 
ATOM      7  C   UNL     1       2.385   1.407  -0.013  0.00  0.00    +0.040 A 
ATOM      8  C   UNL     1       2.397   0.011  -0.021  0.00  0.00    +0.041 A 
ATOM      9  C   UNL     1       1.206  -0.686  -0.013  0.00  0.00    +0.106 A 
ATOM     10  C   UNL     1       0.002  -0.004   0.002  0.00  0.00    +0.028 A 
BRANCH   9  11
ATOM     11  S   UNL     1       1.219  -2.448  -0.023  0.00  0.00    +0.059 S 
ATOM     12  O   UNL     1      -0.029  -2.860  -0.564  0.00  0.00    -0.153 OA
ATOM     13  O   UNL     1       2.462  -2.842  -0.587  0.00  0.00    -0.153 OA
BRANCH  11  14
ATOM     14  N   UNL     1       1.238  -2.946   1.557  0.00  0.00    -0.183 NA
ATOM     15  H   UNL     1       2.006  -3.425   1.905  0.00  0.00    +0.148 HD
BRANCH  14  16
ATOM     16  C   UNL     1       0.094  -2.663   2.427  0.00  0.00    +0.180 C 
BRANCH  16  17
ATOM     17  C   UNL     1       0.184  -3.514   3.667  0.00  0.00    +0.120 A 
ATOM     18  C   UNL     1       0.799  -3.172   4.814  0.00  0.00    +0.046 A 
ATOM     19  C   UNL     1       0.640  -4.259   5.704  0.00  0.00    +0.041 A 
ATOM     20  C   UNL     1      -0.063  -5.200   5.049  0.00  0.00    +0.195 A 
ATOM     21  O   UNL     1      -0.341  -4.742   3.817  0.00  0.00    -0.466 OA
ENDBRANCH  16  17
ENDBRANCH  14  16
ENDBRANCH  11  14
ENDBRANCH   9  11
ENDBRANCH   1   7
BRANCH   3  22
ATOM     22  N   UNL     1       4.848   4.222  -0.023  0.00  0.00    -0.230 N 
ATOM     23  C   UNL     1       4.833   5.569  -0.016  0.00  0.00    +0.267 C 
ATOM     24  O   UNL     1       3.772   6.166  -0.003  0.00  0.00    -0.268 OA
ATOM     25  H   UNL     1       5.693   3.746  -0.034  0.00  0.00    +0.173 HD
BRANCH  23  26
ATOM     26  C   UNL     1       6.094   6.316  -0.025  0.00  0.00    +0.076 A 
ATOM     27  C   UNL     1       6.300   7.678  -0.014  0.00  0.00    +0.024 A 
ATOM     28  C   UNL     1       7.626   8.120  -0.054  0.00  0.00    -0.036 A 
ATOM     29  C   UNL     1       8.581   7.175  -0.140  0.00  0.00    -0.006 A 
ATOM     30  S   UNL     1       7.765   5.704  -0.043  0.00  0.00    -0.088 S 
ATOM     31  C   UNL     1      10.072   7.250  -0.360  0.00  0.00    +0.043 C 
ATOM     32  C   UNL     1      10.562   8.688  -0.532  0.00  0.00    +0.005 C 
ATOM     33  C   UNL     1      10.696   9.381   0.814  0.00  0.00    +0.000 C 
ATOM     34  C   UNL     1       9.595   9.003   1.784  0.00  0.00    +0.000 C 
ATOM     35  C   UNL     1       8.399   9.911   1.474  0.00  0.00    +0.005 C 
ATOM     36  C   UNL     1       7.904   9.612   0.060  0.00  0.00    +0.036 C 
ENDBRANCH  23  26
ENDBRANCH   3  22
TORSDOF 7
