REMARK  Name = ZINC09777225
REMARK  12 active torsions:
REMARK  status: ('A' for Active; 'I' for Inactive)
REMARK    1  A    between atoms: C_1  and  C_2
REMARK    2  A    between atoms: C_2  and  C_3
REMARK    3  A    between atoms: C_3  and  C_4
REMARK    4  A    between atoms: C_4  and  N_5
REMARK    5  A    between atoms: C_6  and  C_31
REMARK    6  A    between atoms: C_14  and  C_20
REMARK    7  A    between atoms: N_22  and  C_23
REMARK    8  A    between atoms: C_26  and  O_29
REMARK    9  A    between atoms: O_29  and  C_30
REMARK   10  A    between atoms: N_33  and  C_34
REMARK   11  A    between atoms: C_39  and  C_44
REMARK   12  A    between atoms: C_41  and  C_43
REMARK                            x       y       z     vdW  Elec       q    Type
REMARK                         _______ _______ _______ _____ _____    ______ ____
ROOT
ATOM      1  N   UNL     1      -3.659   0.889  -3.152  0.00  0.00    -0.287 N 
ATOM      2  C   UNL     1      -2.315   1.532  -3.015  0.00  0.00    +0.198 C 
ATOM      3  C   UNL     1      -1.627   1.083  -4.267  0.00  0.00    +0.127 C 
ATOM      4  C   UNL     1      -2.170   1.760  -5.512  0.00  0.00    +0.009 C 
ATOM      5  C   UNL     1      -1.481   1.277  -6.523  0.00  0.00    +0.004 C 
ATOM      6  C   UNL     1      -0.535   0.244  -5.898  0.00  0.00    +0.155 C 
ATOM      7  O   UNL     1      -0.268   0.859  -4.559  0.00  0.00    -0.358 OA
ATOM      8  C   UNL     1      -1.522  -0.929  -5.529  0.00  0.00    +0.123 C 
ATOM      9  C   UNL     1      -2.128  -0.416  -4.247  0.00  0.00    +0.128 C 
ATOM     10  C   UNL     1      -3.562  -0.210  -3.972  0.00  0.00    +0.223 C 
ATOM     11  O   UNL     1      -4.481  -0.883  -4.390  0.00  0.00    -0.275 OA
ENDROOT
BRANCH   8  12
ATOM     12  C   UNL     1      -2.575  -1.106  -6.593  0.00  0.00    +0.224 C 
ATOM     13  O   UNL     1      -3.516  -0.343  -6.647  0.00  0.00    -0.275 OA
ATOM     14  N   UNL     1      -2.470  -2.112  -7.484  0.00  0.00    -0.285 N 
ATOM     15  H   UNL     1      -1.755  -2.762  -7.400  0.00  0.00    +0.155 HD
BRANCH  14  16
ATOM     16  C   UNL     1      -3.394  -2.218  -8.532  0.00  0.00    +0.034 A 
ATOM     17  C   UNL     1      -4.723  -1.872  -8.324  0.00  0.00    +0.027 A 
ATOM     18  C   UNL     1      -5.631  -1.972  -9.359  0.00  0.00    +0.047 A 
ATOM     19  C   UNL     1      -5.220  -2.429 -10.602  0.00  0.00    +0.120 A 
ATOM     20  C   UNL     1      -3.894  -2.780 -10.809  0.00  0.00    +0.047 A 
ATOM     21  C   UNL     1      -2.983  -2.675  -9.777  0.00  0.00    +0.027 A 
BRANCH  19  22
ATOM     22  O   UNL     1      -6.117  -2.533 -11.619  0.00  0.00    -0.495 OA
ATOM     23  C   UNL     1      -7.465  -2.154 -11.336  0.00  0.00    +0.277 C 
ENDBRANCH  19  22
ENDBRANCH  14  16
ENDBRANCH   8  12
BRANCH   2  24
ATOM     24  C   UNL     1      -1.595   1.022  -1.793  0.00  0.00    +0.237 C 
ATOM     25  O   UNL     1      -1.980   0.013  -1.240  0.00  0.00    -0.274 OA
ATOM     26  N   UNL     1      -0.525   1.687  -1.314  0.00  0.00    -0.311 N 
ATOM     27  H   UNL     1      -0.218   2.494  -1.756  0.00  0.00    +0.149 HD
BRANCH  26  28
ATOM     28  C   UNL     1       0.174   1.191  -0.126  0.00  0.00    +0.076 C 
ATOM     29  C   UNL     1      -0.527   1.709   1.132  0.00  0.00    +0.022 C 
ATOM     30  C   UNL     1       0.203   1.191   2.372  0.00  0.00    +0.002 C 
ATOM     31  C   UNL     1       1.651   1.685   2.355  0.00  0.00    +0.003 C 
ATOM     32  C   UNL     1       2.352   1.167   1.098  0.00  0.00    -0.009 C 
ATOM     33  C   UNL     1       1.622   1.685  -0.143  0.00  0.00    +0.009 C 
ATOM     34  C   UNL     1       1.639   3.215  -0.143  0.00  0.00    +0.009 C 
ATOM     35  C   UNL     1       3.800   1.661   1.081  0.00  0.00    +0.008 C 
ENDBRANCH  26  28
ENDBRANCH   2  24
BRANCH   1  36
ATOM     36  C   UNL     1      -4.889   1.359  -2.511  0.00  0.00    +0.108 C 
BRANCH  36  37
ATOM     37  C   UNL     1      -5.598   2.353  -3.434  0.00  0.00    +0.019 C 
BRANCH  37  39
ATOM     38  C   UNL     1      -7.591   3.837  -3.687  0.00  0.00    +0.004 C 
ATOM     39  C   UNL     1      -6.883   2.844  -2.764  0.00  0.00    -0.002 C 
ENDBRANCH  37  39
ENDBRANCH  36  37
ENDBRANCH   1  36
TORSDOF 8
