REMARK  Name = ZINC63780723
REMARK  11 active torsions:
REMARK  status: ('A' for Active; 'I' for Inactive)
REMARK    1  A    between atoms: C_1  and  O_2
REMARK    2  A    between atoms: O_2  and  C_3
REMARK    3  A    between atoms: C_6  and  C_9
REMARK    4  A    between atoms: C_9  and  C_11
REMARK    5  A    between atoms: C_9  and  N_25
REMARK    6  A    between atoms: C_11  and  C_13
REMARK    7  A    between atoms: C_11  and  O_24
REMARK    8  A    between atoms: C_13  and  C_15
REMARK    9  A    between atoms: N_28  and  C_31
REMARK   10  A    between atoms: C_34  and  O_37
REMARK   11  A    between atoms: O_37  and  C_38
REMARK                            x       y       z     vdW  Elec       q    Type
REMARK                         _______ _______ _______ _____ _____    ______ ____
ROOT
ATOM      1  C   UNL     1       2.506  -2.502  -4.354  0.00  0.00    +0.123 C 
ENDROOT
BRANCH   1   5
ATOM      2  C   UNL     1       0.216  -0.448  -1.388  0.00  0.00    +0.120 A 
ATOM      3  C   UNL     1       0.874   0.269  -2.377  0.00  0.00    +0.046 A 
ATOM      4  C   UNL     1       1.614  -0.398  -3.334  0.00  0.00    +0.009 A 
ATOM      5  C   UNL     1       1.699  -1.778  -3.308  0.00  0.00    -0.027 A 
ATOM      6  C   UNL     1       1.044  -2.494  -2.323  0.00  0.00    +0.009 A 
ATOM      7  C   UNL     1       0.307  -1.832  -1.360  0.00  0.00    +0.046 A 
BRANCH   2   9
ATOM      8  C   UNL     1      -0.562   1.631  -0.535  0.00  0.00    +0.277 C 
ATOM      9  O   UNL     1      -0.512   0.205  -0.445  0.00  0.00    -0.495 OA
ENDBRANCH   2   9
ENDBRANCH   1   5
BRANCH   1  10
ATOM     10  N   UNL     1       3.221  -3.624  -3.730  0.00  0.00    -0.290 NA
ATOM     11  C   UNL     1       4.106  -3.152  -2.656  0.00  0.00    +0.104 C 
ATOM     12  C   UNL     1       4.692  -4.359  -1.915  0.00  0.00    +0.120 C 
ATOM     13  N   UNL     1       5.328  -5.248  -2.900  0.00  0.00    -0.327 N 
ATOM     14  C   UNL     1       4.547  -5.653  -4.078  0.00  0.00    +0.120 C 
ATOM     15  C   UNL     1       3.966  -4.396  -4.734  0.00  0.00    +0.104 C 
BRANCH  13  16
ATOM     16  C   UNL     1       6.641  -5.696  -2.720  0.00  0.00    +0.030 A 
ATOM     17  C   UNL     1       7.401  -5.213  -1.662  0.00  0.00    +0.027 A 
ATOM     18  C   UNL     1       8.697  -5.656  -1.485  0.00  0.00    +0.047 A 
ATOM     19  C   UNL     1       9.240  -6.582  -2.364  0.00  0.00    +0.120 A 
ATOM     20  C   UNL     1       8.482  -7.064  -3.421  0.00  0.00    +0.047 A 
ATOM     21  C   UNL     1       7.184  -6.626  -3.596  0.00  0.00    +0.027 A 
BRANCH  19  22
ATOM     22  O   UNL     1      10.517  -7.017  -2.189  0.00  0.00    -0.495 OA
ATOM     23  C   UNL     1      11.012  -7.971  -3.131  0.00  0.00    +0.277 C 
ENDBRANCH  19  22
ENDBRANCH  13  16
ENDBRANCH   1  10
BRANCH   1  24
ATOM     24  C   UNL     1       1.572  -3.034  -5.441  0.00  0.00    +0.206 C 
BRANCH  24  25
ATOM     25  C   UNL     1       0.859  -1.881  -6.100  0.00  0.00    +0.192 C 
ATOM     26  O   UNL     1      -0.280  -1.609  -5.781  0.00  0.00    -0.289 OA
BRANCH  25  27
ATOM     27  C   UNL     1       1.517  -1.118  -7.088  0.00  0.00    +0.026 C 
ATOM     28  C   UNL     1       1.011  -0.032  -7.781  0.00  0.00    +0.006 A 
ATOM     29  C   UNL     1      -0.236   0.635  -7.746  0.00  0.00    +0.010 A 
ATOM     30  C   UNL     1      -0.464   1.695  -8.553  0.00  0.00    +0.001 A 
ATOM     31  C   UNL     1       0.500   2.180  -9.451  0.00  0.00    +0.002 A 
ATOM     32  C   UNL     1       1.722   1.615  -9.563  0.00  0.00    +0.026 A 
ATOM     33  C   UNL     1       2.053   0.455  -8.718  0.00  0.00    +0.043 A 
ATOM     34  N   UNL     1       3.130  -0.270  -8.620  0.00  0.00    -0.380 N 
ATOM     35  C   UNL     1       2.925  -1.310  -7.607  0.00  0.00    +0.152 C 
ATOM     36  H   UNL     1       3.942  -0.140  -9.134  0.00  0.00    +0.160 HD
ENDBRANCH  25  27
ENDBRANCH  24  25
BRANCH  24  37
ATOM     37  O   UNL     1       0.611  -3.915  -4.855  0.00  0.00    -0.382 OA
ATOM     38  H   UNL     1       0.057  -3.499  -4.181  0.00  0.00    +0.210 HD
ENDBRANCH  24  37
ENDBRANCH   1  24
TORSDOF 9
