REMARK  Name = ZINC36167682
REMARK  17 active torsions:
REMARK  status: ('A' for Active; 'I' for Inactive)
REMARK    1  A    between atoms: C_1  and  C_2
REMARK    2  A    between atoms: C_2  and  C_3
REMARK    3  A    between atoms: C_3  and  N_4
REMARK    4  A    between atoms: N_4  and  C_5
REMARK    5  A    between atoms: N_4  and  C_14
REMARK    6  A    between atoms: C_5  and  C_6
REMARK    7  A    between atoms: C_9  and  O_12
REMARK    8  A    between atoms: O_12  and  C_13
REMARK    9  A    between atoms: C_14  and  C_15
REMARK   10  A    between atoms: C_18  and  C_20
REMARK   11  A    between atoms: C_20  and  C_21
REMARK   12  A    between atoms: C_20  and  C_29
REMARK   13  A    between atoms: C_20  and  O_37
REMARK   14  A    between atoms: C_24  and  O_27
REMARK   15  A    between atoms: O_27  and  C_28
REMARK   16  A    between atoms: C_32  and  O_35
REMARK   17  A    between atoms: O_35  and  C_36
REMARK                            x       y       z     vdW  Elec       q    Type
REMARK                         _______ _______ _______ _____ _____    ______ ____
ROOT
ATOM      1  C   UNL     1      -1.786  -1.017  -0.062  0.00  0.00    +0.089 A 
ATOM      2  C   UNL     1      -2.623  -0.012   0.253  0.00  0.00    +0.043 A 
ATOM      3  C   UNL     1      -3.016  -0.212   1.596  0.00  0.00    +0.048 A 
ATOM      4  C   UNL     1      -2.396  -1.327   2.022  0.00  0.00    +0.146 A 
ATOM      5  O   UNL     1      -1.657  -1.814   1.011  0.00  0.00    -0.463 OA
ENDROOT
BRANCH   1   6
ATOM      6  C   UNL     1      -1.113  -1.218  -1.395  0.00  0.00    -0.003 C 
BRANCH   6   7
ATOM      7  N   UNL     1       0.118  -0.419  -1.448  0.00  0.00    +0.387 N 
ATOM      8  H   UNL     1      -0.097   0.544  -1.240  0.00  0.00    -0.081 HD
BRANCH   7   9
ATOM      9  C   UNL     1       0.704  -0.510  -2.792  0.00  0.00    -0.078 C 
BRANCH   9  11
ATOM     10  C   UNL     1       0.437   0.183  -5.178  0.00  0.00    +0.002 C 
ATOM     11  C   UNL     1      -0.235   0.149  -3.804  0.00  0.00    -0.022 C 
ENDBRANCH   9  11
ENDBRANCH   7   9
BRANCH   7  12
ATOM     12  C   UNL     1       1.077  -0.931  -0.460  0.00  0.00    -0.042 C 
BRANCH  12  13
ATOM     13  C   UNL     1       2.291  -0.038  -0.428  0.00  0.00    -0.064 A 
ATOM     14  C   UNL     1       3.360  -0.295  -1.265  0.00  0.00    +0.005 A 
ATOM     15  C   UNL     1       4.473   0.522  -1.237  0.00  0.00    +0.046 A 
ATOM     16  C   UNL     1       4.518   1.602  -0.367  0.00  0.00    +0.120 A 
ATOM     17  C   UNL     1       3.443   1.859   0.472  0.00  0.00    +0.046 A 
ATOM     18  C   UNL     1       2.330   1.041   0.436  0.00  0.00    +0.005 A 
BRANCH  16  19
ATOM     19  O   UNL     1       5.612   2.407  -0.338  0.00  0.00    -0.495 OA
ATOM     20  C   UNL     1       5.588   3.501   0.583  0.00  0.00    +0.277 C 
ENDBRANCH  16  19
ENDBRANCH  12  13
ENDBRANCH   7  12
ENDBRANCH   6   7
ENDBRANCH   1   6
BRANCH   4  21
ATOM     21  C   UNL     1      -2.514  -1.932   3.397  0.00  0.00    +0.174 C 
BRANCH  21  22
ATOM     22  C   UNL     1      -2.336  -3.425   3.307  0.00  0.00    -0.004 A 
ATOM     23  C   UNL     1      -3.393  -4.266   3.605  0.00  0.00    +0.011 A 
ATOM     24  C   UNL     1      -3.232  -5.635   3.523  0.00  0.00    +0.046 A 
ATOM     25  C   UNL     1      -2.009  -6.167   3.141  0.00  0.00    +0.120 A 
ATOM     26  C   UNL     1      -0.951  -5.322   2.842  0.00  0.00    +0.046 A 
ATOM     27  C   UNL     1      -1.118  -3.953   2.920  0.00  0.00    +0.011 A 
BRANCH  25  28
ATOM     28  O   UNL     1      -1.848  -7.514   3.061  0.00  0.00    -0.495 OA
ATOM     29  C   UNL     1      -0.562  -7.991   2.661  0.00  0.00    +0.277 C 
ENDBRANCH  25  28
ENDBRANCH  21  22
BRANCH  21  30
ATOM     30  C   UNL     1      -1.450  -1.352   4.294  0.00  0.00    -0.004 A 
ATOM     31  C   UNL     1      -0.172  -1.153   3.808  0.00  0.00    +0.011 A 
ATOM     32  C   UNL     1       0.805  -0.623   4.628  0.00  0.00    +0.046 A 
ATOM     33  C   UNL     1       0.502  -0.289   5.940  0.00  0.00    +0.120 A 
ATOM     34  C   UNL     1      -0.782  -0.490   6.425  0.00  0.00    +0.046 A 
ATOM     35  C   UNL     1      -1.757  -1.016   5.599  0.00  0.00    +0.011 A 
BRANCH  33  36
ATOM     36  O   UNL     1       1.462   0.232   6.749  0.00  0.00    -0.495 OA
ATOM     37  C   UNL     1       1.078   0.552   8.088  0.00  0.00    +0.277 C 
ENDBRANCH  33  36
ENDBRANCH  21  30
BRANCH  21  38
ATOM     38  O   UNL     1      -3.804  -1.637   3.937  0.00  0.00    -0.372 OA
ATOM     39  H   UNL     1      -4.539  -1.981   3.410  0.00  0.00    +0.212 HD
ENDBRANCH  21  38
ENDBRANCH   4  21
TORSDOF 13
