REMARK  Name = ZINC08962028
REMARK  6 active torsions:
REMARK  status: ('A' for Active; 'I' for Inactive)
REMARK    1  A    between atoms: C_1  and  C_2
REMARK    2  A    between atoms: C_7  and  C_8
REMARK    3  A    between atoms: C_8  and  S_9
REMARK    4  A    between atoms: S_9  and  N_12
REMARK    5  A    between atoms: N_12  and  C_13
REMARK    6  A    between atoms: C_23  and  C_26
REMARK                            x       y       z     vdW  Elec       q    Type
REMARK                         _______ _______ _______ _____ _____    ______ ____
ROOT
ATOM      1  C   UNL     1       1.292   2.095   0.041  0.00  0.00    +0.049 A 
ATOM      2  C   UNL     1       2.555   1.514   0.092  0.00  0.00    +0.028 A 
ATOM      3  C   UNL     1       2.693   0.141   0.124  0.00  0.00    +0.048 A 
ATOM      4  C   UNL     1       1.569  -0.668   0.105  0.00  0.00    +0.133 A 
ATOM      5  C   UNL     1       0.292  -0.089   0.050  0.00  0.00    +0.080 A 
ATOM      6  C   UNL     1       0.159   1.298   0.019  0.00  0.00    +0.041 A 
ATOM      7  C   UNL     1      -0.892  -0.968   0.021  0.00  0.00    +0.248 C 
ATOM      8  O   UNL     1      -1.778  -0.787  -0.791  0.00  0.00    -0.270 OA
ATOM      9  N   UNL     1      -0.973  -1.982   0.916  0.00  0.00    -0.308 N 
ATOM     10  C   UNL     1       0.052  -2.114   1.953  0.00  0.00    +0.148 C 
ATOM     11  C   UNL     1       1.345  -2.666   1.366  0.00  0.00    +0.187 C 
ATOM     12  O   UNL     1       1.683  -2.021   0.145  0.00  0.00    -0.487 OA
ATOM     13  C   UNL     1       1.175  -4.165   1.109  0.00  0.00    +0.053 C 
ATOM     14  H   UNL     1      -1.707  -2.615   0.871  0.00  0.00    +0.149 HD
ENDROOT
BRANCH   1  15
ATOM     15  N   UNL     1       1.166   3.489   0.010  0.00  0.00    -0.220 N 
ATOM     16  H   UNL     1       1.362   3.976  -0.806  0.00  0.00    +0.173 HD
BRANCH  15  17
ATOM     17  S   UNL     1       0.681   4.307   1.366  0.00  0.00    +0.047 S 
ATOM     18  O   UNL     1       0.658   5.673   0.976  0.00  0.00    -0.155 OA
ATOM     19  O   UNL     1      -0.509   3.650   1.779  0.00  0.00    -0.155 OA
BRANCH  17  20
ATOM     20  C   UNL     1       2.003   4.025   2.577  0.00  0.00    +0.224 C 
BRANCH  20  27
ATOM     21  C   UNL     1       0.555   2.439   4.509  0.00  0.00    +0.044 C 
ATOM     22  C   UNL     1       0.915   3.868   4.825  0.00  0.00    -0.046 A 
ATOM     23  C   UNL     1       0.552   4.419   6.040  0.00  0.00    +0.003 A 
ATOM     24  C   UNL     1       0.883   5.730   6.330  0.00  0.00    +0.000 A 
ATOM     25  C   UNL     1       1.575   6.489   5.405  0.00  0.00    +0.000 A 
ATOM     26  C   UNL     1       1.942   5.936   4.193  0.00  0.00    +0.005 A 
ATOM     27  C   UNL     1       1.607   4.627   3.901  0.00  0.00    -0.022 A 
ENDBRANCH  20  27
ENDBRANCH  17  20
ENDBRANCH  15  17
ENDBRANCH   1  15
TORSDOF 4
