REMARK  Name = ZINC12871245
REMARK  7 active torsions:
REMARK  status: ('A' for Active; 'I' for Inactive)
REMARK    1  A    between atoms: C_5  and  O_8
REMARK    2  A    between atoms: O_8  and  C_9
REMARK    3  A    between atoms: C_11  and  O_24
REMARK    4  A    between atoms: C_13  and  O_23
REMARK    5  A    between atoms: C_15  and  O_22
REMARK    6  A    between atoms: C_17  and  C_20
REMARK    7  A    between atoms: C_20  and  O_21
REMARK                            x       y       z     vdW  Elec       q    Type
REMARK                         _______ _______ _______ _____ _____    ______ ____
ROOT
ATOM      1  C   UNL     1       6.331   1.849  -3.494  0.00  0.00    +0.035 A 
ATOM      2  C   UNL     1       5.756   1.204  -4.595  0.00  0.00    +0.023 A 
ATOM      3  C   UNL     1       4.411   0.800  -4.551  0.00  0.00    +0.143 A 
ATOM      4  C   UNL     1       3.662   1.042  -3.410  0.00  0.00    +0.094 A 
ATOM      5  C   UNL     1       4.245   1.680  -2.328  0.00  0.00    +0.146 A 
ATOM      6  C   UNL     1       5.579   2.086  -2.379  0.00  0.00    +0.083 A 
ATOM      7 CL   UNL     1       6.288   2.892  -1.014  0.00  0.00    -0.080 Cl
ATOM      8  O   UNL     1       3.865   0.183  -5.621  0.00  0.00    -0.422 OA
ATOM      9  C   UNL     1       4.581  -0.058  -6.727  0.00  0.00    +0.341 A 
ATOM     10  O   UNL     1       4.043  -0.615  -7.667  0.00  0.00    -0.245 OA
ATOM     11  C   UNL     1       5.943   0.315  -6.839  0.00  0.00    +0.041 A 
ATOM     12  C   UNL     1       6.546   0.942  -5.806  0.00  0.00    -0.027 A 
ATOM     13  C   UNL     1       7.981   1.388  -5.838  0.00  0.00    +0.036 C 
ATOM     14  C   UNL     1       8.742   0.674  -6.954  0.00  0.00    +0.005 C 
ATOM     15  C   UNL     1       7.937   0.817  -8.252  0.00  0.00    +0.005 C 
ATOM     16  C   UNL     1       6.662  -0.014  -8.121  0.00  0.00    +0.042 C 
ENDROOT
BRANCH   5  17
ATOM     17  O   UNL     1       3.512   1.917  -1.210  0.00  0.00    -0.459 OA
BRANCH  17  18
ATOM     18  C   UNL     1       2.151   1.482  -1.223  0.00  0.00    +0.339 C 
ATOM     19  C   UNL     1       1.422   2.047  -0.001  0.00  0.00    +0.214 C 
ATOM     20  C   UNL     1      -0.019   1.528   0.010  0.00  0.00    +0.180 C 
ATOM     21  C   UNL     1       0.002  -0.004   0.002  0.00  0.00    +0.177 C 
ATOM     22  C   UNL     1       0.785  -0.489  -1.221  0.00  0.00    +0.179 C 
ATOM     23  O   UNL     1       2.106   0.054  -1.185  0.00  0.00    -0.331 OA
BRANCH  21  24
ATOM     24  O   UNL     1       0.633  -0.480   1.193  0.00  0.00    -0.386 OA
ATOM     25  H   UNL     1       0.192  -0.205   2.008  0.00  0.00    +0.210 HD
ENDBRANCH  21  24
BRANCH  20  26
ATOM     26  O   UNL     1      -0.707   2.003  -1.148  0.00  0.00    -0.386 OA
ATOM     27  H   UNL     1      -0.758   2.966  -1.208  0.00  0.00    +0.210 HD
ENDBRANCH  20  26
BRANCH  19  28
ATOM     28  O   UNL     1       1.415   3.474  -0.066  0.00  0.00    -0.383 OA
ATOM     29  H   UNL     1       2.296   3.872  -0.076  0.00  0.00    +0.210 HD
ENDBRANCH  19  28
BRANCH  22  30
ATOM     30  C   UNL     1       0.862  -2.017  -1.204  0.00  0.00    +0.190 C 
BRANCH  30  31
ATOM     31  O   UNL     1       1.490  -2.476  -2.403  0.00  0.00    -0.392 OA
ATOM     32  H   UNL     1       1.573  -3.438  -2.460  0.00  0.00    +0.210 HD
ENDBRANCH  30  31
ENDBRANCH  22  30
ENDBRANCH  17  18
ENDBRANCH   5  17
TORSDOF 7
