REMARK  Name = ZINC13033070
REMARK  13 active torsions:
REMARK  status: ('A' for Active; 'I' for Inactive)
REMARK    1  A    between atoms: C_1  and  C_2
REMARK    2  A    between atoms: C_7  and  C_15
REMARK    3  A    between atoms: C_13  and  C_14
REMARK    4  A    between atoms: C_15  and  N_70
REMARK    5  A    between atoms: C_16  and  C_17
REMARK    6  A    between atoms: C_16  and  N_70
REMARK    7  A    between atoms: C_20  and  O_23
REMARK    8  A    between atoms: O_23  and  C_24
REMARK    9  A    between atoms: C_25  and  C_26
REMARK   10  A    between atoms: C_25  and  N_70
REMARK   11  A    between atoms: N_30  and  C_31
REMARK   12  A    between atoms: C_31  and  C_32
REMARK   13  A    between atoms: C_32  and  C_33
REMARK                            x       y       z     vdW  Elec       q    Type
REMARK                         _______ _______ _______ _____ _____    ______ ____
ROOT
ATOM      1  N   UNL     1      -1.081  -1.865  -2.976  0.00  0.00    +0.390 N 
ATOM      2  H   UNL     1      -0.466  -2.474  -2.424  0.00  0.00    -0.080 HD
ENDROOT
BRANCH   1   3
ATOM      3  C   UNL     1      -0.368  -1.451  -4.204  0.00  0.00    -0.036 C 
BRANCH   3  10
ATOM      4  C   UNL     1       2.822  -7.852  -7.735  0.00  0.00    +0.044 C 
ATOM      5  C   UNL     1       2.042  -6.671  -7.218  0.00  0.00    -0.046 A 
ATOM      6  C   UNL     1       0.819  -6.351  -7.791  0.00  0.00    +0.004 A 
ATOM      7  C   UNL     1       0.096  -5.284  -7.338  0.00  0.00    +0.010 A 
ATOM      8  C   UNL     1       0.593  -4.507  -6.285  0.00  0.00    -0.001 A 
ATOM      9  C   UNL     1      -0.158  -3.360  -5.771  0.00  0.00    +0.017 A 
ATOM     10  C   UNL     1       0.376  -2.640  -4.753  0.00  0.00    +0.001 A 
ATOM     11  C   UNL     1       1.624  -3.004  -4.204  0.00  0.00    +0.251 A 
ATOM     12  O   UNL     1       2.084  -2.346  -3.287  0.00  0.00    -0.268 OA
ATOM     13  N   UNL     1       2.318  -4.059  -4.666  0.00  0.00    -0.322 N 
ATOM     14  H   UNL     1       3.173  -4.281  -4.265  0.00  0.00    +0.169 HD
ATOM     15  C   UNL     1       1.833  -4.828  -5.702  0.00  0.00    +0.052 A 
ATOM     16  C   UNL     1       2.551  -5.919  -6.181  0.00  0.00    -0.024 A 
ATOM     17  C   UNL     1       3.881  -6.277  -5.569  0.00  0.00    +0.046 C 
ENDBRANCH   3  10
ENDBRANCH   1   3
BRANCH   1  18
ATOM     18  C   UNL     1      -2.306  -2.612  -3.331  0.00  0.00    -0.042 C 
BRANCH  18  19
ATOM     19  C   UNL     1      -3.255  -1.735  -4.105  0.00  0.00    -0.064 A 
ATOM     20  C   UNL     1      -4.128  -0.899  -3.433  0.00  0.00    +0.005 A 
ATOM     21  C   UNL     1      -4.995  -0.090  -4.141  0.00  0.00    +0.046 A 
ATOM     22  C   UNL     1      -4.997  -0.124  -5.527  0.00  0.00    +0.120 A 
ATOM     23  C   UNL     1      -4.124  -0.967  -6.200  0.00  0.00    +0.046 A 
ATOM     24  C   UNL     1      -3.255  -1.770  -5.488  0.00  0.00    +0.005 A 
BRANCH  22  25
ATOM     25  O   UNL     1      -5.853   0.668  -6.226  0.00  0.00    -0.495 OA
ATOM     26  C   UNL     1      -6.800   1.425  -5.470  0.00  0.00    +0.277 C 
ENDBRANCH  22  25
ENDBRANCH  18  19
ENDBRANCH   1  18
BRANCH   1  27
ATOM     27  C   UNL     1      -1.430  -0.676  -2.170  0.00  0.00    +0.001 C 
BRANCH  27  28
ATOM     28  C   UNL     1      -1.952  -1.133  -0.832  0.00  0.00    +0.135 A 
ATOM     29  N   UNL     1      -3.202  -1.378  -0.522  0.00  0.00    -0.115 NA
ATOM     30  N   UNL     1      -3.241  -1.745   0.712  0.00  0.00    -0.023 NA
ATOM     31  N   UNL     1      -2.048  -1.746   1.196  0.00  0.00    -0.044 NA
ATOM     32  N   UNL     1      -1.226  -1.369   0.276  0.00  0.00    -0.231 N 
BRANCH  32  33
ATOM     33  C   UNL     1       0.226  -1.229   0.411  0.00  0.00    +0.152 C 
BRANCH  33  34
ATOM     34  C   UNL     1       0.562   0.194   0.862  0.00  0.00    +0.058 C 
BRANCH  34  35
ATOM     35  C   UNL     1       2.056   0.337   1.001  0.00  0.00    -0.046 A 
ATOM     36  C   UNL     1       2.667   0.064   2.210  0.00  0.00    +0.004 A 
ATOM     37  C   UNL     1       4.038   0.190   2.336  0.00  0.00    +0.000 A 
ATOM     38  C   UNL     1       4.796   0.601   1.255  0.00  0.00    +0.000 A 
ATOM     39  C   UNL     1       4.184   0.880   0.048  0.00  0.00    +0.000 A 
ATOM     40  C   UNL     1       2.814   0.748  -0.080  0.00  0.00    +0.004 A 
ENDBRANCH  34  35
ENDBRANCH  33  34
ENDBRANCH  32  33
ENDBRANCH  27  28
ENDBRANCH   1  27
TORSDOF 10
