REMARK  Name = ZINC20352596
REMARK  8 active torsions:
REMARK  status: ('A' for Active; 'I' for Inactive)
REMARK    1  A    between atoms: C_1  and  C_2
REMARK    2  A    between atoms: C_7  and  N_8
REMARK    3  A    between atoms: N_8  and  C_9
REMARK    4  A    between atoms: C_9  and  C_11
REMARK    5  A    between atoms: C_9  and  C_12
REMARK    6  A    between atoms: N_14  and  N_15
REMARK    7  A    between atoms: C_16  and  C_17
REMARK    8  A    between atoms: C_20  and  N_22
REMARK                            x       y       z     vdW  Elec       q    Type
REMARK                         _______ _______ _______ _____ _____    ______ ____
ROOT
ATOM      1  C   UNL     1      -0.723   1.947   1.250  0.00  0.00    +0.252 C 
ATOM      2  O   UNL     1      -1.164   1.151   2.045  0.00  0.00    -0.272 OA
ATOM      3  N   UNL     1      -0.862   3.269   1.472  0.00  0.00    -0.205 N 
ATOM      4  H   UNL     1      -0.461   3.993   0.748  0.00  0.00    +0.177 HD
ENDROOT
BRANCH   1   5
ATOM      5  C   UNL     1      -0.018   1.461   0.010  0.00  0.00    +0.155 C 
ATOM      6  C   UNL     1       1.418   1.990  -0.001  0.00  0.00    +0.038 C 
BRANCH   5   7
ATOM      7  N   UNL     1       0.002  -0.004   0.002  0.00  0.00    -0.333 N 
ATOM      8  H   UNL     1      -0.064  -0.560   0.949  0.00  0.00    +0.147 HD
BRANCH   7  15
ATOM      9  C   UNL     1       0.034  -2.848   0.078  0.00  0.00    +0.045 C 
ATOM     10  C   UNL     1       0.124  -2.083  -1.217  0.00  0.00    -0.029 A 
ATOM     11  C   UNL     1       0.227  -2.763  -2.415  0.00  0.00    +0.019 A 
ATOM     12  C   UNL     1       0.310  -2.062  -3.605  0.00  0.00    +0.014 A 
ATOM     13  C   UNL     1       0.291  -0.679  -3.599  0.00  0.00    +0.016 A 
ATOM     14  C   UNL     1       0.184   0.006  -2.405  0.00  0.00    +0.024 A 
ATOM     15  C   UNL     1       0.105  -0.695  -1.208  0.00  0.00    +0.031 A 
ATOM     16  I   UNL     1       0.466  -3.098  -5.419  0.00  0.00    -0.044 I 
ENDBRANCH   7  15
ENDBRANCH   5   7
ENDBRANCH   1   5
BRANCH   3  17
ATOM     17  N   UNL     1      -1.466   3.685   2.533  0.00  0.00    -0.187 NA
ATOM     18  C   UNL     1      -1.604   4.998   2.753  0.00  0.00    +0.145 C 
BRANCH  18  19
ATOM     19  C   UNL     1      -2.250   5.443   3.889  0.00  0.00    +0.034 A 
ATOM     20  C   UNL     1      -2.514   6.834   4.331  0.00  0.00    +0.019 A 
ATOM     21  C   UNL     1      -3.168   6.959   5.485  0.00  0.00    +0.041 A 
ATOM     22  C   UNL     1      -3.556   5.806   6.192  0.00  0.00    +0.164 A 
ATOM     23  S   UNL     1      -2.994   4.496   5.207  0.00  0.00    -0.064 S 
BRANCH  22  24
ATOM     24  N   UNL     1      -4.292   5.729   7.492  0.00  0.00    +0.063 N 
ATOM     25  O   UNL     1      -4.654   6.834   8.110  0.00  0.00    -0.126 OA
ATOM     26  O   UNL     1      -4.577   4.556   8.018  0.00  0.00    -0.126 OA
ENDBRANCH  22  24
ENDBRANCH  18  19
ENDBRANCH   3  17
TORSDOF 6
