REMARK  Name = ZINC39664893
REMARK  13 active torsions:
REMARK  status: ('A' for Active; 'I' for Inactive)
REMARK    1  A    between atoms: C_1  and  C_2
REMARK    2  A    between atoms: C_2  and  C_3
REMARK    3  A    between atoms: C_2  and  C_4
REMARK    4  A    between atoms: C_4  and  C_6
REMARK    5  A    between atoms: C_4  and  O_34
REMARK    6  A    between atoms: C_10  and  C_19
REMARK    7  A    between atoms: N_21  and  C_22
REMARK    8  A    between atoms: C_22  and  C_24
REMARK    9  A    between atoms: C_22  and  C_28
REMARK   10  A    between atoms: C_24  and  N_25
REMARK   11  A    between atoms: N_25  and  C_26
REMARK   12  A    between atoms: N_25  and  C_27
REMARK   13  A    between atoms: O_34  and  C_35
REMARK                            x       y       z     vdW  Elec       q    Type
REMARK                         _______ _______ _______ _____ _____    ______ ____
ROOT
ATOM      1  C   UNL     1      -2.184  -1.514   0.371  0.00  0.00    +0.257 C 
ATOM      2  O   UNL     1      -2.429  -2.189  -0.605  0.00  0.00    -0.272 OA
ATOM      3  N   UNL     1      -1.613  -2.077   1.454  0.00  0.00    -0.297 N 
ATOM      4  C   UNL     1      -1.348  -1.451   2.771  0.00  0.00    +0.121 C 
ATOM      5  C   UNL     1      -1.670  -2.556   3.801  0.00  0.00    +0.100 C 
ATOM      6  C   UNL     1      -1.509  -3.874   3.026  0.00  0.00    -0.004 C 
ATOM      7  C   UNL     1      -1.113  -3.465   1.599  0.00  0.00    +0.115 C 
ATOM      8  C   UNL     1      -2.829  -4.638   3.002  0.00  0.00    -0.010 C 
ATOM      9  C   UNL     1      -2.630  -5.971   2.275  0.00  0.00    -0.082 C 
ATOM     10  N   UNL     1      -1.599  -6.757   2.964  0.00  0.00    +0.379 N 
ATOM     11  C   UNL     1      -0.310  -6.057   2.901  0.00  0.00    -0.082 C 
ATOM     12  C   UNL     1      -0.412  -4.728   3.655  0.00  0.00    -0.010 C 
ATOM     13  H   UNL     1      -1.865  -6.884   3.929  0.00  0.00    -0.086 HD
ATOM     14  H   UNL     1      -1.512  -7.659   2.519  0.00  0.00    -0.086 HD
ENDROOT
BRANCH   5  15
ATOM     15  C   UNL     1      -0.699  -2.500   4.952  0.00  0.00    +0.219 C 
ATOM     16  O   UNL     1       0.407  -2.031   4.790  0.00  0.00    -0.275 OA
ATOM     17  N   UNL     1      -1.060  -2.971   6.162  0.00  0.00    -0.310 N 
ATOM     18  H   UNL     1      -1.917  -3.411   6.275  0.00  0.00    +0.149 HD
BRANCH  17  19
ATOM     19  C   UNL     1      -0.159  -2.817   7.307  0.00  0.00    +0.087 C 
BRANCH  19  20
ATOM     20  C   UNL     1      -0.395  -3.938   8.286  0.00  0.00    -0.029 A 
ATOM     21  C   UNL     1      -1.682  -4.373   8.542  0.00  0.00    +0.005 A 
ATOM     22  C   UNL     1      -1.899  -5.402   9.440  0.00  0.00    +0.000 A 
ATOM     23  C   UNL     1      -0.828  -5.995  10.082  0.00  0.00    +0.000 A 
ATOM     24  C   UNL     1       0.459  -5.560   9.826  0.00  0.00    +0.000 A 
ATOM     25  C   UNL     1       0.676  -4.535   8.925  0.00  0.00    +0.005 A 
ENDBRANCH  19  20
BRANCH  19  26
ATOM     26  C   UNL     1      -0.430  -1.476   7.992  0.00  0.00    -0.052 C 
BRANCH  26  27
ATOM     27  N   UNL     1       0.527  -1.286   9.091  0.00  0.00    +0.377 N 
ATOM     28  C   UNL     1       1.885  -1.174   8.544  0.00  0.00    -0.097 C 
ATOM     29  C   UNL     1       0.192  -0.059   9.825  0.00  0.00    -0.097 C 
ATOM     30  H   UNL     1       0.480  -2.076   9.718  0.00  0.00    -0.083 HD
ENDBRANCH  26  27
ENDBRANCH  19  26
ENDBRANCH  17  19
ENDBRANCH   5  15
BRANCH   1  31
ATOM     31  C   UNL     1      -2.519  -0.044   0.375  0.00  0.00    +0.261 C 
BRANCH  31  33
ATOM     32  C   UNL     1      -1.595   2.256   0.065  0.00  0.00    +0.011 C 
ATOM     33  C   UNL     1      -1.280   0.762  -0.022  0.00  0.00    +0.033 C 
ATOM     34  C   UNL     1      -0.128   0.427   0.928  0.00  0.00    +0.011 C 
ENDBRANCH  31  33
BRANCH  31  35
ATOM     35  O   UNL     1      -3.570   0.207  -0.560  0.00  0.00    -0.479 OA
BRANCH  35  36
ATOM     36  C   UNL     1      -4.448   1.196  -0.249  0.00  0.00    +0.122 A 
ATOM     37  C   UNL     1      -5.452   1.540  -1.143  0.00  0.00    +0.045 A 
ATOM     38  C   UNL     1      -6.345   2.546  -0.824  0.00  0.00    +0.004 A 
ATOM     39  C   UNL     1      -6.237   3.210   0.384  0.00  0.00    +0.000 A 
ATOM     40  C   UNL     1      -5.237   2.869   1.276  0.00  0.00    +0.004 A 
ATOM     41  C   UNL     1      -4.346   1.861   0.965  0.00  0.00    +0.045 A 
ENDBRANCH  35  36
ENDBRANCH  31  35
ENDBRANCH   1  31
TORSDOF 9
