REMARK  Name = ZINC39053866
REMARK  4 active torsions:
REMARK  status: ('A' for Active; 'I' for Inactive)
REMARK    1  A    between atoms: C_1  and  C_2
REMARK    2  A    between atoms: C_2  and  C_4
REMARK    3  A    between atoms: C_4  and  S_7
REMARK    4  A    between atoms: S_7  and  N_10
REMARK                            x       y       z     vdW  Elec       q    Type
REMARK                         _______ _______ _______ _____ _____    ______ ____
ROOT
ATOM      1  C   UNL     1      -0.000  -0.750  -1.307  0.00  0.00    +0.124 C 
ATOM      2  C   UNL     1       0.180   0.068  -2.587  0.00  0.00    +0.038 C 
ATOM      3  C   UNL     1      -1.188  -0.527  -2.246  0.00  0.00    +0.038 C 
ENDROOT
BRANCH   1   5
ATOM      4  C   UNL     1      -0.018   1.503   0.010  0.00  0.00    +0.041 C 
ATOM      5  C   UNL     1       0.002  -0.004   0.002  0.00  0.00    -0.051 C 
ATOM      6  C   UNL     1       0.022  -0.665   1.133  0.00  0.00    +0.009 C 
ENDBRANCH   1   5
BRANCH   1   7
ATOM      7  S   UNL     1       0.732  -2.410  -1.263  0.00  0.00    +0.036 S 
ATOM      8  O   UNL     1      -0.182  -3.333  -0.686  0.00  0.00    -0.158 OA
ATOM      9  O   UNL     1       1.368  -2.697  -2.501  0.00  0.00    -0.158 OA
BRANCH   7  10
ATOM     10  N   UNL     1       1.969  -2.300  -0.168  0.00  0.00    -0.207 NA
ATOM     11  H   UNL     1       2.148  -1.458   0.279  0.00  0.00    +0.144 HD
ATOM     12  H   UNL     1       2.515  -3.078   0.026  0.00  0.00    +0.144 HD
ENDBRANCH   7  10
ENDBRANCH   1   7
TORSDOF 3
