REMARK  Name = ZINC45899170
REMARK  10 active torsions:
REMARK  status: ('A' for Active; 'I' for Inactive)
REMARK    1  A    between atoms: C_1  and  C_2
REMARK    2  A    between atoms: C_2  and  C_3
REMARK    3  A    between atoms: C_2  and  C_4
REMARK    4  A    between atoms: C_4  and  C_5
REMARK    5  A    between atoms: C_5  and  N_6
REMARK    6  A    between atoms: C_7  and  C_9
REMARK    7  A    between atoms: C_9  and  C_10
REMARK    8  A    between atoms: C_13  and  N_16
REMARK    9  A    between atoms: N_25  and  C_28
REMARK   10  A    between atoms: C_28  and  C_29
REMARK                            x       y       z     vdW  Elec       q    Type
REMARK                         _______ _______ _______ _____ _____    ______ ____
ROOT
ATOM      1  N   UNL     1      -8.340   0.568  -7.130  0.00  0.00    -0.228 N 
ATOM      2  C   UNL     1      -9.246  -0.270  -7.680  0.00  0.00    +0.269 A 
ATOM      3  O   UNL     1      -9.508  -1.335  -7.157  0.00  0.00    -0.266 OA
ATOM      4  C   UNL     1      -9.908   0.142  -8.930  0.00  0.00    +0.064 A 
ATOM      5  C   UNL     1     -10.853  -0.666  -9.559  0.00  0.00    +0.015 A 
ATOM      6  C   UNL     1     -11.445  -0.235 -10.727  0.00  0.00    +0.001 A 
ATOM      7  C   UNL     1     -11.104   0.992 -11.276  0.00  0.00    +0.002 A 
ATOM      8  C   UNL     1     -10.169   1.802 -10.664  0.00  0.00    +0.027 A 
ATOM      9  C   UNL     1      -9.564   1.386  -9.488  0.00  0.00    +0.059 A 
ATOM     10  N   UNL     1      -8.620   2.169  -8.840  0.00  0.00    -0.289 N 
ATOM     11  C   UNL     1      -8.048   1.749  -7.698  0.00  0.00    +0.337 A 
ATOM     12  O   UNL     1      -7.229   2.467  -7.158  0.00  0.00    -0.246 OA
ENDROOT
BRANCH   1  16
ATOM     13  C   UNL     1      -6.427  -0.529  -3.593  0.00  0.00    -0.038 A 
ATOM     14  C   UNL     1      -7.616   0.176  -3.545  0.00  0.00    +0.006 A 
ATOM     15  C   UNL     1      -8.252   0.541  -4.715  0.00  0.00    +0.027 A 
ATOM     16  C   UNL     1      -7.697   0.200  -5.941  0.00  0.00    +0.054 A 
ATOM     17  C   UNL     1      -6.503  -0.508  -5.986  0.00  0.00    +0.027 A 
ATOM     18  C   UNL     1      -5.869  -0.866  -4.812  0.00  0.00    +0.006 A 
BRANCH  13  19
ATOM     19  C   UNL     1      -5.736  -0.925  -2.314  0.00  0.00    +0.130 C 
BRANCH  19  21
ATOM     20  N   UNL     1      -4.053   0.031  -0.774  0.00  0.00    -0.315 N 
ATOM     21  C   UNL     1      -4.786   0.168  -1.897  0.00  0.00    +0.217 C 
ATOM     22  O   UNL     1      -4.681   1.170  -2.571  0.00  0.00    -0.275 OA
ATOM     23  H   UNL     1      -4.137  -0.770  -0.234  0.00  0.00    +0.149 HD
BRANCH  20  24
ATOM     24  C   UNL     1      -3.130   1.094  -0.368  0.00  0.00    +0.104 C 
BRANCH  24  25
ATOM     25  C   UNL     1      -2.428   0.691   0.930  0.00  0.00    +0.022 C 
BRANCH  25  27
ATOM     26  C   UNL     1      -2.258   3.063   1.698  0.00  0.00    +0.007 C 
ATOM     27  C   UNL     1      -1.464   1.801   1.354  0.00  0.00    -0.016 C 
ATOM     28  C   UNL     1      -0.671   1.347   2.582  0.00  0.00    +0.007 C 
ENDBRANCH  25  27
ENDBRANCH  24  25
ENDBRANCH  20  24
ENDBRANCH  19  21
ENDBRANCH  13  19
ENDBRANCH   1  16
BRANCH  10  29
ATOM     29  C   UNL     1      -8.245   3.469  -9.403  0.00  0.00    +0.162 C 
BRANCH  29  30
ATOM     30  C   UNL     1      -9.149   4.537  -8.844  0.00  0.00    -0.026 A 
ATOM     31  C   UNL     1     -10.330   4.851  -9.491  0.00  0.00    +0.005 A 
ATOM     32  C   UNL     1     -11.160   5.831  -8.980  0.00  0.00    +0.002 A 
ATOM     33  C   UNL     1     -10.809   6.498  -7.821  0.00  0.00    +0.020 A 
ATOM     34  C   UNL     1      -9.628   6.185  -7.173  0.00  0.00    +0.041 A 
ATOM     35  C   UNL     1      -8.800   5.199  -7.683  0.00  0.00    +0.025 A 
ATOM     36 CL   UNL     1      -9.187   7.023  -5.718  0.00  0.00    -0.084 Cl
ENDBRANCH  29  30
ENDBRANCH  10  29
TORSDOF 8
