REMARK  Name = ZINC09715016
REMARK  8 active torsions:
REMARK  status: ('A' for Active; 'I' for Inactive)
REMARK    1  A    between atoms: C_1  and  C_2
REMARK    2  A    between atoms: C_2  and  C_4
REMARK    3  A    between atoms: C_2  and  N_62
REMARK    4  A    between atoms: N_6  and  C_7
REMARK    5  A    between atoms: C_10  and  S_13
REMARK    6  A    between atoms: S_13  and  N_16
REMARK    7  A    between atoms: N_23  and  C_26
REMARK    8  A    between atoms: C_31  and  O_32
REMARK                            x       y       z     vdW  Elec       q    Type
REMARK                         _______ _______ _______ _____ _____    ______ ____
ROOT
ATOM      1  C   UNL     1      -4.109  -4.717   1.275  0.00  0.00    +0.203 C 
ATOM      2  O   UNL     1      -3.227  -4.656   2.105  0.00  0.00    -0.277 OA
ATOM      3  N   UNL     1      -5.123  -5.590   1.433  0.00  0.00    -0.287 N 
ATOM      4  H   UNL     1      -5.788  -5.694   0.734  0.00  0.00    +0.155 HD
ENDROOT
BRANCH   3   5
ATOM      5  C   UNL     1      -5.219  -6.347   2.607  0.00  0.00    +0.033 A 
ATOM      6  C   UNL     1      -4.068  -6.807   3.233  0.00  0.00    +0.025 A 
ATOM      7  C   UNL     1      -4.165  -7.549   4.394  0.00  0.00    +0.030 A 
ATOM      8  C   UNL     1      -5.407  -7.844   4.926  0.00  0.00    +0.106 A 
ATOM      9  C   UNL     1      -6.555  -7.392   4.301  0.00  0.00    +0.030 A 
ATOM     10  C   UNL     1      -6.464  -6.645   3.143  0.00  0.00    +0.025 A 
BRANCH   8  11
ATOM     11  S   UNL     1      -5.527  -8.797   6.403  0.00  0.00    +0.061 S 
ATOM     12  O   UNL     1      -4.294  -8.636   7.092  0.00  0.00    -0.153 OA
ATOM     13  O   UNL     1      -6.778  -8.474   6.995  0.00  0.00    -0.153 OA
BRANCH  11  14
ATOM     14  N   UNL     1      -5.613 -10.388   5.953  0.00  0.00    -0.177 NA
ATOM     15  C   UNL     1      -6.850 -11.136   5.680  0.00  0.00    +0.109 C 
ATOM     16  C   UNL     1      -6.442 -12.580   5.322  0.00  0.00    +0.018 C 
ATOM     17  C   UNL     1      -5.040 -12.715   5.973  0.00  0.00    +0.018 C 
ATOM     18  C   UNL     1      -4.464 -11.292   5.766  0.00  0.00    +0.109 C 
ENDBRANCH  11  14
ENDBRANCH   8  11
ENDBRANCH   3   5
BRANCH   1  20
ATOM     19  C   UNL     1      -4.875  -2.547   0.352  0.00  0.00    -0.004 C 
ATOM     20  C   UNL     1      -4.071  -3.817   0.067  0.00  0.00    +0.017 C 
BRANCH  20  26
ATOM     21  C   UNL     1      -1.890  -4.650  -0.576  0.00  0.00    -0.059 C 
ATOM     22  C   UNL     1      -0.432  -4.246  -0.803  0.00  0.00    +0.086 C 
ATOM     23  N   UNL     1      -0.365  -3.246  -1.879  0.00  0.00    -0.331 N 
ATOM     24  C   UNL     1      -1.154  -2.054  -1.536  0.00  0.00    +0.086 C 
ATOM     25  C   UNL     1      -2.612  -2.459  -1.308  0.00  0.00    -0.059 C 
ATOM     26  N   UNL     1      -2.667  -3.447  -0.210  0.00  0.00    +0.389 N 
ATOM     27  H   UNL     1      -2.259  -3.030   0.635  0.00  0.00    -0.081 HD
BRANCH  23  28
ATOM     28  C   UNL     1       0.962  -2.904  -2.165  0.00  0.00    +0.072 A 
ATOM     29  C   UNL     1       1.766  -2.354  -1.178  0.00  0.00    +0.027 A 
ATOM     30  C   UNL     1       3.076  -2.018  -1.462  0.00  0.00    +0.002 A 
ATOM     31  C   UNL     1       3.588  -2.229  -2.729  0.00  0.00    +0.004 A 
ATOM     32  C   UNL     1       2.792  -2.777  -3.718  0.00  0.00    +0.047 A 
ATOM     33  C   UNL     1       1.478  -3.117  -3.441  0.00  0.00    +0.138 A 
BRANCH  33  34
ATOM     34  O   UNL     1       0.696  -3.661  -4.411  0.00  0.00    -0.505 OA
ATOM     35  H   UNL     1       0.206  -3.011  -4.933  0.00  0.00    +0.292 HD
ENDBRANCH  33  34
ENDBRANCH  23  28
ENDBRANCH  20  26
ENDBRANCH   1  20
TORSDOF 7
