REMARK  Name = ZINC08750818
REMARK  7 active torsions:
REMARK  status: ('A' for Active; 'I' for Inactive)
REMARK    1  A    between atoms: C_1  and  C_2
REMARK    2  A    between atoms: C_2  and  C_3
REMARK    3  A    between atoms: C_2  and  C_4
REMARK    4  A    between atoms: C_4  and  C_6
REMARK    5  A    between atoms: C_4  and  N_16
REMARK    6  A    between atoms: C_17  and  C_19
REMARK    7  A    between atoms: C_19  and  N_20
REMARK                            x       y       z     vdW  Elec       q    Type
REMARK                         _______ _______ _______ _____ _____    ______ ____
ROOT
ATOM      1  N   UNL     1       3.625  -1.885   0.834  0.00  0.00    -0.307 N 
ATOM      2  C   UNL     1       4.745  -2.402   1.376  0.00  0.00    +0.231 C 
ATOM      3  O   UNL     1       5.823  -1.901   1.135  0.00  0.00    -0.274 OA
ATOM      4  H   UNL     1       2.763  -2.286   1.027  0.00  0.00    +0.149 HD
ENDROOT
BRANCH   1   5
ATOM      5  C   UNL     1       3.709  -0.717  -0.047  0.00  0.00    +0.106 C 
BRANCH   5   6
ATOM      6  C   UNL     1       2.397   0.024  -0.026  0.00  0.00    -0.023 A 
ATOM      7  C   UNL     1       1.207  -0.680  -0.016  0.00  0.00    +0.009 A 
ATOM      8  C   UNL     1       0.002  -0.004   0.002  0.00  0.00    +0.050 A 
ATOM      9  C   UNL     1      -0.017   1.383   0.010  0.00  0.00    +0.162 A 
ATOM     10  C   UNL     1       1.179   2.090   0.002  0.00  0.00    +0.162 A 
ATOM     11  C   UNL     1       2.386   1.406  -0.017  0.00  0.00    +0.055 A 
ATOM     12  O   UNL     1       1.184   3.451   0.018  0.00  0.00    -0.485 OA
ATOM     13  C   UNL     1      -0.040   4.103  -0.340  0.00  0.00    +0.270 C 
ATOM     14  C   UNL     1      -1.189   3.413   0.408  0.00  0.00    +0.270 C 
ATOM     15  O   UNL     1      -1.212   2.035   0.019  0.00  0.00    -0.485 OA
ENDBRANCH   5   6
BRANCH   5  17
ATOM     16  C   UNL     1       4.101   0.043  -2.395  0.00  0.00    +0.009 C 
ATOM     17  C   UNL     1       4.013  -1.177  -1.475  0.00  0.00    +0.008 C 
ATOM     18  C   UNL     1       5.345  -1.929  -1.496  0.00  0.00    +0.009 C 
ENDBRANCH   5  17
ENDBRANCH   1   5
BRANCH   2  19
ATOM     19  C   UNL     1       4.659  -3.603   2.282  0.00  0.00    +0.213 C 
BRANCH  19  20
ATOM     20  N   UNL     1       6.002  -3.969   2.738  0.00  0.00    -0.215 N 
ATOM     21  C   UNL     1       6.811  -4.836   2.095  0.00  0.00    +0.251 C 
ATOM     22  O   UNL     1       6.574  -5.438   1.070  0.00  0.00    -0.272 OA
ATOM     23  C   UNL     1       8.077  -4.897   2.921  0.00  0.00    +0.138 C 
ATOM     24  C   UNL     1       8.299  -6.315   3.432  0.00  0.00    +0.040 C 
ATOM     25  C   UNL     1       9.678  -6.381   4.100  0.00  0.00    +0.008 C 
ATOM     26  C   UNL     1      10.747  -6.239   3.018  0.00  0.00    +0.035 C 
ATOM     27  C   UNL     1      10.483  -5.025   2.166  0.00  0.00    -0.042 A 
ATOM     28  C   UNL     1       9.249  -4.412   2.117  0.00  0.00    -0.012 A 
ATOM     29  C   UNL     1       9.067  -3.302   1.301  0.00  0.00    +0.006 A 
ATOM     30  C   UNL     1      10.110  -2.809   0.545  0.00  0.00    +0.000 A 
ATOM     31  C   UNL     1      11.347  -3.423   0.597  0.00  0.00    +0.000 A 
ATOM     32  C   UNL     1      11.531  -4.526   1.404  0.00  0.00    +0.004 A 
ATOM     33  N   UNL     1       7.813  -3.984   4.041  0.00  0.00    -0.281 N 
ATOM     34  C   UNL     1       6.577  -3.488   3.848  0.00  0.00    +0.310 C 
ATOM     35  O   UNL     1       6.042  -2.694   4.596  0.00  0.00    -0.252 OA
ATOM     36  H   UNL     1       8.412  -3.779   4.776  0.00  0.00    +0.152 HD
ENDBRANCH  19  20
ENDBRANCH   2  19
TORSDOF 5
