REMARK  Name = ZINC13498795
REMARK  11 active torsions:
REMARK  status: ('A' for Active; 'I' for Inactive)
REMARK    1  A    between atoms: C_1  and  C_2
REMARK    2  A    between atoms: C_2  and  C_3
REMARK    3  A    between atoms: C_2  and  C_4
REMARK    4  A    between atoms: C_4  and  C_6
REMARK    5  A    between atoms: C_4  and  N_66
REMARK    6  A    between atoms: N_10  and  C_11
REMARK    7  A    between atoms: C_16  and  C_17
REMARK    8  A    between atoms: C_16  and  N_66
REMARK    9  A    between atoms: C_17  and  O_18
REMARK   10  A    between atoms: C_19  and  C_20
REMARK   11  A    between atoms: C_19  and  N_66
REMARK                            x       y       z     vdW  Elec       q    Type
REMARK                         _______ _______ _______ _____ _____    ______ ____
ROOT
ATOM      1  N   UNL     1      -1.811   0.654   1.575  0.00  0.00    +0.391 N 
ATOM      2  H   UNL     1      -1.803  -0.370   1.649  0.00  0.00    -0.080 HD
ENDROOT
BRANCH   1   3
ATOM      3  C   UNL     1      -2.399   1.219   2.808  0.00  0.00    +0.006 C 
BRANCH   3   4
ATOM      4  C   UNL     1      -1.491   0.912   3.971  0.00  0.00    +0.139 A 
ATOM      5  N   UNL     1      -0.908  -0.233   4.228  0.00  0.00    -0.115 NA
ATOM      6  N   UNL     1      -0.215  -0.094   5.305  0.00  0.00    -0.023 NA
ATOM      7  N   UNL     1      -0.347   1.108   5.747  0.00  0.00    -0.044 NA
ATOM      8  N   UNL     1      -1.127   1.760   4.952  0.00  0.00    -0.228 N 
BRANCH   8   9
ATOM      9  C   UNL     1      -1.539   3.159   5.090  0.00  0.00    +0.111 C 
ATOM     10  C   UNL     1      -0.297   4.074   5.119  0.00  0.00    +0.027 C 
ATOM     11  C   UNL     1      -0.665   5.179   6.142  0.00  0.00    +0.002 C 
ATOM     12  C   UNL     1      -1.445   4.396   7.227  0.00  0.00    +0.002 C 
ATOM     13  C   UNL     1      -2.268   3.363   6.430  0.00  0.00    +0.027 C 
ENDBRANCH   8   9
ENDBRANCH   3   4
BRANCH   3  15
ATOM     14  C   UNL     1      -3.601  -0.942   3.165  0.00  0.00    +0.006 C 
ATOM     15  C   UNL     1      -3.766   0.575   3.044  0.00  0.00    -0.024 C 
ATOM     16  C   UNL     1      -4.374   1.126   4.335  0.00  0.00    +0.006 C 
ENDBRANCH   3  15
ENDBRANCH   1   3
BRANCH   1  17
ATOM     17  C   UNL     1      -0.423   1.135   1.412  0.00  0.00    -0.049 C 
BRANCH  17  18
ATOM     18  C   UNL     1       0.289   0.242   0.393  0.00  0.00    +0.137 C 
BRANCH  18  19
ATOM     19  O   UNL     1      -0.294   0.433  -0.897  0.00  0.00    -0.397 OA
ATOM     20  H   UNL     1       0.156  -0.044  -1.607  0.00  0.00    +0.209 HD
ENDBRANCH  18  19
ENDBRANCH  17  18
ENDBRANCH   1  17
BRANCH   1  21
ATOM     21  C   UNL     1      -2.622   1.045   0.403  0.00  0.00    -0.036 C 
BRANCH  21  22
ATOM     22  C   UNL     1      -2.511   2.528   0.155  0.00  0.00    +0.001 A 
ATOM     23  C   UNL     1      -1.588   2.999  -0.721  0.00  0.00    +0.017 A 
ATOM     24  C   UNL     1      -1.505   4.443  -0.940  0.00  0.00    +0.002 A 
ATOM     25  C   UNL     1      -0.572   4.986  -1.831  0.00  0.00    +0.059 A 
ATOM     26  C   UNL     1      -0.515   6.352  -2.015  0.00  0.00    +0.163 A 
ATOM     27  C   UNL     1      -1.387   7.193  -1.317  0.00  0.00    +0.164 A 
ATOM     28  C   UNL     1      -2.314   6.664  -0.436  0.00  0.00    +0.075 A 
ATOM     29  C   UNL     1      -2.383   5.291  -0.238  0.00  0.00    +0.053 A 
ATOM     30  N   UNL     1      -3.300   4.747   0.639  0.00  0.00    -0.322 N 
ATOM     31  H   UNL     1      -3.905   5.332   1.122  0.00  0.00    +0.169 HD
ATOM     32  C   UNL     1      -3.371   3.419   0.829  0.00  0.00    +0.251 A 
ATOM     33  O   UNL     1      -4.196   2.973   1.608  0.00  0.00    -0.268 OA
ATOM     34  O   UNL     1      -1.340   8.541  -1.496  0.00  0.00    -0.485 OA
ATOM     35  C   UNL     1      -0.155   9.070  -2.100  0.00  0.00    +0.270 C 
ATOM     36  C   UNL     1       0.187   8.210  -3.324  0.00  0.00    +0.270 C 
ATOM     37  O   UNL     1       0.402   6.865  -2.881  0.00  0.00    -0.485 OA
ENDBRANCH  21  22
ENDBRANCH   1  21
TORSDOF 9
