REMARK  Name = ZINC49468767
REMARK  11 active torsions:
REMARK  status: ('A' for Active; 'I' for Inactive)
REMARK    1  A    between atoms: C_1  and  C_2
REMARK    2  A    between atoms: C_3  and  C_12
REMARK    3  A    between atoms: C_5  and  C_7
REMARK    4  A    between atoms: N_17  and  C_19
REMARK    5  A    between atoms: C_19  and  C_20
REMARK    6  A    between atoms: C_20  and  N_21
REMARK    7  A    between atoms: C_22  and  C_24
REMARK    8  A    between atoms: C_26  and  O_32
REMARK    9  A    between atoms: C_29  and  O_30
REMARK   10  A    between atoms: O_30  and  C_31
REMARK   11  A    between atoms: O_32  and  C_33
REMARK                            x       y       z     vdW  Elec       q    Type
REMARK                         _______ _______ _______ _____ _____    ______ ____
ROOT
ATOM      1  C   UNL     1      -0.009  -0.173  -2.572  0.00  0.00    +0.100 A 
ATOM      2  C   UNL     1      -0.008  -1.078  -3.663  0.00  0.00    +0.036 A 
ATOM      3  C   UNL     1      -0.022  -0.566  -4.926  0.00  0.00    +0.074 A 
ATOM      4  C   UNL     1      -0.037   0.840  -5.070  0.00  0.00    +0.267 A 
ATOM      5  O   UNL     1      -0.050   1.343  -6.182  0.00  0.00    -0.266 OA
ATOM      6  N   UNL     1      -0.037   1.620  -3.973  0.00  0.00    -0.227 N 
ATOM      7  N   UNL     1      -0.028   1.123  -2.789  0.00  0.00    -0.168 NA
ENDROOT
BRANCH   1  10
ATOM      8  C   UNL     1      -0.018   1.503   0.010  0.00  0.00    +0.067 C 
ATOM      9  C   UNL     1       0.002  -0.004   0.002  0.00  0.00    +0.055 A 
ATOM     10  C   UNL     1       0.005  -0.689  -1.189  0.00  0.00    +0.062 A 
ATOM     11  S   UNL     1       0.031  -2.377  -0.599  0.00  0.00    -0.065 S 
ATOM     12  C   UNL     1       0.035  -1.998   1.149  0.00  0.00    +0.116 A 
ATOM     13  N   UNL     1       0.022  -0.668   1.129  0.00  0.00    -0.243 NA
BRANCH  12  14
ATOM     14  C   UNL     1       0.053  -2.912   2.300  0.00  0.00    +0.044 A 
ATOM     15  C   UNL     1       0.050  -2.614   3.650  0.00  0.00    +0.018 A 
ATOM     16  C   UNL     1       0.070  -3.654   4.550  0.00  0.00    +0.008 A 
ATOM     17  C   UNL     1       0.091  -4.932   4.089  0.00  0.00    +0.046 A 
ATOM     18  S   UNL     1       0.077  -4.697   2.319  0.00  0.00    -0.095 S 
ENDBRANCH  12  14
ENDBRANCH   1  10
BRANCH   6  19
ATOM     19  C   UNL     1      -0.051   3.076  -4.134  0.00  0.00    +0.166 C 
BRANCH  19  20
ATOM     20  C   UNL     1      -1.499   3.569  -4.180  0.00  0.00    +0.128 C 
BRANCH  20  21
ATOM     21  N   UNL     1      -1.514   5.025  -4.342  0.00  0.00    -0.309 N 
ATOM     22  C   UNL     1      -2.687   5.684  -4.408  0.00  0.00    +0.248 C 
ATOM     23  O   UNL     1      -3.734   5.070  -4.334  0.00  0.00    -0.270 OA
ATOM     24  H   UNL     1      -0.678   5.515  -4.401  0.00  0.00    +0.149 HD
BRANCH  22  25
ATOM     25  C   UNL     1      -2.702   7.151  -4.571  0.00  0.00    +0.082 A 
ATOM     26  C   UNL     1      -1.502   7.859  -4.662  0.00  0.00    +0.062 A 
ATOM     27  C   UNL     1      -1.523   9.233  -4.815  0.00  0.00    +0.121 A 
ATOM     28  C   UNL     1      -2.735   9.910  -4.877  0.00  0.00    +0.049 A 
ATOM     29  C   UNL     1      -3.926   9.218  -4.787  0.00  0.00    +0.050 A 
ATOM     30  C   UNL     1      -3.920   7.839  -4.640  0.00  0.00    +0.132 A 
BRANCH  30  31
ATOM     31  O   UNL     1      -5.092   7.159  -4.557  0.00  0.00    -0.494 OA
ATOM     32  C   UNL     1      -6.295   7.927  -4.635  0.00  0.00    +0.277 C 
ENDBRANCH  30  31
BRANCH  27  33
ATOM     33  O   UNL     1      -0.355   9.923  -4.904  0.00  0.00    -0.495 OA
ATOM     34  C   UNL     1      -0.450  11.341  -5.061  0.00  0.00    +0.277 C 
ENDBRANCH  27  33
ENDBRANCH  22  25
ENDBRANCH  20  21
ENDBRANCH  19  20
ENDBRANCH   6  19
TORSDOF 8
