REMARK  Name = ZINC20149708
REMARK  17 active torsions:
REMARK  status: ('A' for Active; 'I' for Inactive)
REMARK    1  A    between atoms: C_1  and  C_2
REMARK    2  A    between atoms: C_2  and  N_3
REMARK    3  A    between atoms: N_3  and  C_4
REMARK    4  A    between atoms: N_3  and  C_6
REMARK    5  A    between atoms: C_4  and  C_5
REMARK    6  A    between atoms: C_6  and  C_7
REMARK    7  A    between atoms: C_7  and  C_8
REMARK    8  A    between atoms: C_8  and  N_9
REMARK    9  A    between atoms: C_10  and  C_31
REMARK   10  A    between atoms: C_12  and  C_17
REMARK   11  A    between atoms: C_17  and  C_19
REMARK   12  A    between atoms: C_20  and  C_30
REMARK   13  A    between atoms: C_21  and  C_26
REMARK   14  A    between atoms: C_24  and  C_25
REMARK   15  A    between atoms: C_26  and  O_28
REMARK   16  A    between atoms: O_28  and  C_29
REMARK   17  A    between atoms: C_35  and  N_37
REMARK                            x       y       z     vdW  Elec       q    Type
REMARK                         _______ _______ _______ _____ _____    ______ ____
ROOT
ATOM      1  N   UNL     1       3.468  -4.671  -2.368  0.00  0.00    -0.284 N 
ATOM      2  C   UNL     1       2.602  -4.760  -3.550  0.00  0.00    +0.145 C 
ATOM      3  C   UNL     1       3.433  -5.408  -4.632  0.00  0.00    +0.076 C 
ATOM      4  C   UNL     1       4.650  -5.654  -4.096  0.00  0.00    +0.249 C 
ATOM      5  C   UNL     1       4.666  -5.189  -2.693  0.00  0.00    +0.288 C 
ATOM      6  O   UNL     1       5.619  -5.267  -1.943  0.00  0.00    -0.266 OA
ATOM      7  O   UNL     1       5.690  -6.231  -4.742  0.00  0.00    -0.282 OA
ENDROOT
BRANCH   2   8
ATOM      8  C   UNL     1       1.394  -5.608  -3.244  0.00  0.00    -0.020 A 
ATOM      9  C   UNL     1       1.525  -6.742  -2.464  0.00  0.00    +0.006 A 
ATOM     10  C   UNL     1       0.417  -7.520  -2.184  0.00  0.00    +0.003 A 
ATOM     11  C   UNL     1      -0.822  -7.164  -2.684  0.00  0.00    +0.033 A 
ATOM     12  C   UNL     1      -0.952  -6.030  -3.463  0.00  0.00    +0.127 A 
ATOM     13  C   UNL     1       0.155  -5.250  -3.740  0.00  0.00    +0.038 A 
BRANCH  12  14
ATOM     14  N   UNL     1      -2.279  -5.649  -3.999  0.00  0.00    +0.056 N 
ATOM     15  O   UNL     1      -3.247  -6.330  -3.755  0.00  0.00    -0.126 OA
ATOM     16  O   UNL     1      -2.393  -4.657  -4.681  0.00  0.00    -0.126 OA
ENDBRANCH  12  14
ENDBRANCH   2   8
BRANCH   3  17
ATOM     17  C   UNL     1       3.003  -5.711  -6.002  0.00  0.00    +0.197 C 
ATOM     18  O   UNL     1       2.308  -6.686  -6.220  0.00  0.00    -0.287 OA
BRANCH  17  19
ATOM     19  C   UNL     1       3.414  -4.835  -7.114  0.00  0.00    +0.046 A 
ATOM     20  C   UNL     1       3.184  -5.061  -8.490  0.00  0.00    -0.008 A 
ATOM     21  C   UNL     1       3.727  -4.007  -9.164  0.00  0.00    +0.128 A 
ATOM     22  N   UNL     1       4.282  -3.143  -8.243  0.00  0.00    -0.352 N 
ATOM     23  H   UNL     1       4.735  -2.312  -8.454  0.00  0.00    +0.166 HD
ATOM     24  C   UNL     1       4.092  -3.634  -7.008  0.00  0.00    +0.025 A 
ATOM     25  C   UNL     1       4.544  -2.987  -5.724  0.00  0.00    +0.064 C 
ATOM     26  C   UNL     1       2.473  -6.243  -9.097  0.00  0.00    +0.047 C 
BRANCH  21  27
ATOM     27  C   UNL     1       3.723  -3.823 -10.619  0.00  0.00    +0.356 C 
ATOM     28  O   UNL     1       3.201  -4.656 -11.335  0.00  0.00    -0.243 OA
BRANCH  27  29
ATOM     29  O   UNL     1       4.297  -2.731 -11.162  0.00  0.00    -0.463 OA
ATOM     30  C   UNL     1       4.255  -2.617 -12.586  0.00  0.00    +0.280 C 
ENDBRANCH  27  29
ENDBRANCH  21  27
ENDBRANCH  17  19
ENDBRANCH   3  17
BRANCH   1  31
ATOM     31  C   UNL     1       3.095  -4.111  -1.066  0.00  0.00    +0.107 C 
BRANCH  31  32
ATOM     32  C   UNL     1       3.412  -2.614  -1.046  0.00  0.00    +0.000 C 
BRANCH  32  33
ATOM     33  C   UNL     1       3.022  -2.029   0.313  0.00  0.00    -0.077 C 
BRANCH  33  34
ATOM     34  N   UNL     1       3.437  -0.621   0.377  0.00  0.00    +0.379 N 
ATOM     35  H   UNL     1       4.419  -0.549   0.154  0.00  0.00    -0.082 HD
BRANCH  34  37
ATOM     36  C   UNL     1       3.173   1.603  -0.612  0.00  0.00    -0.017 C 
ATOM     37  C   UNL     1       2.657   0.163  -0.589  0.00  0.00    -0.082 C 
ENDBRANCH  34  37
BRANCH  34  38
ATOM     38  C   UNL     1       3.203  -0.103   1.732  0.00  0.00    -0.082 C 
ATOM     39  C   UNL     1       4.118  -0.828   2.720  0.00  0.00    -0.017 C 
ENDBRANCH  34  38
ENDBRANCH  33  34
ENDBRANCH  32  33
ENDBRANCH  31  32
ENDBRANCH   1  31
TORSDOF 12
