REMARK  Name = ZINC20642749
REMARK  14 active torsions:
REMARK  status: ('A' for Active; 'I' for Inactive)
REMARK    1  A    between atoms: C_1  and  C_2
REMARK    2  A    between atoms: C_2  and  C_3
REMARK    3  A    between atoms: C_3  and  C_4
REMARK    4  A    between atoms: C_4  and  N_5
REMARK    5  A    between atoms: C_6  and  C_8
REMARK    6  A    between atoms: C_8  and  C_9
REMARK    7  A    between atoms: C_9  and  C_10
REMARK    8  A    between atoms: C_24  and  S_25
REMARK    9  A    between atoms: S_25  and  C_26
REMARK   10  A    between atoms: C_26  and  C_28
REMARK   11  A    between atoms: C_26  and  C_30
REMARK   12  A    between atoms: C_28  and  C_29
REMARK   13  A    between atoms: N_32  and  C_33
REMARK   14  A    between atoms: C_33  and  C_34
REMARK                            x       y       z     vdW  Elec       q    Type
REMARK                         _______ _______ _______ _____ _____    ______ ____
ROOT
ATOM      1  C   UNL     1       4.461   4.745  -0.116  0.00  0.00    +0.194 C 
ATOM      2  C   UNL     1       3.474   5.891  -0.176  0.00  0.00    +0.251 C 
ATOM      3  O   UNL     1       3.716   7.058  -0.398  0.00  0.00    -0.272 OA
ATOM      4  N   UNL     1       2.264   5.338   0.068  0.00  0.00    -0.200 N 
ATOM      5  C   UNL     1       2.391   3.975   0.274  0.00  0.00    +0.139 C 
ATOM      6  N   UNL     1       3.627   3.573   0.182  0.00  0.00    -0.255 NA
ATOM      7  C   UNL     1       1.154   3.215   0.556  0.00  0.00    +0.041 A 
ATOM      8  C   UNL     1       1.179   1.841   0.776  0.00  0.00    +0.013 A 
ATOM      9  C   UNL     1       0.001   1.172   1.035  0.00  0.00    +0.001 A 
ATOM     10  C   UNL     1      -1.205   1.858   1.072  0.00  0.00    +0.002 A 
ATOM     11  C   UNL     1      -1.249   3.219   0.862  0.00  0.00    +0.028 A 
ATOM     12  C   UNL     1      -0.068   3.917   0.597  0.00  0.00    +0.077 A 
ATOM     13  N   UNL     1      -0.075   5.256   0.379  0.00  0.00    -0.225 NA
ATOM     14  C   UNL     1       1.017   5.926   0.131  0.00  0.00    +0.170 C 
ENDROOT
BRANCH   1  15
ATOM     15  C   UNL     1       5.167   4.574  -1.462  0.00  0.00    +0.045 C 
BRANCH  15  16
ATOM     16  C   UNL     1       6.176   3.428  -1.367  0.00  0.00    +0.098 C 
BRANCH  16  18
ATOM     17  N   UNL     1       7.809   2.303  -2.846  0.00  0.00    -0.315 N 
ATOM     18  C   UNL     1       6.872   3.259  -2.693  0.00  0.00    +0.213 C 
ATOM     19  O   UNL     1       6.588   3.984  -3.623  0.00  0.00    -0.276 OA
ATOM     20  H   UNL     1       8.067   1.645  -2.002  0.00  0.00    +0.149 HD
BRANCH  17  21
ATOM     21  C   UNL     1       8.485   2.138  -4.135  0.00  0.00    +0.104 C 
BRANCH  21  22
ATOM     22  C   UNL     1       9.494   0.993  -4.039  0.00  0.00    +0.018 C 
BRANCH  22  24
ATOM     23  C   UNL     1      11.210  -0.325  -5.290  0.00  0.00    +0.004 C 
ATOM     24  C   UNL     1      10.200   0.821  -5.386  0.00  0.00    -0.002 C 
ENDBRANCH  22  24
ENDBRANCH  21  22
ENDBRANCH  17  21
ENDBRANCH  16  18
ENDBRANCH  15  16
ENDBRANCH   1  15
BRANCH  14  25
ATOM     25  S   UNL     1       0.894   7.663  -0.136  0.00  0.00    -0.077 S 
BRANCH  25  26
ATOM     26  C   UNL     1      -0.905   7.859  -0.104  0.00  0.00    +0.139 C 
BRANCH  26  27
ATOM     27  C   UNL     1      -1.504   7.191  -1.315  0.00  0.00    +0.227 C 
ATOM     28  O   UNL     1      -0.814   6.961  -2.285  0.00  0.00    -0.275 OA
ATOM     29  N   UNL     1      -2.808   6.850  -1.319  0.00  0.00    -0.307 N 
ATOM     30  H   UNL     1      -3.434   7.058  -0.440  0.00  0.00    +0.149 HD
BRANCH  29  31
ATOM     31  C   UNL     1      -3.391   6.200  -2.496  0.00  0.00    +0.178 C 
BRANCH  31  32
ATOM     32  C   UNL     1      -4.851   5.925  -2.247  0.00  0.00    +0.122 A 
ATOM     33  C   UNL     1      -5.868   6.761  -2.525  0.00  0.00    +0.046 A 
ATOM     34  C   UNL     1      -7.057   6.104  -2.134  0.00  0.00    +0.041 A 
ATOM     35  C   UNL     1      -6.695   4.909  -1.633  0.00  0.00    +0.195 A 
ATOM     36  O   UNL     1      -5.358   4.806  -1.704  0.00  0.00    -0.466 OA
ENDBRANCH  31  32
ENDBRANCH  29  31
ENDBRANCH  26  27
BRANCH  26  37
ATOM     37  C   UNL     1      -1.256   9.349  -0.117  0.00  0.00    +0.020 C 
ATOM     38  C   UNL     1      -0.772   9.998   1.181  0.00  0.00    +0.005 C 
ENDBRANCH  26  37
ENDBRANCH  25  26
ENDBRANCH  14  25
TORSDOF 12
