REMARK  Name = ZINC06083764
REMARK  3 active torsions:
REMARK  status: ('A' for Active; 'I' for Inactive)
REMARK    1  A    between atoms: C_1  and  C_2
REMARK    2  A    between atoms: C_4  and  C_18
REMARK    3  A    between atoms: C_7  and  C_12
REMARK                            x       y       z     vdW  Elec       q    Type
REMARK                         _______ _______ _______ _____ _____    ______ ____
ROOT
ATOM      1  C   UNL     1      -0.744   1.980   1.267  0.00  0.00    +0.026 C 
ATOM      2  C   UNL     1      -0.018   1.494   0.010  0.00  0.00    +0.102 C 
ATOM      3  C   UNL     1       0.002  -0.004   0.002  0.00  0.00    +0.082 C 
ATOM      4  N   UNL     1       0.858  -0.749   0.609  0.00  0.00    -0.166 NA
ATOM      5  N   UNL     1       1.923  -0.225   1.337  0.00  0.00    -0.191 N 
ATOM      6  C   UNL     1       2.704  -0.769   2.305  0.00  0.00    +0.159 A 
ATOM      7  N   UNL     1       3.573   0.144   2.658  0.00  0.00    -0.131 NA
ATOM      8  N   UNL     1       3.387   1.225   1.978  0.00  0.00    -0.121 NA
ATOM      9  C   UNL     1       2.393   1.058   1.161  0.00  0.00    +0.213 A 
ATOM     10  S   UNL     1       1.667   2.164  -0.002  0.00  0.00    -0.075 S 
ENDROOT
BRANCH   3  11
ATOM     11  C   UNL     1      -1.052  -0.685  -0.771  0.00  0.00    +0.002 A 
ATOM     12  C   UNL     1      -1.094  -2.081  -0.822  0.00  0.00    +0.013 A 
ATOM     13  C   UNL     1      -2.082  -2.714  -1.546  0.00  0.00    +0.042 A 
ATOM     14  C   UNL     1      -3.034  -1.969  -2.223  0.00  0.00    +0.158 A 
ATOM     15  C   UNL     1      -3.000  -0.582  -2.176  0.00  0.00    +0.159 A 
ATOM     16  C   UNL     1      -2.018   0.062  -1.450  0.00  0.00    +0.051 A 
ATOM     17  F   UNL     1      -3.931   0.138  -2.839  0.00  0.00    -0.202 F 
ATOM     18  F   UNL     1      -4.000  -2.595  -2.930  0.00  0.00    -0.202 F 
ENDBRANCH   3  11
BRANCH   6  19
ATOM     19  C   UNL     1       2.591  -2.162   2.869  0.00  0.00    +0.059 C 
ATOM     20  C   UNL     1       2.317  -2.084   4.372  0.00  0.00    +0.011 C 
ATOM     21  C   UNL     1       2.203  -3.498   4.944  0.00  0.00    +0.001 C 
ATOM     22  C   UNL     1       3.511  -4.253   4.702  0.00  0.00    +0.000 C 
ATOM     23  C   UNL     1       3.785  -4.332   3.199  0.00  0.00    +0.001 C 
ATOM     24  C   UNL     1       3.899  -2.917   2.627  0.00  0.00    +0.011 C 
ENDBRANCH   6  19
TORSDOF 2
