REMARK  Name = ZINC40172470
REMARK  9 active torsions:
REMARK  status: ('A' for Active; 'I' for Inactive)
REMARK    1  A    between atoms: C_1  and  C_2
REMARK    2  A    between atoms: C_2  and  C_3
REMARK    3  A    between atoms: C_3  and  C_5
REMARK    4  A    between atoms: C_3  and  N_20
REMARK    5  A    between atoms: N_7  and  C_8
REMARK    6  A    between atoms: C_9  and  C_17
REMARK    7  A    between atoms: C_24  and  S_25
REMARK    8  A    between atoms: S_25  and  C_26
REMARK    9  A    between atoms: C_26  and  C_27
REMARK                            x       y       z     vdW  Elec       q    Type
REMARK                         _______ _______ _______ _____ _____    ______ ____
ROOT
ATOM      1  C   UNL     1      -1.414  -2.036   0.129  0.00  0.00    +0.241 C 
ATOM      2  O   UNL     1      -1.912  -2.718  -0.742  0.00  0.00    -0.273 OA
ATOM      3  N   UNL     1      -0.842  -2.622   1.199  0.00  0.00    -0.278 N 
ATOM      4  H   UNL     1      -0.444  -2.077   1.895  0.00  0.00    +0.155 HD
ENDROOT
BRANCH   3   5
ATOM      5  C   UNL     1      -0.824  -4.005   1.306  0.00  0.00    +0.084 A 
ATOM      6  C   UNL     1      -0.291  -4.774   2.328  0.00  0.00    +0.068 A 
ATOM      7  C   UNL     1      -0.401  -6.216   2.201  0.00  0.00    -0.023 A 
ATOM      8  C   UNL     1      -1.024  -6.625   1.074  0.00  0.00    -0.004 A 
ATOM      9  S   UNL     1      -1.449  -5.131   0.229  0.00  0.00    -0.077 S 
ATOM     10  C   UNL     1      -1.289  -8.039   0.656  0.00  0.00    +0.043 C 
ATOM     11  C   UNL     1      -0.416  -8.967   1.512  0.00  0.00    +0.005 C 
ATOM     12  C   UNL     1      -0.558  -8.564   2.983  0.00  0.00    +0.005 C 
ATOM     13  C   UNL     1       0.123  -7.215   3.222  0.00  0.00    +0.037 C 
BRANCH   6  14
ATOM     14  C   UNL     1       0.357  -4.157   3.489  0.00  0.00    +0.244 C 
ATOM     15  O   UNL     1      -0.299  -3.874   4.474  0.00  0.00    -0.270 OA
ATOM     16  N   UNL     1       1.681  -3.902   3.466  0.00  0.00    -0.325 N 
ATOM     17  H   UNL     1       2.204  -4.127   2.681  0.00  0.00    +0.145 HD
ATOM     18  H   UNL     1       2.110  -3.494   4.234  0.00  0.00    +0.145 HD
ENDBRANCH   6  14
ENDBRANCH   3   5
BRANCH   1  19
ATOM     19  C   UNL     1      -1.433  -0.534   0.013  0.00  0.00    +0.178 C 
BRANCH  19  20
ATOM     20  N   UNL     1      -2.105  -0.148  -1.230  0.00  0.00    -0.279 N 
ATOM     21  C   UNL     1      -1.721  -0.499  -2.493  0.00  0.00    +0.216 A 
ATOM     22  N   UNL     1      -2.568   0.034  -3.338  0.00  0.00    -0.113 NA
ATOM     23  N   UNL     1      -3.524   0.746  -2.602  0.00  0.00    -0.121 NA
ATOM     24  C   UNL     1      -3.231   0.621  -1.330  0.00  0.00    +0.194 A 
ATOM     25  N   UNL     1      -0.623  -1.284  -2.824  0.00  0.00    -0.328 N 
ATOM     26  H   UNL     1      -0.050  -1.635  -2.125  0.00  0.00    +0.145 HD
ATOM     27  H   UNL     1      -0.429  -1.480  -3.754  0.00  0.00    +0.145 HD
BRANCH  24  28
ATOM     28  S   UNL     1      -4.128   1.323   0.014  0.00  0.00    -0.086 S 
BRANCH  28  29
ATOM     29  C   UNL     1      -5.492   2.212  -0.786  0.00  0.00    +0.074 C 
ATOM     30  C   UNL     1      -6.362   2.878   0.281  0.00  0.00    +0.016 C 
ENDBRANCH  28  29
ENDBRANCH  24  28
ENDBRANCH  19  20
BRANCH  19  32
ATOM     31  C   UNL     1      -0.019   1.526   0.010  0.00  0.00    +0.006 C 
ATOM     32  C   UNL     1       0.002  -0.004   0.002  0.00  0.00    +0.031 C 
ENDBRANCH  19  32
ENDBRANCH   1  19
TORSDOF 7
