REMARK  Name = ZINC22020944
REMARK  12 active torsions:
REMARK  status: ('A' for Active; 'I' for Inactive)
REMARK    1  A    between atoms: C_1  and  C_2
REMARK    2  A    between atoms: C_2  and  C_25
REMARK    3  A    between atoms: N_5  and  C_9
REMARK    4  A    between atoms: C_9  and  C_10
REMARK    5  A    between atoms: C_10  and  C_12
REMARK    6  A    between atoms: C_10  and  O_24
REMARK    7  A    between atoms: C_12  and  O_13
REMARK    8  A    between atoms: O_13  and  C_14
REMARK    9  A    between atoms: C_19  and  C_20
REMARK   10  A    between atoms: C_20  and  C_21
REMARK   11  A    between atoms: C_20  and  C_22
REMARK   12  A    between atoms: C_20  and  C_23
REMARK                            x       y       z     vdW  Elec       q    Type
REMARK                         _______ _______ _______ _____ _____    ______ ____
ROOT
ATOM      1  C   UNL     1      -3.603   2.200  -2.809  0.00  0.00    +0.047 C 
ATOM      2  C   UNL     1      -2.141   1.775  -2.957  0.00  0.00    +0.135 C 
ATOM      3  C   UNL     1      -1.715   0.900  -1.794  0.00  0.00    +0.251 C 
ATOM      4  O   UNL     1      -2.174  -0.177  -1.482  0.00  0.00    -0.272 OA
ATOM      5  N   UNL     1      -0.721   1.571  -1.179  0.00  0.00    -0.221 N 
ATOM      6  C   UNL     1      -0.458   2.732  -1.789  0.00  0.00    +0.310 C 
ATOM      7  O   UNL     1       0.401   3.510  -1.421  0.00  0.00    -0.252 OA
ATOM      8  N   UNL     1      -1.249   2.943  -2.856  0.00  0.00    -0.281 N 
ATOM      9  H   UNL     1      -1.329   3.760  -3.588  0.00  0.00    +0.152 HD
ENDROOT
BRANCH   2  10
ATOM     10  C   UNL     1      -1.926   1.055  -4.263  0.00  0.00    -0.015 A 
ATOM     11  C   UNL     1      -2.105  -0.326  -4.323  0.00  0.00    +0.007 A 
ATOM     12  C   UNL     1      -1.924  -1.006  -5.488  0.00  0.00    +0.009 A 
ATOM     13  C   UNL     1      -1.541  -0.310  -6.647  0.00  0.00    -0.018 A 
ATOM     14  C   UNL     1      -1.339  -0.979  -7.867  0.00  0.00    +0.008 A 
ATOM     15  C   UNL     1      -0.969  -0.272  -8.969  0.00  0.00    +0.001 A 
ATOM     16  C   UNL     1      -0.784   1.108  -8.908  0.00  0.00    +0.001 A 
ATOM     17  C   UNL     1      -0.971   1.789  -7.744  0.00  0.00    +0.008 A 
ATOM     18  C   UNL     1      -1.354   1.093  -6.585  0.00  0.00    -0.018 A 
ATOM     19  C   UNL     1      -1.556   1.762  -5.365  0.00  0.00    +0.014 A 
ENDBRANCH   2  10
BRANCH   5  20
ATOM     20  C   UNL     1      -0.013   1.086   0.008  0.00  0.00    +0.152 C 
BRANCH  20  21
ATOM     21  C   UNL     1      -0.729   1.579   1.267  0.00  0.00    +0.170 C 
BRANCH  21  22
ATOM     22  O   UNL     1      -0.748   3.008   1.275  0.00  0.00    -0.387 OA
ATOM     23  H   UNL     1      -1.224   3.547   2.107  0.00  0.00    +0.210 HD
ENDBRANCH  21  22
BRANCH  21  24
ATOM     24  C   UNL     1       0.011   1.072   2.506  0.00  0.00    +0.262 C 
BRANCH  24  25
ATOM     25  O   UNL     1      -0.721   1.434   3.679  0.00  0.00    -0.489 OA
BRANCH  25  26
ATOM     26  C   UNL     1      -0.196   1.056   4.875  0.00  0.00    +0.124 A 
ATOM     27  C   UNL     1       0.996   0.347   4.918  0.00  0.00    +0.046 A 
ATOM     28  C   UNL     1       1.529  -0.031   6.134  0.00  0.00    +0.004 A 
ATOM     29  C   UNL     1       0.871   0.288   7.308  0.00  0.00    +0.001 A 
ATOM     30  C   UNL     1      -0.319   0.989   7.268  0.00  0.00    +0.008 A 
ATOM     31  C   UNL     1      -0.855   1.375   6.054  0.00  0.00    -0.000 A 
BRANCH  31  32
ATOM     32  C   UNL     1      -2.152   2.140   6.010  0.00  0.00    -0.009 C 
ATOM     33  C   UNL     1      -2.664   2.357   7.436  0.00  0.00    +0.015 C 
ATOM     34  C   UNL     1      -1.923   3.495   5.338  0.00  0.00    +0.015 C 
ATOM     35  C   UNL     1      -3.187   1.344   5.213  0.00  0.00    +0.015 C 
ENDBRANCH  31  32
ENDBRANCH  25  26
ENDBRANCH  24  25
ENDBRANCH  21  24
ENDBRANCH  20  21
ENDBRANCH   5  20
TORSDOF 8
