REMARK  Name = ZINC39503477
REMARK  6 active torsions:
REMARK  status: ('A' for Active; 'I' for Inactive)
REMARK    1  A    between atoms: C_1  and  S_2
REMARK    2  A    between atoms: S_2  and  C_3
REMARK    3  A    between atoms: C_9  and  C_12
REMARK    4  A    between atoms: C_17  and  O_18
REMARK    5  A    between atoms: N_19  and  C_21
REMARK    6  A    between atoms: C_26  and  O_27
REMARK                            x       y       z     vdW  Elec       q    Type
REMARK                         _______ _______ _______ _____ _____    ______ ____
ROOT
ATOM      1  C   UNL     1       0.806  -0.673  -1.445  0.00  0.00    +0.065 C 
ATOM      2  C   UNL     1       0.854  -2.214  -1.643  0.00  0.00    +0.041 C 
ATOM      3  C   UNL     1       0.853  -2.357  -3.171  0.00  0.00    +0.037 C 
ATOM      4  C   UNL     1       2.282  -2.611  -3.688  0.00  0.00    +0.026 C 
ATOM      5  C   UNL     1       2.033  -3.314  -5.047  0.00  0.00    +0.010 C 
ATOM      6  C   UNL     1       0.802  -4.210  -4.792  0.00  0.00    +0.025 C 
ATOM      7  C   UNL     1       0.047  -3.590  -3.601  0.00  0.00    +0.034 C 
ATOM      8  N   UNL     1       0.298  -1.133  -3.744  0.00  0.00    -0.320 N 
ATOM      9  C   UNL     1      -0.079  -0.231  -2.637  0.00  0.00    +0.120 C 
ENDROOT
BRANCH   6  10
ATOM     10  C   UNL     1      -0.083  -4.230  -6.012  0.00  0.00    -0.003 A 
ATOM     11  C   UNL     1       0.398  -3.769  -7.223  0.00  0.00    +0.007 A 
ATOM     12  C   UNL     1      -0.413  -3.787  -8.342  0.00  0.00    +0.001 A 
ATOM     13  C   UNL     1      -1.707  -4.266  -8.253  0.00  0.00    +0.004 A 
ATOM     14  C   UNL     1      -2.193  -4.728  -7.045  0.00  0.00    +0.046 A 
ATOM     15  C   UNL     1      -1.379  -4.716  -5.922  0.00  0.00    +0.120 A 
BRANCH  15  16
ATOM     16  O   UNL     1      -1.852  -5.176  -4.734  0.00  0.00    -0.506 OA
ATOM     17  H   UNL     1      -2.279  -4.498  -4.192  0.00  0.00    +0.292 HD
ENDBRANCH  15  16
ENDBRANCH   6  10
BRANCH   8  18
ATOM     18  C   UNL     1       0.152  -0.860  -5.109  0.00  0.00    +0.072 A 
ATOM     19  C   UNL     1      -0.993  -1.263  -5.780  0.00  0.00    +0.027 A 
ATOM     20  C   UNL     1      -1.136  -0.992  -7.128  0.00  0.00    +0.002 A 
ATOM     21  C   UNL     1      -0.139  -0.320  -7.811  0.00  0.00    +0.004 A 
ATOM     22  C   UNL     1       1.006   0.085  -7.149  0.00  0.00    +0.047 A 
ATOM     23  C   UNL     1       1.154  -0.178  -5.797  0.00  0.00    +0.138 A 
BRANCH  23  24
ATOM     24  O   UNL     1       2.277   0.224  -5.143  0.00  0.00    -0.505 OA
ATOM     25  H   UNL     1       2.991  -0.429  -5.150  0.00  0.00    +0.292 HD
ENDBRANCH  23  24
ENDBRANCH   8  18
BRANCH   1  27
ATOM     26  C   UNL     1       0.121   1.565   0.197  0.00  0.00    +0.084 C 
ATOM     27  S   UNL     1       0.027  -0.246   0.137  0.00  0.00    -0.159 S 
ENDBRANCH   1  27
TORSDOF 5
