REMARK  Name = ZINC21964505
REMARK  7 active torsions:
REMARK  status: ('A' for Active; 'I' for Inactive)
REMARK    1  A    between atoms: C_5  and  N_7
REMARK    2  A    between atoms: N_7  and  C_8
REMARK    3  A    between atoms: C_8  and  C_9
REMARK    4  A    between atoms: N_11  and  N_12
REMARK    5  A    between atoms: C_13  and  C_14
REMARK    6  A    between atoms: C_16  and  N_26
REMARK    7  A    between atoms: C_19  and  N_20
REMARK                            x       y       z     vdW  Elec       q    Type
REMARK                         _______ _______ _______ _____ _____    ______ ____
ROOT
ATOM      1  N   UNL     1      -0.452  -6.573  -0.029  0.00  0.00    -0.188 NA
ATOM      2  C   UNL     1      -1.425  -7.432  -0.024  0.00  0.00    +0.140 C 
ENDROOT
BRANCH   2   3
ATOM      3  C   UNL     1      -1.132  -8.876  -0.035  0.00  0.00    +0.018 A 
ATOM      4  C   UNL     1      -2.176  -9.804  -0.036  0.00  0.00    +0.044 A 
ATOM      5  C   UNL     1      -1.896 -11.154  -0.046  0.00  0.00    +0.127 A 
ATOM      6  C   UNL     1      -0.583 -11.596  -0.054  0.00  0.00    +0.034 A 
ATOM      7  C   UNL     1       0.460 -10.689  -0.054  0.00  0.00    +0.026 A 
ATOM      8  C   UNL     1       0.196  -9.327  -0.050  0.00  0.00    +0.039 A 
BRANCH   8   9
ATOM      9  N   UNL     1       1.246  -8.411  -0.056  0.00  0.00    -0.325 N 
ATOM     10  C   UNL     1       1.834  -7.924   1.203  0.00  0.00    +0.133 C 
ATOM     11  C   UNL     1       3.356  -8.086   1.121  0.00  0.00    +0.178 C 
ATOM     12  O   UNL     1       3.830  -7.473  -0.081  0.00  0.00    -0.377 OA
ATOM     13  C   UNL     1       3.325  -8.065  -1.280  0.00  0.00    +0.178 C 
ATOM     14  C   UNL     1       1.805  -7.907  -1.320  0.00  0.00    +0.133 C 
ENDBRANCH   8   9
BRANCH   5  15
ATOM     15  N   UNL     1      -3.003 -12.137  -0.046  0.00  0.00    +0.056 N 
ATOM     16  O   UNL     1      -4.150 -11.755  -0.038  0.00  0.00    -0.126 OA
ATOM     17  O   UNL     1      -2.760 -13.321  -0.055  0.00  0.00    -0.126 OA
ENDBRANCH   5  15
ENDBRANCH   2   3
BRANCH   1  20
ATOM     18  C   UNL     1       0.280  -4.307  -0.024  0.00  0.00    +0.249 C 
ATOM     19  O   UNL     1       1.430  -4.693  -0.037  0.00  0.00    -0.272 OA
ATOM     20  N   UNL     1      -0.730  -5.200  -0.019  0.00  0.00    -0.206 N 
ATOM     21  H   UNL     1      -1.650  -4.891  -0.009  0.00  0.00    +0.177 HD
BRANCH  18  22
ATOM     22  C   UNL     1      -0.019  -2.830  -0.013  0.00  0.00    +0.199 C 
BRANCH  22  23
ATOM     23  N   UNL     1       1.238  -2.078  -0.021  0.00  0.00    -0.335 N 
ATOM     24  H   UNL     1       2.085  -2.549  -0.032  0.00  0.00    +0.147 HD
BRANCH  23  29
ATOM     25  C   UNL     1      -0.017   1.377   0.010  0.00  0.00    +0.002 A 
ATOM     26  C   UNL     1       1.171   2.086   0.002  0.00  0.00    +0.001 A 
ATOM     27  C   UNL     1       2.380   1.416  -0.013  0.00  0.00    +0.016 A 
ATOM     28  C   UNL     1       2.406   0.035  -0.021  0.00  0.00    +0.034 A 
ATOM     29  C   UNL     1       1.215  -0.681  -0.013  0.00  0.00    +0.041 A 
ATOM     30  C   UNL     1       0.002  -0.004   0.002  0.00  0.00    +0.024 A 
ATOM     31  I   UNL     1       4.239  -0.979  -0.044  0.00  0.00    -0.042 I 
ENDBRANCH  23  29
ENDBRANCH  22  23
ENDBRANCH  18  22
ENDBRANCH   1  20
TORSDOF 7
