REMARK  Name = ZINC25250827
REMARK  8 active torsions:
REMARK  status: ('A' for Active; 'I' for Inactive)
REMARK    1  A    between atoms: C_1  and  C_2
REMARK    2  A    between atoms: C_2  and  N_3
REMARK    3  A    between atoms: N_3  and  C_4
REMARK    4  A    between atoms: C_10  and  C_12
REMARK    5  A    between atoms: C_16  and  S_18
REMARK    6  A    between atoms: S_18  and  N_21
REMARK    7  A    between atoms: N_21  and  C_22
REMARK    8  A    between atoms: N_21  and  C_23
REMARK                            x       y       z     vdW  Elec       q    Type
REMARK                         _______ _______ _______ _____ _____    ______ ____
ROOT
ATOM      1  C   UNL     1       1.079   2.958   1.952  0.00  0.00    +0.039 A 
ATOM      2  C   UNL     1       1.941   2.421   0.994  0.00  0.00    +0.013 A 
ATOM      3  C   UNL     1       3.219   2.924   0.861  0.00  0.00    +0.003 A 
ATOM      4  C   UNL     1       3.647   3.958   1.675  0.00  0.00    +0.028 A 
ATOM      5  C   UNL     1       2.799   4.494   2.627  0.00  0.00    +0.106 A 
ATOM      6  C   UNL     1       1.516   4.005   2.766  0.00  0.00    +0.041 A 
ENDROOT
BRANCH   1   8
ATOM      7  N   UNL     1      -0.936   1.918   1.030  0.00  0.00    -0.295 N 
ATOM      8  C   UNL     1      -0.292   2.425   2.099  0.00  0.00    +0.247 C 
ATOM      9  O   UNL     1      -0.838   2.445   3.185  0.00  0.00    -0.270 OA
BRANCH   7  10
ATOM     10  C   UNL     1      -0.233   1.022   0.108  0.00  0.00    +0.076 C 
ATOM     11  C   UNL     1       0.807   0.209   0.881  0.00  0.00    +0.022 C 
ATOM     12  C   UNL     1       1.542  -0.727  -0.082  0.00  0.00    +0.002 C 
ATOM     13  C   UNL     1       2.242   0.101  -1.162  0.00  0.00    +0.000 C 
ATOM     14  C   UNL     1       1.202   0.914  -1.935  0.00  0.00    +0.002 C 
ATOM     15  C   UNL     1       0.467   1.849  -0.972  0.00  0.00    +0.022 C 
ENDBRANCH   7  10
BRANCH   7  17
ATOM     16  C   UNL     1      -3.239   1.166   1.365  0.00  0.00    +0.024 C 
ATOM     17  C   UNL     1      -2.340   2.262   0.789  0.00  0.00    +0.105 C 
ENDBRANCH   7  17
ENDBRANCH   1   8
BRANCH   5  18
ATOM     18  S   UNL     1       3.354   5.810   3.659  0.00  0.00    +0.061 S 
ATOM     19  O   UNL     1       2.556   5.769   4.834  0.00  0.00    -0.153 OA
ATOM     20  O   UNL     1       4.772   5.725   3.697  0.00  0.00    -0.153 OA
BRANCH  18  21
ATOM     21  N   UNL     1       2.985   7.227   2.886  0.00  0.00    -0.177 NA
ATOM     22  C   UNL     1       1.694   7.876   3.123  0.00  0.00    +0.132 C 
BRANCH  21  23
ATOM     23  C   UNL     1       3.951   7.832   1.965  0.00  0.00    +0.080 C 
ATOM     24  C   UNL     1       4.326   9.229   2.464  0.00  0.00    +0.020 C 
ATOM     25  C   UNL     1       5.334   9.860   1.502  0.00  0.00    +0.002 C 
ATOM     26  C   UNL     1       4.712   9.966   0.108  0.00  0.00    +0.000 C 
ATOM     27  C   UNL     1       4.337   8.569  -0.391  0.00  0.00    +0.002 C 
ATOM     28  C   UNL     1       3.329   7.938   0.571  0.00  0.00    +0.020 C 
ENDBRANCH  21  23
ENDBRANCH  18  21
ENDBRANCH   5  18
TORSDOF 6
