REMARK  Name = ZINC01027924
REMARK  7 active torsions:
REMARK  status: ('A' for Active; 'I' for Inactive)
REMARK    1  A    between atoms: C_1  and  O_2
REMARK    2  A    between atoms: O_2  and  C_3
REMARK    3  A    between atoms: C_3  and  C_5
REMARK    4  A    between atoms: C_10  and  N_17
REMARK    5  A    between atoms: C_12  and  C_13
REMARK    6  A    between atoms: N_20  and  S_23
REMARK    7  A    between atoms: S_23  and  C_26
REMARK                            x       y       z     vdW  Elec       q    Type
REMARK                         _______ _______ _______ _____ _____    ______ ____
ROOT
ATOM      1  C   UNL     1      -2.512  -2.728   0.011  0.00  0.00    +0.090 A 
ATOM      2  C   UNL     1      -3.592  -1.879   0.026  0.00  0.00    +0.063 A 
ATOM      3  S   UNL     1      -2.892  -0.297   0.029  0.00  0.00    -0.094 S 
ATOM      4  C   UNL     1      -1.173  -0.730   0.009  0.00  0.00    +0.048 A 
ATOM      5  C   UNL     1      -1.173  -2.136   0.001  0.00  0.00    +0.070 A 
ATOM      6  C   UNL     1       1.159  -2.093  -0.022  0.00  0.00    +0.100 A 
ATOM      7  C   UNL     1       1.198  -0.699  -0.019  0.00  0.00    +0.055 A 
ATOM      8  C   UNL     1       0.002  -0.004   0.002  0.00  0.00    +0.074 A 
ATOM      9  N   UNL     1       0.025  -2.840  -0.015  0.00  0.00    -0.342 N 
ATOM     10  H   UNL     1       0.052  -3.867  -0.021  0.00  0.00    +0.167 HD
ENDROOT
BRANCH   6  11
ATOM     11  N   UNL     1       2.355  -2.803  -0.038  0.00  0.00    -0.314 N 
ATOM     12  C   UNL     1       3.190  -2.401  -1.177  0.00  0.00    +0.123 C 
ATOM     13  C   UNL     1       4.565  -3.067  -1.059  0.00  0.00    +0.128 C 
ATOM     14  N   UNL     1       4.370  -4.518  -0.912  0.00  0.00    -0.174 NA
ATOM     15  C   UNL     1       3.438  -4.994   0.121  0.00  0.00    +0.128 C 
ATOM     16  C   UNL     1       2.108  -4.251  -0.044  0.00  0.00    +0.123 C 
BRANCH  14  17
ATOM     17  S   UNL     1       5.178  -5.587  -1.885  0.00  0.00    +0.061 S 
ATOM     18  O   UNL     1       6.346  -4.917  -2.342  0.00  0.00    -0.153 OA
ATOM     19  O   UNL     1       5.234  -6.818  -1.178  0.00  0.00    -0.153 OA
BRANCH  17  20
ATOM     20  C   UNL     1       4.170  -5.865  -3.303  0.00  0.00    +0.106 A 
ATOM     21  C   UNL     1       3.244  -6.892  -3.302  0.00  0.00    +0.030 A 
ATOM     22  C   UNL     1       2.450  -7.108  -4.412  0.00  0.00    +0.022 A 
ATOM     23  C   UNL     1       2.588  -6.303  -5.529  0.00  0.00    +0.041 A 
ATOM     24  C   UNL     1       3.519  -5.280  -5.532  0.00  0.00    +0.022 A 
ATOM     25  C   UNL     1       4.309  -5.061  -4.419  0.00  0.00    +0.030 A 
ATOM     26 CL   UNL     1       1.595  -6.578  -6.925  0.00  0.00    -0.084 Cl
ENDBRANCH  17  20
ENDBRANCH  14  17
ENDBRANCH   6  11
BRANCH   8  27
ATOM     27  C   UNL     1      -0.018   1.503   0.010  0.00  0.00    +0.419 C 
ATOM     28  F   UNL     1       1.294   1.987   0.000  0.00  0.00    -0.166 F 
ATOM     29  F   UNL     1      -0.695   1.966  -1.123  0.00  0.00    -0.166 F 
ATOM     30  F   UNL     1      -0.673   1.954   1.161  0.00  0.00    -0.166 F 
ENDBRANCH   8  27
BRANCH   1  31
ATOM     31  C   UNL     1      -2.695  -4.183   0.004  0.00  0.00    +0.341 C 
ATOM     32  O   UNL     1      -1.726  -4.917  -0.010  0.00  0.00    -0.245 OA
BRANCH  31  34
ATOM     33  C   UNL     1      -4.044  -6.154   0.005  0.00  0.00    +0.280 C 
ATOM     34  O   UNL     1      -3.938  -4.706   0.013  0.00  0.00    -0.464 OA
ENDBRANCH  31  34
ENDBRANCH   1  31
TORSDOF 6
