REMARK  Name = ZINC12658544
REMARK  13 active torsions:
REMARK  status: ('A' for Active; 'I' for Inactive)
REMARK    1  A    between atoms: C_1  and  C_2
REMARK    2  A    between atoms: C_2  and  C_4
REMARK    3  A    between atoms: C_10  and  C_45
REMARK    4  A    between atoms: N_22  and  O_23
REMARK    5  A    between atoms: O_23  and  C_24
REMARK    6  A    between atoms: C_24  and  C_25
REMARK    7  A    between atoms: N_27  and  C_28
REMARK    8  A    between atoms: C_28  and  C_30
REMARK    9  A    between atoms: C_28  and  C_37
REMARK   10  A    between atoms: C_30  and  C_31
REMARK   11  A    between atoms: C_37  and  O_39
REMARK   12  A    between atoms: O_39  and  C_40
REMARK   13  A    between atoms: C_43  and  C_44
REMARK                            x       y       z     vdW  Elec       q    Type
REMARK                         _______ _______ _______ _____ _____    ______ ____
ROOT
ATOM      1  C   UNL     1       8.233  -2.807 -14.184  0.00  0.00    +0.061 C 
ATOM      2  C   UNL     1       9.551  -2.731 -13.374  0.00  0.00    +0.012 C 
ATOM      3  C   UNL     1       9.237  -1.897 -12.102  0.00  0.00    +0.005 C 
ATOM      4  C   UNL     1       7.721  -2.069 -11.941  0.00  0.00    -0.001 C 
ATOM      5  C   UNL     1       7.235  -1.952 -13.410  0.00  0.00    -0.019 C 
ATOM      6  C   UNL     1       5.788  -2.409 -13.438  0.00  0.00    +0.008 C 
ATOM      7  C   UNL     1       4.980  -1.403 -12.604  0.00  0.00    +0.005 C 
ATOM      8  C   UNL     1       5.509  -1.298 -11.176  0.00  0.00    +0.002 C 
ATOM      9  C   UNL     1       7.012  -0.987 -11.147  0.00  0.00    -0.003 C 
ATOM     10  C   UNL     1       7.497  -1.008  -9.695  0.00  0.00    +0.008 C 
ATOM     11  C   UNL     1       6.829   0.135  -8.927  0.00  0.00    +0.031 C 
ATOM     12  C   UNL     1       5.323   0.007  -9.072  0.00  0.00    -0.062 C 
ATOM     13  C   UNL     1       4.589   0.092  -7.968  0.00  0.00    +0.026 C 
ATOM     14  C   UNL     1       3.121  -0.008  -8.049  0.00  0.00    +0.080 C 
ATOM     15  N   UNL     1       2.402  -0.334  -7.022  0.00  0.00    -0.089 NA
ATOM     16  C   UNL     1       2.499   0.284  -9.400  0.00  0.00    +0.059 C 
ATOM     17  C   UNL     1       3.263  -0.522 -10.443  0.00  0.00    +0.017 C 
ATOM     18  C   UNL     1       4.745  -0.192 -10.438  0.00  0.00    -0.007 C 
ATOM     19  C   UNL     1       4.926   1.109 -11.223  0.00  0.00    +0.016 C 
ATOM     20  C   UNL     1       7.328  -0.497 -13.874  0.00  0.00    +0.012 C 
ENDROOT
BRANCH   1  22
ATOM     21  C   UNL     1       7.514  -2.651 -16.689  0.00  0.00    +0.086 C 
ATOM     22  C   UNL     1       8.437  -2.247 -15.568  0.00  0.00    +0.134 C 
ATOM     23  O   UNL     1       9.340  -1.473 -15.779  0.00  0.00    -0.297 OA
ENDBRANCH   1  22
BRANCH  15  24
ATOM     24  O   UNL     1       3.023  -0.605  -5.779  0.00  0.00    -0.384 OA
BRANCH  24  25
ATOM     25  C   UNL     1       2.110  -0.951  -4.736  0.00  0.00    +0.358 C 
BRANCH  25  26
ATOM     26  C   UNL     1       2.877  -1.216  -3.465  0.00  0.00    +0.254 C 
ATOM     27  O   UNL     1       4.085  -1.119  -3.455  0.00  0.00    -0.272 OA
ATOM     28  N   UNL     1       2.218  -1.562  -2.341  0.00  0.00    -0.299 N 
ATOM     29  H   UNL     1       1.252  -1.640  -2.350  0.00  0.00    +0.150 HD
BRANCH  28  30
ATOM     30  C   UNL     1       2.963  -1.821  -1.106  0.00  0.00    +0.188 C 
BRANCH  30  31
ATOM     31  C   UNL     1       3.438  -3.251  -1.096  0.00  0.00    +0.328 C 
ATOM     32  O   UNL     1       3.180  -3.979  -2.025  0.00  0.00    -0.249 OA
BRANCH  31  33
ATOM     33  O   UNL     1       4.147  -3.715  -0.055  0.00  0.00    -0.467 OA
ATOM     34  C   UNL     1       4.571  -5.103  -0.113  0.00  0.00    +0.280 C 
ENDBRANCH  31  33
ENDBRANCH  30  31
BRANCH  30  35
ATOM     35  C   UNL     1       2.053  -1.577   0.099  0.00  0.00    +0.090 C 
BRANCH  35  36
ATOM     36  C   UNL     1       1.677  -0.118   0.158  0.00  0.00    +0.061 A 
ATOM     37  C   UNL     1       0.425   0.375   0.194  0.00  0.00    +0.107 A 
ATOM     38  N   UNL     1       0.538   1.739   0.242  0.00  0.00    -0.351 N 
ATOM     39  H   UNL     1      -0.215   2.396   0.278  0.00  0.00    +0.166 HD
ATOM     40  C   UNL     1       1.856   2.031   0.233  0.00  0.00    +0.196 A 
ATOM     41  N   UNL     1       2.531   0.915   0.182  0.00  0.00    -0.241 NA
ENDBRANCH  35  36
ENDBRANCH  30  35
ENDBRANCH  28  30
ENDBRANCH  25  26
ENDBRANCH  24  25
ENDBRANCH  15  24
TORSDOF 9
