REMARK  Name = ZINC26456552
REMARK  4 active torsions:
REMARK  status: ('A' for Active; 'I' for Inactive)
REMARK    1  A    between atoms: C_1  and  C_2
REMARK    2  A    between atoms: C_3  and  C_27
REMARK    3  A    between atoms: C_4  and  C_20
REMARK    4  A    between atoms: C_10  and  C_15
REMARK                            x       y       z     vdW  Elec       q    Type
REMARK                         _______ _______ _______ _____ _____    ______ ____
ROOT
ATOM      1  C   UNL     1      -4.730  -0.143  -0.073  0.00  0.00    +0.061 C 
ATOM      2  C   UNL     1      -4.769   1.359  -0.181  0.00  0.00    +0.014 C 
ATOM      3  C   UNL     1      -3.621   2.057  -0.194  0.00  0.00    +0.043 C 
ATOM      4  C   UNL     1      -3.621   3.554  -0.298  0.00  0.00    +0.090 C 
ATOM      5  C   UNL     1      -4.950   4.062  -0.798  0.00  0.00    +0.024 C 
ATOM      6  C   UNL     1      -6.049   3.280  -0.750  0.00  0.00    +0.016 C 
ATOM      7  N   UNL     1      -5.973   2.004  -0.259  0.00  0.00    -0.321 N 
ATOM      8  C   UNL     1      -7.386   3.787  -1.231  0.00  0.00    +0.062 C 
ATOM      9  C   UNL     1      -7.175   4.796  -2.363  0.00  0.00    +0.068 C 
ATOM     10  C   UNL     1      -6.300   5.939  -1.839  0.00  0.00    +0.091 C 
ATOM     11  C   UNL     1      -5.011   5.368  -1.313  0.00  0.00    +0.162 C 
ATOM     12  O   UNL     1      -4.005   6.049  -1.335  0.00  0.00    -0.292 OA
ATOM     13  H   UNL     1      -6.891   1.497   0.074  0.00  0.00    +0.152 HD
ENDROOT
BRANCH   3  14
ATOM     14  C   UNL     1      -2.387   1.367  -0.113  0.00  0.00    +0.248 C 
ATOM     15  O   UNL     1      -2.369   0.149  -0.136  0.00  0.00    -0.270 OA
ATOM     16  N   UNL     1      -1.234   2.057  -0.011  0.00  0.00    -0.267 N 
ATOM     17  C   UNL     1      -0.015   1.383  -0.040  0.00  0.00    +0.125 A 
ATOM     18  C   UNL     1       1.172   2.108  -0.045  0.00  0.00    +0.044 A 
ATOM     19  C   UNL     1       2.376   1.427  -0.068  0.00  0.00    +0.005 A 
ATOM     20  C   UNL     1       2.351   0.038  -0.084  0.00  0.00    +0.020 A 
ATOM     21  C   UNL     1       1.136  -0.616  -0.077  0.00  0.00    +0.113 A 
ATOM     22  N   UNL     1       0.003   0.060  -0.055  0.00  0.00    -0.240 NA
ATOM     23  H   UNL     1      -1.256   3.151   0.095  0.00  0.00    +0.157 HD
ENDBRANCH   3  14
BRANCH   4  24
ATOM     24  C   UNL     1      -3.346   4.145   1.060  0.00  0.00    -0.033 A 
ATOM     25  C   UNL     1      -4.202   3.884   2.114  0.00  0.00    +0.005 A 
ATOM     26  C   UNL     1      -3.949   4.421   3.362  0.00  0.00    +0.003 A 
ATOM     27  C   UNL     1      -2.844   5.229   3.556  0.00  0.00    +0.038 A 
ATOM     28  C   UNL     1      -1.988   5.495   2.500  0.00  0.00    +0.124 A 
ATOM     29  C   UNL     1      -2.241   4.952   1.252  0.00  0.00    +0.043 A 
ATOM     30  F   UNL     1      -0.908   6.285   2.688  0.00  0.00    -0.205 F 
ENDBRANCH   4  24
BRANCH   9  31
ATOM     31  C   UNL     1      -8.508   5.342  -2.809  0.00  0.00    +0.109 A 
ATOM     32  C   UNL     1      -9.024   5.241  -4.047  0.00  0.00    +0.045 A 
ATOM     33  C   UNL     1     -10.281   5.888  -4.019  0.00  0.00    +0.041 A 
ATOM     34  C   UNL     1     -10.458   6.344  -2.767  0.00  0.00    +0.195 A 
ATOM     35  O   UNL     1      -9.383   6.006  -2.036  0.00  0.00    -0.468 OA
ENDBRANCH   9  31
TORSDOF 3
