REMARK  Name = ZINC03133060
REMARK  8 active torsions:
REMARK  status: ('A' for Active; 'I' for Inactive)
REMARK    1  A    between atoms: C_1  and  C_2
REMARK    2  A    between atoms: C_5  and  C_8
REMARK    3  A    between atoms: C_8  and  N_46
REMARK    4  A    between atoms: C_9  and  C_10
REMARK    5  A    between atoms: C_9  and  N_46
REMARK    6  A    between atoms: C_10  and  C_11
REMARK    7  A    between atoms: C_10  and  C_18
REMARK    8  A    between atoms: C_10  and  O_25
REMARK                            x       y       z     vdW  Elec       q    Type
REMARK                         _______ _______ _______ _____ _____    ______ ____
ROOT
ATOM      1  C   UNL     1       1.233  -4.601  -2.912  0.00  0.00    +0.101 C 
ENDROOT
BRANCH   1   2
ATOM      2  C   UNL     1       1.129  -6.104  -2.960  0.00  0.00    -0.013 A 
ATOM      3  C   UNL     1       0.470  -6.783  -1.952  0.00  0.00    +0.009 A 
ATOM      4  C   UNL     1       0.370  -8.161  -1.998  0.00  0.00    +0.039 A 
ATOM      5  C   UNL     1       0.940  -8.862  -3.047  0.00  0.00    +0.123 A 
ATOM      6  C   UNL     1       1.604  -8.181  -4.053  0.00  0.00    +0.039 A 
ATOM      7  C   UNL     1       1.698  -6.803  -4.008  0.00  0.00    +0.009 A 
ATOM      8  F   UNL     1       0.846 -10.209  -3.090  0.00  0.00    -0.205 F 
ENDBRANCH   1   2
BRANCH   1   9
ATOM      9  C   UNL     1       0.054  -3.993  -3.626  0.00  0.00    -0.013 A 
ATOM     10  C   UNL     1      -1.105  -3.710  -2.928  0.00  0.00    +0.009 A 
ATOM     11  C   UNL     1      -2.186  -3.148  -3.581  0.00  0.00    +0.039 A 
ATOM     12  C   UNL     1      -2.111  -2.878  -4.937  0.00  0.00    +0.123 A 
ATOM     13  C   UNL     1      -0.951  -3.167  -5.636  0.00  0.00    +0.039 A 
ATOM     14  C   UNL     1       0.130  -3.724  -4.980  0.00  0.00    +0.009 A 
ATOM     15  F   UNL     1      -3.168  -2.333  -5.578  0.00  0.00    -0.205 F 
ENDBRANCH   1   9
BRANCH   1  16
ATOM     16  O   UNL     1       2.442  -4.187  -3.550  0.00  0.00    -0.381 OA
ATOM     17  H   UNL     1       3.244  -4.542  -3.143  0.00  0.00    +0.211 HD
ENDBRANCH   1  16
BRANCH   1  18
ATOM     18  C   UNL     1       1.241  -4.137  -1.454  0.00  0.00    -0.037 C 
BRANCH  18  19
ATOM     19  N   UNL     1       1.222  -2.663  -1.416  0.00  0.00    +0.384 N 
ATOM     20  H   UNL     1       2.050  -2.300  -1.902  0.00  0.00    -0.085 HD
ATOM     21  H   UNL     1       0.374  -2.323  -1.886  0.00  0.00    -0.085 HD
BRANCH  19  22
ATOM     22  C   UNL     1       1.229  -2.186  -0.021  0.00  0.00    -0.047 C 
BRANCH  22  27
ATOM     23  C   UNL     1       1.151   3.592   0.010  0.00  0.00    +0.044 C 
ATOM     24  C   UNL     1       1.171   2.086   0.002  0.00  0.00    -0.050 A 
ATOM     25  C   UNL     1      -0.017   1.378   0.010  0.00  0.00    +0.003 A 
ATOM     26  C   UNL     1       0.002  -0.004   0.002  0.00  0.00    +0.002 A 
ATOM     27  C   UNL     1       1.208  -0.679  -0.013  0.00  0.00    -0.064 A 
ATOM     28  C   UNL     1       2.396   0.029  -0.021  0.00  0.00    +0.002 A 
ATOM     29  C   UNL     1       2.377   1.411  -0.015  0.00  0.00    +0.003 A 
ENDBRANCH  22  27
ENDBRANCH  19  22
ENDBRANCH  18  19
ENDBRANCH   1  18
TORSDOF 7
