REMARK  Name = ZINC20572215
REMARK  7 active torsions:
REMARK  status: ('A' for Active; 'I' for Inactive)
REMARK    1  A    between atoms: C_1  and  C_2
REMARK    2  A    between atoms: C_9  and  N_14
REMARK    3  A    between atoms: C_10  and  C_11
REMARK    4  A    between atoms: C_15  and  C_17
REMARK    5  A    between atoms: C_17  and  N_18
REMARK    6  A    between atoms: N_21  and  S_24
REMARK    7  A    between atoms: S_24  and  C_27
REMARK                            x       y       z     vdW  Elec       q    Type
REMARK                         _______ _______ _______ _____ _____    ______ ____
ROOT
ATOM      1  N   UNL     1       1.624   3.315   0.004  0.00  0.00    -0.281 N 
ATOM      2  C   UNL     1       1.396   1.986  -0.001  0.00  0.00    +0.201 C 
ATOM      3  O   UNL     1       2.328   1.211  -0.014  0.00  0.00    -0.278 OA
ATOM      4  H   UNL     1       0.779   4.018   0.016  0.00  0.00    +0.155 HD
ENDROOT
BRANCH   1  12
ATOM      5  C   UNL     1       9.100   5.612  -0.147  0.00  0.00    +0.008 C 
ATOM      6  C   UNL     1       7.595   5.558  -0.418  0.00  0.00    -0.009 C 
ATOM      7  C   UNL     1       6.881   6.614   0.431  0.00  0.00    +0.008 C 
ATOM      8  C   UNL     1       5.422   6.737  -0.012  0.00  0.00    +0.037 C 
ATOM      9  C   UNL     1       4.791   5.350  -0.014  0.00  0.00    -0.023 A 
ATOM     10  C   UNL     1       5.558   4.237  -0.027  0.00  0.00    -0.004 A 
ATOM     11  S   UNL     1       4.405   2.894  -0.017  0.00  0.00    -0.077 S 
ATOM     12  C   UNL     1       2.925   3.795  -0.005  0.00  0.00    +0.084 A 
ATOM     13  C   UNL     1       3.358   5.113  -0.003  0.00  0.00    +0.068 A 
ATOM     14  C   UNL     1       7.054   4.171  -0.042  0.00  0.00    +0.046 C 
BRANCH  13  15
ATOM     15  C   UNL     1       2.404   6.226   0.012  0.00  0.00    +0.244 C 
ATOM     16  O   UNL     1       2.017   6.683   1.073  0.00  0.00    -0.270 OA
ATOM     17  N   UNL     1       1.955   6.745  -1.148  0.00  0.00    -0.325 N 
ATOM     18  H   UNL     1       1.239   7.580  -1.137  0.00  0.00    +0.145 HD
ATOM     19  H   UNL     1       2.304   6.332  -2.106  0.00  0.00    +0.145 HD
ENDBRANCH  13  15
ENDBRANCH   1  12
BRANCH   2  20
ATOM     20  C   UNL     1      -0.018   1.465   0.010  0.00  0.00    +0.019 C 
BRANCH  20  21
ATOM     21  N   UNL     1       0.002  -0.004   0.002  0.00  0.00    +0.387 N 
ATOM     22  C   UNL     1       0.562  -0.516  -1.256  0.00  0.00    -0.061 C 
ATOM     23  C   UNL     1       0.733  -2.035  -1.154  0.00  0.00    +0.091 C 
ATOM     24  N   UNL     1      -0.555  -2.626  -0.761  0.00  0.00    -0.180 NA
ATOM     25  C   UNL     1      -1.245  -2.071   0.414  0.00  0.00    +0.091 C 
ATOM     26  C   UNL     1      -1.339  -0.550   0.250  0.00  0.00    -0.061 C 
ATOM     27  H   UNL     1       0.656  -0.340   0.820  0.00  0.00    -0.081 HD
BRANCH  24  28
ATOM     28  S   UNL     1      -1.212  -3.882  -1.617  0.00  0.00    +0.061 S 
ATOM     29  O   UNL     1      -0.133  -4.531  -2.276  0.00  0.00    -0.153 OA
ATOM     30  O   UNL     1      -2.085  -4.566  -0.729  0.00  0.00    -0.153 OA
BRANCH  28  31
ATOM     31  C   UNL     1      -2.224  -3.181  -2.878  0.00  0.00    +0.105 A 
ATOM     32  C   UNL     1      -3.560  -2.928  -2.630  0.00  0.00    +0.028 A 
ATOM     33  C   UNL     1      -4.353  -2.373  -3.618  0.00  0.00    +0.002 A 
ATOM     34  C   UNL     1      -3.811  -2.081  -4.856  0.00  0.00    +0.000 A 
ATOM     35  C   UNL     1      -2.476  -2.339  -5.105  0.00  0.00    +0.002 A 
ATOM     36  C   UNL     1      -1.682  -2.889  -4.116  0.00  0.00    +0.028 A 
ENDBRANCH  28  31
ENDBRANCH  24  28
ENDBRANCH  20  21
ENDBRANCH   2  20
TORSDOF 6
