REMARK  Name = ZINC11999071
REMARK  11 active torsions:
REMARK  status: ('A' for Active; 'I' for Inactive)
REMARK    1  A    between atoms: C_1  and  O_2
REMARK    2  A    between atoms: O_2  and  C_3
REMARK    3  A    between atoms: C_8  and  C_18
REMARK    4  A    between atoms: C_18  and  N_19
REMARK    5  A    between atoms: N_19  and  C_20
REMARK    6  A    between atoms: C_20  and  C_21
REMARK    7  A    between atoms: C_27  and  C_29
REMARK    8  A    between atoms: C_32  and  O_37
REMARK    9  A    between atoms: C_34  and  O_35
REMARK   10  A    between atoms: O_35  and  C_36
REMARK   11  A    between atoms: O_37  and  C_38
REMARK                            x       y       z     vdW  Elec       q    Type
REMARK                         _______ _______ _______ _____ _____    ______ ____
ROOT
ATOM      1  C   UNL     1       7.483   3.757  -0.131  0.00  0.00    +0.146 C 
ENDROOT
BRANCH   1   7
ATOM      2  C   UNL     1      10.574   4.936   5.405  0.00  0.00    +0.122 A 
ATOM      3  C   UNL     1       9.896   6.093   5.013  0.00  0.00    +0.046 A 
ATOM      4  C   UNL     1       9.160   6.115   3.869  0.00  0.00    +0.013 A 
ATOM      5  C   UNL     1       9.076   4.964   3.070  0.00  0.00    -0.001 A 
ATOM      6  C   UNL     1       8.325   4.958   1.877  0.00  0.00    +0.018 A 
ATOM      7  C   UNL     1       8.279   3.808   1.147  0.00  0.00    +0.008 A 
ATOM      8  C   UNL     1       8.977   2.674   1.585  0.00  0.00    +0.104 A 
ATOM      9  C   UNL     1       9.759   3.786   3.459  0.00  0.00    +0.051 A 
ATOM     10  C   UNL     1      10.512   3.791   4.644  0.00  0.00    +0.071 A 
ATOM     11  N   UNL     1       8.925   1.513   0.830  0.00  0.00    -0.312 N 
ATOM     12  C   UNL     1       8.788   0.329   1.691  0.00  0.00    +0.134 C 
ATOM     13  C   UNL     1       8.675  -0.922   0.816  0.00  0.00    +0.178 C 
ATOM     14  O   UNL     1       9.818  -1.004  -0.040  0.00  0.00    -0.377 OA
ATOM     15  C   UNL     1       9.982   0.132  -0.893  0.00  0.00    +0.178 C 
ATOM     16  C   UNL     1      10.108   1.393  -0.035  0.00  0.00    +0.134 C 
ATOM     17  N   UNL     1       9.719   2.623   2.720  0.00  0.00    -0.343 N 
ATOM     18  H   UNL     1      10.217   1.774   3.010  0.00  0.00    +0.167 HD
BRANCH   2  20
ATOM     19  C   UNL     1      11.329   6.158   7.299  0.00  0.00    +0.277 C 
ATOM     20  O   UNL     1      11.303   4.940   6.552  0.00  0.00    -0.495 OA
ENDBRANCH   2  20
ENDBRANCH   1   7
BRANCH   1  21
ATOM     21  N   UNL     1       6.180   3.140   0.129  0.00  0.00    -0.291 N 
ATOM     22  C   UNL     1       5.164   3.886   0.606  0.00  0.00    +0.251 C 
ATOM     23  O   UNL     1       5.290   5.091   0.707  0.00  0.00    -0.270 OA
BRANCH  22  24
ATOM     24  C   UNL     1       3.902   3.241   1.006  0.00  0.00    +0.079 A 
ATOM     25  C   UNL     1       3.468   2.082   0.354  0.00  0.00    +0.020 A 
ATOM     26  C   UNL     1       2.288   1.484   0.730  0.00  0.00    +0.046 A 
ATOM     27  C   UNL     1       1.522   2.027   1.758  0.00  0.00    +0.124 A 
ATOM     28  C   UNL     1       1.940   3.179   2.407  0.00  0.00    +0.092 A 
ATOM     29  C   UNL     1       3.129   3.788   2.042  0.00  0.00    +0.136 A 
BRANCH  29  30
ATOM     30  O   UNL     1       3.542   4.912   2.679  0.00  0.00    -0.494 OA
ATOM     31  C   UNL     1       2.704   5.411   3.723  0.00  0.00    +0.277 C 
ENDBRANCH  29  30
BRANCH  27  32
ATOM     32  O   UNL     1       0.359   1.430   2.122  0.00  0.00    -0.495 OA
ATOM     33  C   UNL     1      -0.016   0.251   1.408  0.00  0.00    +0.277 C 
ENDBRANCH  27  32
ENDBRANCH  22  24
BRANCH  21  34
ATOM     34  C   UNL     1       5.981   1.712  -0.131  0.00  0.00    +0.140 C 
BRANCH  34  35
ATOM     35  C   UNL     1       5.766   1.490  -1.629  0.00  0.00    +0.136 C 
ATOM     36  C   UNL     1       5.472   0.001  -1.916  0.00  0.00    +0.035 C 
ATOM     37  C   UNL     1       6.192  -0.272  -3.255  0.00  0.00    +0.031 C 
ATOM     38  C   UNL     1       6.836   1.084  -3.619  0.00  0.00    +0.160 C 
ATOM     39  O   UNL     1       6.979   1.774  -2.359  0.00  0.00    -0.375 OA
ENDBRANCH  34  35
ENDBRANCH  21  34
ENDBRANCH   1  21
TORSDOF 8
