REMARK  Name = ZINC23158086
REMARK  6 active torsions:
REMARK  status: ('A' for Active; 'I' for Inactive)
REMARK    1  A    between atoms: C_1  and  C_2
REMARK    2  A    between atoms: C_8  and  C_10
REMARK    3  A    between atoms: C_10  and  C_12
REMARK    4  A    between atoms: C_10  and  N_17
REMARK    5  A    between atoms: C_19  and  C_26
REMARK    6  A    between atoms: C_22  and  C_25
REMARK                            x       y       z     vdW  Elec       q    Type
REMARK                         _______ _______ _______ _____ _____    ______ ____
ROOT
ATOM      1  C   UNL     1       1.307   1.597  -2.570  0.00  0.00    +0.042 C 
ENDROOT
BRANCH   1   9
ATOM      2  C   UNL     1       2.801   2.214   4.712  0.00  0.00    +0.090 C 
ATOM      3  C   UNL     1       2.645   2.156   3.214  0.00  0.00    +0.150 A 
ATOM      4  N   UNL     1       3.544   2.580   2.328  0.00  0.00    -0.205 NA
ATOM      5  C   UNL     1       3.088   2.382   1.122  0.00  0.00    +0.199 A 
ATOM      6  N   UNL     1       1.851   1.817   1.188  0.00  0.00    -0.170 N 
ATOM      7  N   UNL     1       1.606   1.683   2.580  0.00  0.00    -0.147 NA
ATOM      8  C   UNL     1       1.224   1.533  -0.001  0.00  0.00    +0.282 A 
ATOM      9  C   UNL     1       1.815   1.817  -1.168  0.00  0.00    +0.053 A 
ATOM     10  S   UNL     1       3.363   2.526  -0.628  0.00  0.00    -0.050 S 
ATOM     11  O   UNL     1      -0.011   0.963   0.007  0.00  0.00    -0.265 OA
ENDBRANCH   1   9
BRANCH   1  12
ATOM     12  N   UNL     1       1.558   2.799  -3.376  0.00  0.00    +0.390 N 
ATOM     13  C   UNL     1       0.957   3.985  -2.753  0.00  0.00    -0.074 C 
ATOM     14  C   UNL     1       1.360   5.235  -3.539  0.00  0.00    -0.031 C 
ATOM     15  C   UNL     1       0.880   5.098  -4.986  0.00  0.00    +0.003 C 
ATOM     16  C   UNL     1       1.481   3.829  -5.597  0.00  0.00    -0.031 C 
ATOM     17  C   UNL     1       1.075   2.620  -4.752  0.00  0.00    -0.074 C 
ATOM     18  C   UNL     1       3.006   3.947  -5.621  0.00  0.00    +0.005 C 
ATOM     19  C   UNL     1       0.716   6.468  -2.902  0.00  0.00    +0.005 C 
ATOM     20  H   UNL     1       2.645   2.957  -3.420  0.00  0.00    -0.080 HD
ENDBRANCH   1  12
BRANCH   1  21
ATOM     21  C   UNL     1       2.023   0.421  -3.184  0.00  0.00    +0.096 A 
ATOM     22  C   UNL     1       1.541  -0.831  -3.281  0.00  0.00    +0.043 A 
ATOM     23  C   UNL     1       2.535  -1.604  -3.923  0.00  0.00    +0.041 A 
ATOM     24  C   UNL     1       3.569  -0.780  -4.172  0.00  0.00    +0.195 A 
ATOM     25  O   UNL     1       3.253   0.445  -3.723  0.00  0.00    -0.469 OA
ENDBRANCH   1  21
TORSDOF 3
