REMARK  Name = ZINC37420774
REMARK  12 active torsions:
REMARK  status: ('A' for Active; 'I' for Inactive)
REMARK    1  A    between atoms: C_1  and  C_2
REMARK    2  A    between atoms: C_2  and  C_40
REMARK    3  A    between atoms: C_7  and  C_18
REMARK    4  A    between atoms: C_7  and  O_28
REMARK    5  A    between atoms: C_9  and  O_14
REMARK    6  A    between atoms: O_14  and  C_15
REMARK    7  A    between atoms: C_15  and  C_16
REMARK    8  A    between atoms: N_20  and  C_21
REMARK    9  A    between atoms: C_21  and  C_22
REMARK   10  A    between atoms: O_28  and  C_29
REMARK   11  A    between atoms: C_29  and  C_30
REMARK   12  A    between atoms: C_34  and  C_36
REMARK                            x       y       z     vdW  Elec       q    Type
REMARK                         _______ _______ _______ _____ _____    ______ ____
ROOT
ATOM      1  C   UNL     1      -0.055   1.664  -0.606  0.00  0.00    +0.074 C 
ATOM      2  C   UNL     1      -0.025   0.146  -0.420  0.00  0.00    +0.165 C 
ATOM      3  O   UNL     1       0.683  -0.465  -1.520  0.00  0.00    -0.343 OA
ATOM      4  C   UNL     1       2.023  -0.611  -1.015  0.00  0.00    +0.156 C 
ATOM      5  C   UNL     1       2.847  -1.607  -1.783  0.00  0.00    +0.079 C 
ATOM      6  C   UNL     1       2.337  -3.029  -1.681  0.00  0.00    +0.150 C 
ATOM      7  C   UNL     1       2.065  -3.448  -0.253  0.00  0.00    +0.079 C 
ATOM      8  C   UNL     1       1.214  -2.453   0.502  0.00  0.00    +0.153 C 
ATOM      9  C   UNL     1       1.765  -1.050   0.440  0.00  0.00    +0.179 C 
ATOM     10  O   UNL     1       0.658  -0.178   0.802  0.00  0.00    -0.341 OA
ATOM     11  C   UNL     1      -1.456  -0.394  -0.369  0.00  0.00    +0.074 C 
ENDROOT
BRANCH   6  12
ATOM     12  C   UNL     1       3.364  -3.958  -2.274  0.00  0.00    +0.245 C 
ATOM     13  O   UNL     1       4.527  -3.619  -2.332  0.00  0.00    -0.273 OA
ATOM     14  N   UNL     1       2.990  -5.166  -2.741  0.00  0.00    -0.310 N 
ATOM     15  H   UNL     1       2.051  -5.409  -2.760  0.00  0.00    +0.149 HD
BRANCH  14  16
ATOM     16  C   UNL     1       4.001  -6.112  -3.220  0.00  0.00    +0.135 C 
BRANCH  16  17
ATOM     17  C   UNL     1       3.316  -7.396  -3.692  0.00  0.00    +0.135 C 
ATOM     18  C   UNL     1       4.372  -8.424  -4.170  0.00  0.00    +0.035 C 
ATOM     19  C   UNL     1       3.599  -9.756  -3.969  0.00  0.00    +0.031 C 
ATOM     20  C   UNL     1       2.751  -9.456  -2.714  0.00  0.00    +0.160 C 
ATOM     21  O   UNL     1       2.640  -8.032  -2.595  0.00  0.00    -0.375 OA
ENDBRANCH  16  17
ENDBRANCH  14  16
ENDBRANCH   6  12
BRANCH   8  22
ATOM     22  O   UNL     1       1.135  -2.859   1.869  0.00  0.00    -0.370 OA
BRANCH  22  23
ATOM     23  C   UNL     1       0.038  -3.730   2.155  0.00  0.00    +0.187 C 
BRANCH  23  24
ATOM     24  C   UNL     1       0.053  -4.093   3.617  0.00  0.00    -0.007 C 
ATOM     25  C   UNL     1      -1.059  -4.065   4.310  0.00  0.00    +0.006 C 
ENDBRANCH  23  24
ENDBRANCH  22  23
ENDBRANCH   8  22
BRANCH   6  26
ATOM     26  O   UNL     1       1.127  -3.141  -2.433  0.00  0.00    -0.359 OA
BRANCH  26  27
ATOM     27  C   UNL     1       1.281  -2.861  -3.826  0.00  0.00    +0.196 C 
BRANCH  27  28
ATOM     28  C   UNL     1      -0.016  -3.143  -4.541  0.00  0.00    -0.021 A 
ATOM     29  C   UNL     1      -0.264  -4.403  -5.052  0.00  0.00    +0.006 A 
ATOM     30  C   UNL     1      -1.454  -4.661  -5.707  0.00  0.00    +0.001 A 
ATOM     31  C   UNL     1      -2.395  -3.659  -5.852  0.00  0.00    +0.012 A 
ATOM     32  C   UNL     1      -2.147  -2.399  -5.340  0.00  0.00    +0.055 A 
ATOM     33  C   UNL     1      -0.959  -2.142  -4.681  0.00  0.00    +0.018 A 
BRANCH  32  34
ATOM     34  C   UNL     1      -3.173  -1.306  -5.498  0.00  0.00    +0.417 C 
ATOM     35  F   UNL     1      -4.282  -1.804  -6.190  0.00  0.00    -0.166 F 
ATOM     36  F   UNL     1      -3.574  -0.858  -4.235  0.00  0.00    -0.166 F 
ATOM     37  F   UNL     1      -2.615  -0.243  -6.215  0.00  0.00    -0.166 F 
ENDBRANCH  32  34
ENDBRANCH  27  28
ENDBRANCH  26  27
ENDBRANCH   6  26
TORSDOF 10
