REMARK  Name = ZINC04747293
REMARK  1 active torsions:
REMARK  status: ('A' for Active; 'I' for Inactive)
REMARK    1  A    between atoms: C_5  and  C_7
REMARK                            x       y       z     vdW  Elec       q    Type
REMARK                         _______ _______ _______ _____ _____    ______ ____
ROOT
ATOM      1  C   UNL     1      -3.615   1.672   0.029  0.00  0.00    +0.233 C 
ATOM      2  N   UNL     1      -2.283   1.059  -0.051  0.00  0.00    -0.224 NA
ATOM      3  C   UNL     1      -1.222   1.828  -0.046  0.00  0.00    +0.212 C 
ATOM      4  N   UNL     1      -1.327   3.162   0.035  0.00  0.00    -0.193 NA
ATOM      5  C   UNL     1      -2.468   3.793   0.104  0.00  0.00    +0.171 C 
ATOM      6  N   UNL     1      -3.681   3.155   0.111  0.00  0.00    -0.252 N 
ATOM      7  C   UNL     1      -4.838   3.934   0.194  0.00  0.00    +0.052 A 
ATOM      8  C   UNL     1      -6.162   3.464   0.215  0.00  0.00    +0.025 A 
ATOM      9  C   UNL     1      -7.219   4.339   0.301  0.00  0.00    +0.002 A 
ATOM     10  C   UNL     1      -7.014   5.707   0.369  0.00  0.00    +0.001 A 
ATOM     11  C   UNL     1      -5.720   6.197   0.349  0.00  0.00    +0.017 A 
ATOM     12  C   UNL     1      -4.664   5.320   0.264  0.00  0.00    +0.037 A 
ATOM     13  S   UNL     1      -2.900   5.516   0.212  0.00  0.00    -0.052 S 
ATOM     14  N   UNL     1       0.030   1.252  -0.120  0.00  0.00    -0.328 N 
ATOM     15  H   UNL     1       0.118   0.287  -0.175  0.00  0.00    +0.145 HD
ATOM     16  H   UNL     1       0.823   1.812  -0.122  0.00  0.00    +0.145 HD
ENDROOT
BRANCH   1  21
ATOM     17  C   UNL     1      -5.135   1.651  -3.427  0.00  0.00    +0.000 A 
ATOM     18  C   UNL     1      -5.827   0.454  -3.417  0.00  0.00    +0.001 A 
ATOM     19  C   UNL     1      -5.804  -0.349  -2.293  0.00  0.00    +0.020 A 
ATOM     20  C   UNL     1      -5.088   0.045  -1.177  0.00  0.00    +0.048 A 
ATOM     21  C   UNL     1      -4.395   1.242  -1.187  0.00  0.00    +0.013 A 
ATOM     22  C   UNL     1      -4.424   2.048  -2.310  0.00  0.00    +0.009 A 
ATOM     23 CL   UNL     1      -5.057  -0.964   0.236  0.00  0.00    -0.083 Cl
ENDBRANCH   1  21
TORSDOF 1
