REMARK  Name = ZINC13499518
REMARK  15 active torsions:
REMARK  status: ('A' for Active; 'I' for Inactive)
REMARK    1  A    between atoms: C_1  and  C_2
REMARK    2  A    between atoms: C_2  and  C_3
REMARK    3  A    between atoms: C_3  and  C_4
REMARK    4  A    between atoms: C_4  and  C_6
REMARK    5  A    between atoms: C_4  and  N_66
REMARK    6  A    between atoms: N_10  and  C_11
REMARK    7  A    between atoms: C_11  and  C_12
REMARK    8  A    between atoms: C_17  and  C_18
REMARK    9  A    between atoms: C_17  and  N_66
REMARK   10  A    between atoms: C_18  and  C_19
REMARK   11  A    between atoms: C_19  and  O_20
REMARK   12  A    between atoms: C_21  and  C_22
REMARK   13  A    between atoms: C_21  and  N_66
REMARK   14  A    between atoms: C_26  and  C_35
REMARK   15  A    between atoms: C_27  and  C_34
REMARK                            x       y       z     vdW  Elec       q    Type
REMARK                         _______ _______ _______ _____ _____    ______ ____
ROOT
ATOM      1  N   UNL     1       0.353   4.918   1.393  0.00  0.00    +0.389 N 
ATOM      2  H   UNL     1       0.179   5.889   1.107  0.00  0.00    -0.080 HD
ENDROOT
BRANCH   1   3
ATOM      3  C   UNL     1      -0.942   4.220   1.536  0.00  0.00    +0.003 C 
BRANCH   3   4
ATOM      4  C   UNL     1      -1.883   5.102   2.315  0.00  0.00    +0.139 A 
ATOM      5  N   UNL     1      -1.742   5.492   3.558  0.00  0.00    -0.115 NA
ATOM      6  N   UNL     1      -2.751   6.235   3.859  0.00  0.00    -0.023 NA
ATOM      7  N   UNL     1      -3.536   6.322   2.843  0.00  0.00    -0.044 NA
ATOM      8  N   UNL     1      -3.036   5.637   1.871  0.00  0.00    -0.223 N 
BRANCH   8   9
ATOM      9  C   UNL     1      -3.614   5.472   0.535  0.00  0.00    +0.221 C 
BRANCH   9  10
ATOM     10  C   UNL     1      -4.624   4.354   0.559  0.00  0.00    +0.126 A 
ATOM     11  C   UNL     1      -5.926   4.476   0.873  0.00  0.00    +0.046 A 
ATOM     12  C   UNL     1      -6.497   3.187   0.765  0.00  0.00    +0.041 A 
ATOM     13  C   UNL     1      -5.508   2.352   0.401  0.00  0.00    +0.195 A 
ATOM     14  O   UNL     1      -4.375   3.064   0.278  0.00  0.00    -0.466 OA
ENDBRANCH   9  10
ENDBRANCH   8   9
ENDBRANCH   3   4
BRANCH   3  15
ATOM     15  C   UNL     1      -0.757   2.893   2.275  0.00  0.00    -0.008 C 
BRANCH  15  17
ATOM     16  C   UNL     1      -1.879   0.766   2.950  0.00  0.00    +0.004 C 
ATOM     17  C   UNL     1      -2.089   2.141   2.313  0.00  0.00    -0.005 C 
ENDBRANCH  15  17
ENDBRANCH   3  15
ENDBRANCH   1   3
BRANCH   1  18
ATOM     18  C   UNL     1       1.072   4.919   2.685  0.00  0.00    -0.075 C 
BRANCH  18  19
ATOM     19  C   UNL     1       2.198   5.952   2.619  0.00  0.00    +0.009 C 
BRANCH  19  20
ATOM     20  C   UNL     1       3.006   5.909   3.918  0.00  0.00    +0.154 C 
BRANCH  20  21
ATOM     21  O   UNL     1       4.059   6.873   3.857  0.00  0.00    -0.395 OA
ATOM     22  H   UNL     1       4.613   6.901   4.648  0.00  0.00    +0.209 HD
ENDBRANCH  20  21
ENDBRANCH  19  20
ENDBRANCH  18  19
ENDBRANCH   1  18
BRANCH   1  23
ATOM     23  C   UNL     1       1.174   4.253   0.359  0.00  0.00    -0.037 C 
BRANCH  23  24
ATOM     24  C   UNL     1       0.680   4.680  -0.998  0.00  0.00    +0.001 A 
ATOM     25  C   UNL     1       1.255   5.736  -1.625  0.00  0.00    +0.017 A 
ATOM     26  C   UNL     1       0.751   6.125  -2.944  0.00  0.00    -0.001 A 
ATOM     27  C   UNL     1       1.304   7.206  -3.639  0.00  0.00    +0.013 A 
ATOM     28  C   UNL     1       0.811   7.544  -4.867  0.00  0.00    -0.047 A 
ATOM     29  C   UNL     1      -0.234   6.825  -5.432  0.00  0.00    -0.046 A 
ATOM     30  C   UNL     1      -0.793   5.757  -4.765  0.00  0.00    +0.030 A 
ATOM     31  C   UNL     1      -0.308   5.394  -3.513  0.00  0.00    +0.049 A 
ATOM     32  N   UNL     1      -0.850   4.330  -2.823  0.00  0.00    -0.322 N 
ATOM     33  H   UNL     1      -1.579   3.827  -3.217  0.00  0.00    +0.169 HD
ATOM     34  C   UNL     1      -0.377   3.976  -1.615  0.00  0.00    +0.251 A 
ATOM     35  O   UNL     1      -0.876   3.027  -1.037  0.00  0.00    -0.268 OA
ATOM     36  C   UNL     1      -0.761   7.217  -6.788  0.00  0.00    +0.044 C 
ATOM     37  C   UNL     1       1.408   8.708  -5.617  0.00  0.00    +0.044 C 
ENDBRANCH  23  24
ENDBRANCH   1  23
TORSDOF 12
