REMARK  Name = ZINC32964363
REMARK  7 active torsions:
REMARK  status: ('A' for Active; 'I' for Inactive)
REMARK    1  A    between atoms: C_1  and  C_2
REMARK    2  A    between atoms: C_2  and  C_3
REMARK    3  A    between atoms: C_3  and  C_5
REMARK    4  A    between atoms: C_3  and  C_11
REMARK    5  A    between atoms: C_17  and  C_18
REMARK    6  A    between atoms: N_22  and  C_23
REMARK    7  A    between atoms: C_26  and  N_29
REMARK                            x       y       z     vdW  Elec       q    Type
REMARK                         _______ _______ _______ _____ _____    ______ ____
ROOT
ATOM      1  C   UNL     1       2.890  -1.022  -2.108  0.00  0.00    +0.107 C 
ATOM      2  N   UNL     1       4.023  -1.544  -1.733  0.00  0.00    -0.169 NA
ATOM      3  N   UNL     1       5.085  -0.751  -1.356  0.00  0.00    -0.152 N 
ATOM      4  C   UNL     1       6.378  -1.208  -1.019  0.00  0.00    +0.153 C 
ATOM      5  N   UNL     1       6.858  -2.360  -1.413  0.00  0.00    -0.283 NA
ATOM      6  C   UNL     1       7.141  -0.251  -0.174  0.00  0.00    +0.082 C 
ATOM      7  C   UNL     1       8.045  -0.682   0.783  0.00  0.00    +0.042 C 
ATOM      8  C   UNL     1       6.883   1.189  -0.409  0.00  0.00    +0.273 C 
ATOM      9  O   UNL     1       7.724   2.030  -0.136  0.00  0.00    -0.268 OA
ATOM     10  N   UNL     1       5.693   1.543  -0.934  0.00  0.00    -0.152 NA
ATOM     11  C   UNL     1       4.867   0.610  -1.334  0.00  0.00    +0.181 C 
ATOM     12  S   UNL     1       3.213   0.730  -1.962  0.00  0.00    -0.037 S 
ATOM     13  H   UNL     1       6.348  -2.914  -2.023  0.00  0.00    +0.188 HD
ENDROOT
BRANCH   7  14
ATOM     14  C   UNL     1       7.980  -2.002   1.267  0.00  0.00    +0.047 A 
ATOM     15  C   UNL     1       6.981  -2.929   0.999  0.00  0.00    +0.027 A 
ATOM     16  C   UNL     1       7.316  -4.100   1.678  0.00  0.00    +0.020 A 
ATOM     17  C   UNL     1       8.483  -3.885   2.336  0.00  0.00    +0.092 A 
ATOM     18  N   UNL     1       8.902  -2.617   2.091  0.00  0.00    -0.316 N 
BRANCH  18  19
ATOM     19  C   UNL     1      10.071  -2.030   2.592  0.00  0.00    +0.047 A 
ATOM     20  C   UNL     1      10.962  -1.408   1.729  0.00  0.00    +0.028 A 
ATOM     21  C   UNL     1      12.114  -0.831   2.226  0.00  0.00    +0.035 A 
ATOM     22  C   UNL     1      12.379  -0.871   3.583  0.00  0.00    +0.126 A 
ATOM     23  C   UNL     1      11.493  -1.490   4.445  0.00  0.00    +0.035 A 
ATOM     24  C   UNL     1      10.337  -2.064   3.955  0.00  0.00    +0.028 A 
BRANCH  22  25
ATOM     25  N   UNL     1      13.615  -0.251   4.112  0.00  0.00    +0.056 N 
ATOM     26  O   UNL     1      14.344   0.369   3.375  0.00  0.00    -0.126 OA
ATOM     27  O   UNL     1      13.895  -0.366   5.283  0.00  0.00    -0.126 OA
ENDBRANCH  22  25
ENDBRANCH  18  19
ENDBRANCH   7  14
BRANCH   1  28
ATOM     28  C   UNL     1       1.631  -1.718  -2.557  0.00  0.00    +0.076 C 
BRANCH  28  29
ATOM     29  C   UNL     1       1.983  -3.053  -3.162  0.00  0.00    -0.038 A 
ATOM     30  C   UNL     1       2.698  -3.978  -2.425  0.00  0.00    +0.004 A 
ATOM     31  C   UNL     1       3.020  -5.202  -2.980  0.00  0.00    +0.000 A 
ATOM     32  C   UNL     1       2.627  -5.501  -4.271  0.00  0.00    +0.000 A 
ATOM     33  C   UNL     1       1.911  -4.576  -5.007  0.00  0.00    +0.000 A 
ATOM     34  C   UNL     1       1.585  -3.353  -4.451  0.00  0.00    +0.004 A 
ENDBRANCH  28  29
BRANCH  28  36
ATOM     35  C   UNL     1       0.252  -0.572  -0.817  0.00  0.00    +0.005 C 
ATOM     36  C   UNL     1       0.709  -1.930  -1.355  0.00  0.00    +0.011 C 
ENDBRANCH  28  36
ENDBRANCH   1  28
TORSDOF 6
