REMARK  Name = ZINC41791834
REMARK  10 active torsions:
REMARK  status: ('A' for Active; 'I' for Inactive)
REMARK    1  A    between atoms: C_1  and  C_2
REMARK    2  A    between atoms: C_2  and  N_3
REMARK    3  A    between atoms: C_7  and  C_9
REMARK    4  A    between atoms: C_9  and  N_10
REMARK    5  A    between atoms: C_11  and  C_13
REMARK    6  A    between atoms: C_13  and  N_14
REMARK    7  A    between atoms: C_20  and  C_23
REMARK    8  A    between atoms: C_23  and  C_24
REMARK    9  A    between atoms: C_23  and  C_25
REMARK   10  A    between atoms: C_23  and  C_26
REMARK                            x       y       z     vdW  Elec       q    Type
REMARK                         _______ _______ _______ _____ _____    ______ ____
ROOT
ATOM      1  N   UNL     1       4.043  -2.416   2.975  0.00  0.00    -0.215 N 
ATOM      2  C   UNL     1       4.457  -3.582   3.513  0.00  0.00    +0.247 C 
ATOM      3  O   UNL     1       3.774  -4.423   4.057  0.00  0.00    -0.273 OA
ATOM      4  C   UNL     1       5.952  -3.618   3.296  0.00  0.00    +0.113 C 
ATOM      5  C   UNL     1       6.334  -4.811   2.427  0.00  0.00    +0.035 C 
ATOM      6  C   UNL     1       7.847  -4.812   2.194  0.00  0.00    +0.006 C 
ATOM      7  C   UNL     1       8.569  -4.888   3.540  0.00  0.00    -0.005 C 
ATOM      8  C   UNL     1       8.194  -3.673   4.391  0.00  0.00    +0.006 C 
ATOM      9  C   UNL     1       6.683  -3.668   4.633  0.00  0.00    +0.035 C 
ATOM     10  N   UNL     1       6.242  -2.359   2.597  0.00  0.00    -0.285 N 
ATOM     11  C   UNL     1       5.062  -1.726   2.449  0.00  0.00    +0.310 C 
ATOM     12  O   UNL     1       4.938  -0.647   1.904  0.00  0.00    -0.252 OA
ATOM     13  H   UNL     1       7.110  -2.047   2.298  0.00  0.00    +0.151 HD
ENDROOT
BRANCH   7  14
ATOM     14  C   UNL     1      10.081  -4.901   3.308  0.00  0.00    -0.035 C 
ATOM     15  C   UNL     1      10.496  -3.622   2.578  0.00  0.00    +0.011 C 
ATOM     16  C   UNL     1      10.804  -4.977   4.654  0.00  0.00    +0.011 C 
ATOM     17  C   UNL     1      10.456  -6.117   2.458  0.00  0.00    +0.011 C 
ENDBRANCH   7  14
BRANCH   1  18
ATOM     18  C   UNL     1       2.649  -1.965   2.961  0.00  0.00    +0.213 C 
BRANCH  18  20
ATOM     19  N   UNL     1       0.677  -2.168   1.482  0.00  0.00    -0.316 N 
ATOM     20  C   UNL     1       1.972  -2.463   1.710  0.00  0.00    +0.231 C 
ATOM     21  O   UNL     1       2.592  -3.130   0.909  0.00  0.00    -0.274 OA
ATOM     22  H   UNL     1       0.180  -1.635   2.122  0.00  0.00    +0.149 HD
BRANCH  19  23
ATOM     23  C   UNL     1       0.019  -2.653   0.266  0.00  0.00    +0.089 C 
BRANCH  23  28
ATOM     24  N   UNL     1      -2.048  -2.513  -1.061  0.00  0.00    +0.382 N 
ATOM     25  C   UNL     1      -3.240  -3.317  -0.719  0.00  0.00    -0.078 C 
ATOM     26  C   UNL     1      -3.636  -2.853   0.705  0.00  0.00    -0.020 C 
ATOM     27  C   UNL     1      -2.247  -2.627   1.358  0.00  0.00    -0.016 C 
ATOM     28  C   UNL     1      -1.399  -2.081   0.191  0.00  0.00    -0.051 C 
ATOM     29  H   UNL     1      -2.328  -1.704  -1.595  0.00  0.00    -0.081 HD
BRANCH  24  31
ATOM     30  C   UNL     1      -1.755  -3.690  -3.188  0.00  0.00    -0.017 C 
ATOM     31  C   UNL     1      -1.112  -3.327  -1.848  0.00  0.00    -0.082 C 
ENDBRANCH  24  31
ENDBRANCH  23  28
ENDBRANCH  19  23
ENDBRANCH  18  20
ENDBRANCH   1  18
TORSDOF 6
