REMARK  Name = ZINC63573342
REMARK  6 active torsions:
REMARK  status: ('A' for Active; 'I' for Inactive)
REMARK    1  A    between atoms: C_1  and  C_2
REMARK    2  A    between atoms: C_5  and  C_8
REMARK    3  A    between atoms: C_15  and  O_20
REMARK    4  A    between atoms: O_20  and  C_21
REMARK    5  A    between atoms: N_27  and  C_28
REMARK    6  A    between atoms: C_31  and  C_35
REMARK                            x       y       z     vdW  Elec       q    Type
REMARK                         _______ _______ _______ _____ _____    ______ ____
ROOT
ATOM      1  C   UNL     1      -0.460  -4.544   0.688  0.00  0.00    +0.134 C 
ATOM      2  C   UNL     1      -1.576  -5.424   1.264  0.00  0.00    +0.131 C 
ATOM      3  C   UNL     1      -1.075  -6.861   1.196  0.00  0.00    -0.035 C 
ATOM      4  C   UNL     1      -1.980  -7.542   0.504  0.00  0.00    +0.003 A 
ATOM      5  C   UNL     1      -2.088  -8.969   0.165  0.00  0.00    +0.055 A 
ATOM      6  C   UNL     1      -3.161  -9.339  -0.586  0.00  0.00    +0.121 A 
ATOM      7  C   UNL     1      -4.143  -8.447  -1.042  0.00  0.00    +0.047 A 
ATOM      8  C   UNL     1      -4.144  -7.114  -0.786  0.00  0.00    +0.029 A 
ATOM      9  C   UNL     1      -3.033  -6.594   0.024  0.00  0.00    +0.043 A 
ATOM     10  N   UNL     1      -2.789  -5.368   0.446  0.00  0.00    -0.375 N 
ATOM     11  C   UNL     1       0.253  -7.284   1.775  0.00  0.00    +0.052 C 
ATOM     12  C   UNL     1       1.307  -6.304   1.227  0.00  0.00    +0.114 C 
ATOM     13  N   UNL     1       0.802  -4.932   1.337  0.00  0.00    -0.276 N 
ATOM     14  C   UNL     1       1.500  -4.018   2.039  0.00  0.00    +0.307 C 
ATOM     15  O   UNL     1       1.026  -2.917   2.244  0.00  0.00    -0.252 OA
ATOM     16  N   UNL     1       2.723  -4.324   2.516  0.00  0.00    -0.268 N 
ATOM     17  H   UNL     1       3.135  -5.171   2.284  0.00  0.00    +0.156 HD
ATOM     18  H   UNL     1      -3.307  -4.571   0.253  0.00  0.00    +0.160 HD
ENDROOT
BRANCH  16  19
ATOM     19  C   UNL     1       3.398  -3.420   3.345  0.00  0.00    +0.053 A 
ATOM     20  C   UNL     1       3.141  -2.059   3.244  0.00  0.00    +0.025 A 
ATOM     21  C   UNL     1       3.809  -1.170   4.064  0.00  0.00    +0.005 A 
ATOM     22  C   UNL     1       4.732  -1.633   4.984  0.00  0.00    -0.049 A 
ATOM     23  C   UNL     1       4.990  -2.987   5.086  0.00  0.00    +0.025 A 
ATOM     24  C   UNL     1       4.321  -3.883   4.274  0.00  0.00    +0.062 A 
ATOM     25 CL   UNL     1       4.640  -5.584   4.408  0.00  0.00    -0.082 Cl
ATOM     26  C   UNL     1       5.458  -0.659   5.875  0.00  0.00    +0.044 C 
ENDBRANCH  16  19
BRANCH   1  31
ATOM     27  C   UNL     1      -1.590   1.016   1.784  0.00  0.00    +0.044 C 
ATOM     28  C   UNL     1      -1.296  -0.434   1.498  0.00  0.00    -0.050 A 
ATOM     29  C   UNL     1      -1.628  -1.403   2.426  0.00  0.00    +0.004 A 
ATOM     30  C   UNL     1      -1.358  -2.733   2.164  0.00  0.00    +0.006 A 
ATOM     31  C   UNL     1      -0.756  -3.094   0.973  0.00  0.00    -0.025 A 
ATOM     32  C   UNL     1      -0.424  -2.125   0.044  0.00  0.00    +0.006 A 
ATOM     33  C   UNL     1      -0.699  -0.796   0.305  0.00  0.00    +0.004 A 
ENDBRANCH   1  31
BRANCH   6  34
ATOM     34  O   UNL     1      -3.288 -10.651  -0.916  0.00  0.00    -0.495 OA
ATOM     35  C   UNL     1      -4.422 -11.016  -1.705  0.00  0.00    +0.277 C 
ENDBRANCH   6  34
TORSDOF 3
