REMARK  Name = ZINC52607216
REMARK  9 active torsions:
REMARK  status: ('A' for Active; 'I' for Inactive)
REMARK    1  A    between atoms: C_1  and  C_2
REMARK    2  A    between atoms: C_2  and  C_3
REMARK    3  A    between atoms: C_7  and  C_37
REMARK    4  A    between atoms: C_9  and  C_36
REMARK    5  A    between atoms: N_12  and  C_13
REMARK    6  A    between atoms: C_13  and  C_14
REMARK    7  A    between atoms: N_22  and  C_23
REMARK    8  A    between atoms: C_23  and  C_25
REMARK    9  A    between atoms: C_23  and  C_31
REMARK                            x       y       z     vdW  Elec       q    Type
REMARK                         _______ _______ _______ _____ _____    ______ ____
ROOT
ATOM      1  C   UNL     1       2.107  -5.866  -2.532  0.00  0.00    -0.030 A 
ATOM      2  C   UNL     1       3.413  -5.465  -2.745  0.00  0.00    +0.007 A 
ATOM      3  C   UNL     1       4.185  -5.026  -1.691  0.00  0.00    +0.024 A 
ATOM      4  C   UNL     1       3.655  -4.983  -0.400  0.00  0.00    +0.034 A 
ATOM      5  C   UNL     1       2.344  -5.387  -0.197  0.00  0.00    -0.025 A 
ATOM      6  C   UNL     1       1.573  -5.821  -1.258  0.00  0.00    +0.010 A 
ATOM      7  C   UNL     1       2.019  -5.244   1.273  0.00  0.00    +0.056 C 
ATOM      8  C   UNL     1       3.313  -4.703   1.903  0.00  0.00    +0.111 C 
ATOM      9  N   UNL     1       4.258  -4.577   0.791  0.00  0.00    -0.315 N 
ENDROOT
BRANCH   1  10
ATOM     10  C   UNL     1       1.265  -6.345  -3.687  0.00  0.00    +0.143 C 
BRANCH  10  19
ATOM     11  C   UNL     1      -0.739  -4.677  -3.888  0.00  0.00    +0.160 C 
ATOM     12  N   UNL     1      -1.005  -3.543  -4.782  0.00  0.00    -0.323 N 
ATOM     13  C   UNL     1       0.091  -3.434  -5.646  0.00  0.00    +0.070 A 
ATOM     14  C   UNL     1       0.350  -2.539  -6.678  0.00  0.00    -0.025 A 
ATOM     15  C   UNL     1       1.540  -2.666  -7.382  0.00  0.00    +0.026 A 
ATOM     16  C   UNL     1       2.422  -3.670  -7.038  0.00  0.00    +0.015 A 
ATOM     17  N   UNL     1       2.151  -4.507  -6.055  0.00  0.00    -0.346 N 
ATOM     18  C   UNL     1       1.028  -4.424  -5.353  0.00  0.00    +0.122 A 
ATOM     19  N   UNL     1       0.569  -5.206  -4.290  0.00  0.00    -0.292 N 
ATOM     20  C   UNL     1       3.715  -3.814  -7.799  0.00  0.00    +0.063 C 
ATOM     21  C   UNL     1      -0.638  -1.456  -7.024  0.00  0.00    +0.046 C 
ATOM     22  H   UNL     1      -1.792  -2.977  -4.776  0.00  0.00    +0.148 HD
ATOM     23  H   UNL     1       2.792  -5.202  -5.839  0.00  0.00    +0.167 HD
BRANCH  11  25
ATOM     24  C   UNL     1      -3.148  -5.224  -3.516  0.00  0.00    +0.007 C 
ATOM     25  C   UNL     1      -1.818  -5.749  -4.059  0.00  0.00    +0.039 C 
ENDBRANCH  11  25
ENDBRANCH  10  19
ENDBRANCH   1  10
BRANCH   9  26
ATOM     26  C   UNL     1       5.637  -4.096   0.912  0.00  0.00    +0.173 C 
BRANCH  26  27
ATOM     27  C   UNL     1       5.635  -2.709   1.502  0.00  0.00    -0.020 A 
ATOM     28  C   UNL     1       5.043  -2.481   2.730  0.00  0.00    +0.006 A 
ATOM     29  C   UNL     1       5.042  -1.209   3.271  0.00  0.00    +0.000 A 
ATOM     30  C   UNL     1       5.631  -0.165   2.584  0.00  0.00    +0.000 A 
ATOM     31  C   UNL     1       6.224  -0.393   1.356  0.00  0.00    +0.000 A 
ATOM     32  C   UNL     1       6.229  -1.665   0.817  0.00  0.00    +0.006 A 
ENDBRANCH  26  27
BRANCH  26  33
ATOM     33  C   UNL     1       6.416  -5.022   1.809  0.00  0.00    +0.174 A 
ATOM     34  N   UNL     1       5.927  -5.799   2.745  0.00  0.00    -0.111 NA
ATOM     35  N   UNL     1       6.909  -6.434   3.288  0.00  0.00    -0.023 NA
ATOM     36  N   UNL     1       8.010  -6.082   2.722  0.00  0.00    -0.047 NA
ATOM     37  N   UNL     1       7.748  -5.217   1.802  0.00  0.00    -0.241 N 
ATOM     38  H   UNL     1       8.389  -4.786   1.216  0.00  0.00    +0.192 HD
ENDBRANCH  26  33
ENDBRANCH   9  26
TORSDOF 6
