REMARK  Name = ZINC08716324
REMARK  7 active torsions:
REMARK  status: ('A' for Active; 'I' for Inactive)
REMARK    1  A    between atoms: C_1  and  C_2
REMARK    2  A    between atoms: C_9  and  C_14
REMARK    3  A    between atoms: C_14  and  O_16
REMARK    4  A    between atoms: O_16  and  C_17
REMARK    5  A    between atoms: C_17  and  C_19
REMARK    6  A    between atoms: C_17  and  C_20
REMARK    7  A    between atoms: N_22  and  C_23
REMARK                            x       y       z     vdW  Elec       q    Type
REMARK                         _______ _______ _______ _____ _____    ______ ____
ROOT
ATOM      1  O   UNL     1       1.388  -0.693   0.297  0.00  0.00    -0.449 OA
ENDROOT
BRANCH   1   2
ATOM      2  C   UNL     1       0.268   0.058   0.326  0.00  0.00    +0.340 C 
ATOM      3  O   UNL     1      -0.820  -0.470   0.206  0.00  0.00    -0.245 OA
BRANCH   2  11
ATOM      4  C   UNL     1      -0.545   6.529  -1.368  0.00  0.00    +0.029 C 
ATOM      5  C   UNL     1      -0.807   6.602   0.138  0.00  0.00    +0.134 C 
ATOM      6  C   UNL     1      -1.980   5.728   0.489  0.00  0.00    +0.230 C 
ATOM      7  O   UNL     1      -3.078   6.239   0.550  0.00  0.00    -0.274 OA
ATOM      8  N   UNL     1      -1.879   4.424   0.735  0.00  0.00    -0.284 N 
ATOM      9  C   UNL     1      -0.711   3.666   0.701  0.00  0.00    +0.048 A 
ATOM     10  C   UNL     1      -0.796   2.294   0.527  0.00  0.00    +0.039 A 
ATOM     11  C   UNL     1       0.364   1.517   0.503  0.00  0.00    +0.061 A 
ATOM     12  C   UNL     1       1.618   2.123   0.642  0.00  0.00    +0.016 A 
ATOM     13  C   UNL     1       1.703   3.487   0.806  0.00  0.00    +0.017 A 
ATOM     14  C   UNL     1       0.549   4.259   0.835  0.00  0.00    +0.030 A 
ATOM     15  S   UNL     1       0.656   6.009   1.040  0.00  0.00    -0.111 S 
ATOM     16  H   UNL     1      -2.699   3.957   0.959  0.00  0.00    +0.155 HD
ENDBRANCH   2  11
ENDBRANCH   1   2
BRANCH   1  17
ATOM     17  C   UNL     1       1.218  -2.124   0.119  0.00  0.00    +0.259 C 
ATOM     18  C   UNL     1       1.081  -2.795   1.487  0.00  0.00    +0.062 C 
BRANCH  17  19
ATOM     19  C   UNL     1       2.417  -2.687  -0.599  0.00  0.00    +0.258 C 
ATOM     20  O   UNL     1       3.365  -1.972  -0.848  0.00  0.00    -0.271 OA
ATOM     21  N   UNL     1       2.435  -3.984  -0.965  0.00  0.00    -0.282 N 
ATOM     22  H   UNL     1       1.712  -4.573  -0.699  0.00  0.00    +0.155 HD
BRANCH  21  23
ATOM     23  C   UNL     1       3.498  -4.480  -1.728  0.00  0.00    +0.034 A 
ATOM     24  C   UNL     1       4.115  -3.654  -2.675  0.00  0.00    +0.024 A 
ATOM     25  C   UNL     1       5.153  -4.108  -3.426  0.00  0.00    +0.010 A 
ATOM     26  C   UNL     1       5.611  -5.428  -3.264  0.00  0.00    -0.018 A 
ATOM     27  C   UNL     1       6.678  -5.926  -4.032  0.00  0.00    +0.008 A 
ATOM     28  C   UNL     1       7.098  -7.208  -3.850  0.00  0.00    +0.001 A 
ATOM     29  C   UNL     1       6.485  -8.038  -2.914  0.00  0.00    +0.001 A 
ATOM     30  C   UNL     1       5.449  -7.591  -2.153  0.00  0.00    +0.008 A 
ATOM     31  C   UNL     1       4.988  -6.272  -2.311  0.00  0.00    -0.016 A 
ATOM     32  C   UNL     1       3.921  -5.777  -1.543  0.00  0.00    +0.031 A 
ENDBRANCH  21  23
ENDBRANCH  17  19
ENDBRANCH   1  17
TORSDOF 5
