REMARK  Name = ZINC38635244
REMARK  5 active torsions:
REMARK  status: ('A' for Active; 'I' for Inactive)
REMARK    1  A    between atoms: C_1  and  C_2
REMARK    2  A    between atoms: C_2  and  C_5
REMARK    3  A    between atoms: N_3  and  O_4
REMARK    4  A    between atoms: C_5  and  C_8
REMARK    5  A    between atoms: N_6  and  O_7
REMARK                            x       y       z     vdW  Elec       q    Type
REMARK                         _______ _______ _______ _____ _____    ______ ____
ROOT
ATOM      1  C   UNL     1      -0.000  -0.732  -1.274  0.00  0.00    +0.118 C 
ATOM      2  N   UNL     1      -0.066   0.088  -2.275  0.00  0.00    -0.089 NA
ENDROOT
BRANCH   1   4
ATOM      3  C   UNL     1       0.069   1.276   0.341  0.00  0.00    +0.071 C 
ATOM      4  C   UNL     1       0.072  -0.211   0.098  0.00  0.00    +0.102 C 
ATOM      5  N   UNL     1       0.138  -1.031   1.098  0.00  0.00    -0.090 NA
BRANCH   5   6
ATOM      6  O   UNL     1       0.141  -2.428   0.870  0.00  0.00    -0.409 OA
ATOM      7  H   UNL     1       0.193  -2.958   1.677  0.00  0.00    +0.328 HD
ENDBRANCH   5   6
ENDBRANCH   1   4
BRANCH   2   8
ATOM      8  O   UNL     1      -0.001  -0.407  -3.600  0.00  0.00    -0.409 OA
ATOM      9  H   UNL     1      -0.058   0.279  -4.279  0.00  0.00    +0.328 HD
ENDBRANCH   2   8
BRANCH   1  10
ATOM     10  C   UNL     1       0.003  -2.219  -1.517  0.00  0.00    +0.169 C 
ATOM     11 CL   UNL     1       0.093  -2.538  -3.289  0.00  0.00    -0.119 Cl
ENDBRANCH   1  10
TORSDOF 4
