REMARK  Name = ZINC09079747
REMARK  11 active torsions:
REMARK  status: ('A' for Active; 'I' for Inactive)
REMARK    1  A    between atoms: C_1  and  N_2
REMARK    2  A    between atoms: N_2  and  C_3
REMARK    3  A    between atoms: N_2  and  C_4
REMARK    4  A    between atoms: C_7  and  C_10
REMARK    5  A    between atoms: C_10  and  C_12
REMARK    6  A    between atoms: C_10  and  S_28
REMARK    7  A    between atoms: C_12  and  N_13
REMARK    8  A    between atoms: C_14  and  C_16
REMARK    9  A    between atoms: N_18  and  C_19
REMARK   10  A    between atoms: N_18  and  C_20
REMARK   11  A    between atoms: S_28  and  C_31
REMARK                            x       y       z     vdW  Elec       q    Type
REMARK                         _______ _______ _______ _____ _____    ______ ____
ROOT
ATOM      1  C   UNL     1       3.447   2.176   1.151  0.00  0.00    +0.183 C 
ENDROOT
BRANCH   1   5
ATOM      2  C   UNL     1       7.095   0.078   1.899  0.00  0.00    +0.029 A 
ATOM      3  C   UNL     1       6.987   0.916   0.796  0.00  0.00    +0.023 A 
ATOM      4  C   UNL     1       5.807   1.593   0.558  0.00  0.00    +0.007 A 
ATOM      5  C   UNL     1       4.733   1.436   1.415  0.00  0.00    -0.021 A 
ATOM      6  C   UNL     1       4.838   0.607   2.516  0.00  0.00    +0.007 A 
ATOM      7  C   UNL     1       6.014  -0.077   2.758  0.00  0.00    +0.023 A 
BRANCH   2   9
ATOM      8  C   UNL     1       9.426  -0.442   1.237  0.00  0.00    +0.129 C 
ATOM      9  N   UNL     1       8.287  -0.607   2.143  0.00  0.00    -0.336 N 
ATOM     10  C   UNL     1       8.398  -1.491   3.306  0.00  0.00    +0.129 C 
ENDBRANCH   2   9
ENDBRANCH   1   5
BRANCH   1  11
ATOM     11  S   UNL     1       3.071   3.256   2.560  0.00  0.00    +0.011 S 
ATOM     12  O   UNL     1       4.191   4.076   2.861  0.00  0.00    -0.168 OA
ATOM     13  O   UNL     1       1.777   3.824   2.409  0.00  0.00    -0.168 OA
BRANCH  11  14
ATOM     14  C   UNL     1       2.926   2.168   3.938  0.00  0.00    +0.126 A 
ATOM     15  C   UNL     1       3.887   1.744   4.795  0.00  0.00    +0.035 A 
ATOM     16  C   UNL     1       3.539   0.883   5.819  0.00  0.00    +0.009 A 
ATOM     17  C   UNL     1       2.250   0.480   5.930  0.00  0.00    +0.047 A 
ATOM     18  S   UNL     1       1.478   1.332   4.564  0.00  0.00    -0.078 S 
ENDBRANCH  11  14
ENDBRANCH   1  11
BRANCH   1  19
ATOM     19  C   UNL     1       2.309   1.170   0.962  0.00  0.00    +0.136 C 
BRANCH  19  20
ATOM     20  N   UNL     1       1.059   1.889   0.706  0.00  0.00    -0.305 N 
ATOM     21  C   UNL     1      -0.084   1.204   0.507  0.00  0.00    +0.299 C 
ATOM     22  O   UNL     1      -0.078  -0.009   0.540  0.00  0.00    -0.265 OA
ATOM     23  H   UNL     1       1.054   2.859   0.679  0.00  0.00    +0.149 HD
BRANCH  21  24
ATOM     24  C   UNL     1      -1.358   1.937   0.239  0.00  0.00    +0.302 C 
ATOM     25  O   UNL     1      -1.388   3.148   0.310  0.00  0.00    -0.265 OA
ATOM     26  N   UNL     1      -2.475   1.254  -0.081  0.00  0.00    -0.292 N 
ATOM     27  C   UNL     1      -2.460  -0.211  -0.089  0.00  0.00    +0.133 C 
BRANCH  26  28
ATOM     28  C   UNL     1      -3.704   1.976  -0.421  0.00  0.00    +0.099 C 
ATOM     29  C   UNL     1      -4.141   1.612  -1.850  0.00  0.00    +0.046 C 
ATOM     30  C   UNL     1      -5.586   2.107  -2.101  0.00  0.00    +0.168 C 
ATOM     31  S   UNL     1      -6.321   2.080  -0.416  0.00  0.00    -0.029 S 
ATOM     32  O   UNL     1      -6.677   3.405  -0.045  0.00  0.00    -0.174 OA
ATOM     33  O   UNL     1      -7.299   1.050  -0.354  0.00  0.00    -0.174 OA
ATOM     34  C   UNL     1      -4.843   1.562   0.554  0.00  0.00    +0.188 C 
ENDBRANCH  26  28
ENDBRANCH  21  24
ENDBRANCH  19  20
ENDBRANCH   1  19
TORSDOF 8
