REMARK  Name = ZINC36492623
REMARK  8 active torsions:
REMARK  status: ('A' for Active; 'I' for Inactive)
REMARK    1  A    between atoms: C_3  and  C_36
REMARK    2  A    between atoms: C_6  and  C_7
REMARK    3  A    between atoms: C_7  and  C_9
REMARK    4  A    between atoms: C_7  and  N_18
REMARK    5  A    between atoms: N_11  and  C_12
REMARK    6  A    between atoms: N_18  and  C_19
REMARK    7  A    between atoms: C_25  and  C_27
REMARK    8  A    between atoms: C_30  and  N_33
REMARK                            x       y       z     vdW  Elec       q    Type
REMARK                         _______ _______ _______ _____ _____    ______ ____
ROOT
ATOM      1  C   UNL     1      -1.602  -1.064   0.305  0.00  0.00    +0.193 C 
ENDROOT
BRANCH   1   7
ATOM      2  C   UNL     1      -0.661  -0.801   2.610  0.00  0.00    +0.006 A 
ATOM      3  C   UNL     1      -0.175  -0.019   3.640  0.00  0.00    +0.013 A 
ATOM      4  C   UNL     1      -0.099   1.353   3.490  0.00  0.00    +0.055 A 
ATOM      5  C   UNL     1      -0.509   1.943   2.309  0.00  0.00    +0.013 A 
ATOM      6  C   UNL     1      -0.995   1.160   1.278  0.00  0.00    +0.006 A 
ATOM      7  C   UNL     1      -1.072  -0.212   1.429  0.00  0.00    -0.018 A 
BRANCH   4   8
ATOM      8  C   UNL     1       0.430   2.206   4.614  0.00  0.00    +0.417 C 
ATOM      9  F   UNL     1       1.815   2.349   4.478  0.00  0.00    -0.166 F 
ATOM     10  F   UNL     1      -0.176   3.466   4.569  0.00  0.00    -0.166 F 
ATOM     11  F   UNL     1       0.143   1.594   5.839  0.00  0.00    -0.166 F 
ENDBRANCH   4   8
ENDBRANCH   1   7
BRANCH   1  12
ATOM     12  C   UNL     1      -1.861  -2.459   0.812  0.00  0.00    +0.238 C 
ATOM     13  O   UNL     1      -1.330  -3.408   0.276  0.00  0.00    -0.273 OA
ATOM     14  N   UNL     1      -2.684  -2.653   1.862  0.00  0.00    -0.311 N 
ATOM     15  H   UNL     1      -3.109  -1.894   2.291  0.00  0.00    +0.149 HD
BRANCH  14  16
ATOM     16  C   UNL     1      -2.936  -4.009   2.355  0.00  0.00    +0.073 C 
ATOM     17  C   UNL     1      -4.064  -4.646   1.541  0.00  0.00    +0.022 C 
ATOM     18  C   UNL     1      -4.327  -6.063   2.056  0.00  0.00    +0.002 C 
ATOM     19  C   UNL     1      -4.733  -6.002   3.530  0.00  0.00    +0.000 C 
ATOM     20  C   UNL     1      -3.605  -5.365   4.344  0.00  0.00    +0.002 C 
ATOM     21  C   UNL     1      -3.341  -3.949   3.829  0.00  0.00    +0.022 C 
ENDBRANCH  14  16
ENDBRANCH   1  12
BRANCH   1  22
ATOM     22  N   UNL     1      -0.616  -1.114  -0.777  0.00  0.00    -0.279 N 
ATOM     23  C   UNL     1      -1.023  -1.082  -2.062  0.00  0.00    +0.248 C 
ATOM     24  O   UNL     1      -2.196  -0.898  -2.324  0.00  0.00    -0.270 OA
BRANCH  22  25
ATOM     25  C   UNL     1       0.813  -1.197  -0.464  0.00  0.00    +0.077 C 
ATOM     26  C   UNL     1       1.056  -2.357   0.503  0.00  0.00    +0.022 C 
ATOM     27  C   UNL     1       2.548  -2.444   0.831  0.00  0.00    +0.002 C 
ATOM     28  C   UNL     1       3.004  -1.135   1.480  0.00  0.00    +0.000 C 
ATOM     29  C   UNL     1       2.761   0.025   0.512  0.00  0.00    +0.002 C 
ATOM     30  C   UNL     1       1.269   0.112   0.184  0.00  0.00    +0.022 C 
ENDBRANCH  22  25
BRANCH  23  31
ATOM     31  C   UNL     1      -0.043  -1.272  -3.153  0.00  0.00    +0.037 A 
ATOM     32  C   UNL     1       0.802  -2.383  -3.151  0.00  0.00    +0.015 A 
ATOM     33  C   UNL     1       1.714  -2.554  -4.172  0.00  0.00    +0.033 A 
ATOM     34  C   UNL     1       1.792  -1.628  -5.196  0.00  0.00    +0.126 A 
ATOM     35  C   UNL     1       0.957  -0.524  -5.204  0.00  0.00    +0.033 A 
ATOM     36  C   UNL     1       0.037  -0.344  -4.192  0.00  0.00    +0.015 A 
BRANCH  34  37
ATOM     37  N   UNL     1       2.772  -1.818  -6.288  0.00  0.00    +0.056 N 
ATOM     38  O   UNL     1       3.503  -2.781  -6.284  0.00  0.00    -0.126 OA
ATOM     39  O   UNL     1       2.843  -1.010  -7.185  0.00  0.00    -0.126 OA
ENDBRANCH  34  37
ENDBRANCH  23  31
ENDBRANCH   1  22
TORSDOF 8
