REMARK  Name = ZINC14018625
REMARK  5 active torsions:
REMARK  status: ('A' for Active; 'I' for Inactive)
REMARK    1  A    between atoms: C_3  and  N_11
REMARK    2  A    between atoms: C_6  and  N_7
REMARK    3  A    between atoms: N_11  and  C_12
REMARK    4  A    between atoms: C_12  and  N_14
REMARK    5  A    between atoms: C_15  and  C_17
REMARK                            x       y       z     vdW  Elec       q    Type
REMARK                         _______ _______ _______ _____ _____    ______ ____
ROOT
ATOM      1  N   UNL     1       2.323   0.998  -0.015  0.00  0.00    -0.295 N 
ATOM      2  H   UNL     1       2.338   0.059   0.232  0.00  0.00    +0.154 HD
ENDROOT
BRANCH   1   5
ATOM      3  C   UNL     1       4.834   3.659   0.355  0.00  0.00    +0.034 A 
ATOM      4  C   UNL     1       3.649   2.957   0.469  0.00  0.00    +0.027 A 
ATOM      5  C   UNL     1       3.522   1.710  -0.128  0.00  0.00    +0.051 A 
ATOM      6  C   UNL     1       4.590   1.169  -0.833  0.00  0.00    +0.064 A 
ATOM      7  C   UNL     1       5.771   1.878  -0.947  0.00  0.00    +0.054 A 
ATOM      8  C   UNL     1       5.893   3.120  -0.352  0.00  0.00    +0.128 A 
ATOM      9 CL   UNL     1       4.439  -0.394  -1.575  0.00  0.00    -0.082 Cl
BRANCH   8  10
ATOM     10  N   UNL     1       7.162   3.874  -0.470  0.00  0.00    +0.056 N 
ATOM     11  O   UNL     1       7.271   4.968   0.054  0.00  0.00    -0.126 OA
ATOM     12  O   UNL     1       8.096   3.401  -1.092  0.00  0.00    -0.126 OA
ENDBRANCH   8  10
ENDBRANCH   1   5
BRANCH   1  13
ATOM     13  C   UNL     1       1.148   1.615  -0.248  0.00  0.00    +0.141 C 
ATOM     14  S   UNL     1       1.113   3.295  -0.574  0.00  0.00    -0.018 S 
BRANCH  13  15
ATOM     15  N   UNL     1      -0.000   0.909  -0.224  0.00  0.00    -0.261 N 
ATOM     16  C   UNL     1      -1.175   1.525  -0.463  0.00  0.00    +0.285 C 
ATOM     17  O   UNL     1      -1.200   2.719  -0.695  0.00  0.00    -0.266 OA
ATOM     18  H   UNL     1       0.019  -0.043  -0.039  0.00  0.00    +0.157 HD
BRANCH  16  19
ATOM     19  C   UNL     1      -2.422   0.757  -0.443  0.00  0.00    +0.191 A 
ATOM     20  C   UNL     1      -3.675   1.254  -0.667  0.00  0.00    +0.056 A 
ATOM     21  C   UNL     1      -4.564   0.176  -0.552  0.00  0.00    +0.058 A 
ATOM     22  C   UNL     1      -3.824  -0.921  -0.266  0.00  0.00    +0.171 A 
ATOM     23  O   UNL     1      -2.534  -0.567  -0.206  0.00  0.00    -0.444 OA
ATOM     24 BR   UNL     1      -4.501  -2.667  -0.000  0.00  0.00    -0.008 Br
ENDBRANCH  16  19
ENDBRANCH  13  15
ENDBRANCH   1  13
TORSDOF 5
