REMARK  Name = ZINC15227830
REMARK  6 active torsions:
REMARK  status: ('A' for Active; 'I' for Inactive)
REMARK    1  A    between atoms: C_1  and  C_2
REMARK    2  A    between atoms: C_7  and  C_12
REMARK    3  A    between atoms: C_13  and  C_23
REMARK    4  A    between atoms: N_15  and  C_17
REMARK    5  A    between atoms: N_27  and  C_31
REMARK    6  A    between atoms: C_31  and  C_32
REMARK                            x       y       z     vdW  Elec       q    Type
REMARK                         _______ _______ _______ _____ _____    ______ ____
ROOT
ATOM      1  C   UNL     1       3.929   5.937   6.633  0.00  0.00    +0.100 A 
ATOM      2  C   UNL     1       2.962   5.565   5.594  0.00  0.00    +0.022 A 
ATOM      3  C   UNL     1       1.708   5.737   6.151  0.00  0.00    +0.123 A 
ATOM      4  N   UNL     1       1.875   6.178   7.412  0.00  0.00    -0.239 N 
ATOM      5  N   UNL     1       3.239   6.299   7.691  0.00  0.00    -0.166 NA
ENDROOT
BRANCH   1  11
ATOM      6  C   UNL     1       9.981   8.265   5.508  0.00  0.00    +0.052 C 
ATOM      7  C   UNL     1       9.856   7.347   6.724  0.00  0.00    +0.175 C 
ATOM      8  C   UNL     1       8.638   7.747   7.590  0.00  0.00    +0.083 C 
ATOM      9  C   UNL     1       7.551   6.846   7.037  0.00  0.00    -0.002 A 
ATOM     10  C   UNL     1       6.181   6.880   7.151  0.00  0.00    +0.017 A 
ATOM     11  C   UNL     1       5.406   5.912   6.511  0.00  0.00    +0.003 A 
ATOM     12  C   UNL     1       6.032   4.924   5.751  0.00  0.00    +0.014 A 
ATOM     13  C   UNL     1       7.404   4.899   5.641  0.00  0.00    +0.046 A 
ATOM     14  C   UNL     1       8.181   5.860   6.287  0.00  0.00    +0.124 A 
ATOM     15  O   UNL     1       9.534   6.004   6.323  0.00  0.00    -0.488 OA
ENDBRANCH   1  11
BRANCH   2  16
ATOM     16  C   UNL     1       3.264   5.098   4.237  0.00  0.00    +0.032 C 
ATOM     17  C   UNL     1       2.253   4.785   3.385  0.00  0.00    +0.077 C 
ATOM     18  C   UNL     1       2.313   4.302   1.993  0.00  0.00    +0.259 C 
ATOM     19  O   UNL     1       3.374   4.121   1.425  0.00  0.00    -0.269 OA
ATOM     20  N   UNL     1       1.157   4.074   1.394  0.00  0.00    -0.251 N 
ATOM     21  C   UNL     1      -0.017   4.279   2.026  0.00  0.00    +0.121 C 
ATOM     22  S   UNL     1      -1.603   4.051   1.424  0.00  0.00    -0.027 S 
ATOM     23  S   UNL     1       0.485   4.845   3.643  0.00  0.00    -0.061 S 
BRANCH  20  24
ATOM     24  C   UNL     1       1.151   3.592   0.010  0.00  0.00    +0.150 C 
BRANCH  24  25
ATOM     25  C   UNL     1       1.171   2.086   0.002  0.00  0.00    -0.030 A 
ATOM     26  C   UNL     1      -0.017   1.378   0.010  0.00  0.00    +0.005 A 
ATOM     27  C   UNL     1       0.002  -0.004   0.002  0.00  0.00    +0.000 A 
ATOM     28  C   UNL     1       1.208  -0.679  -0.014  0.00  0.00    +0.000 A 
ATOM     29  C   UNL     1       2.396   0.029  -0.021  0.00  0.00    +0.000 A 
ATOM     30  C   UNL     1       2.377   1.411  -0.014  0.00  0.00    +0.005 A 
ENDBRANCH  24  25
ENDBRANCH  20  24
ENDBRANCH   2  16
BRANCH   4  31
ATOM     31  C   UNL     1       0.839   6.471   8.308  0.00  0.00    +0.065 A 
ATOM     32  C   UNL     1      -0.485   6.317   7.916  0.00  0.00    +0.028 A 
ATOM     33  C   UNL     1      -1.504   6.603   8.803  0.00  0.00    +0.002 A 
ATOM     34  C   UNL     1      -1.208   7.051  10.077  0.00  0.00    +0.000 A 
ATOM     35  C   UNL     1       0.109   7.210  10.469  0.00  0.00    +0.002 A 
ATOM     36  C   UNL     1       1.133   6.922   9.588  0.00  0.00    +0.028 A 
ENDBRANCH   4  31
TORSDOF 5
