REMARK  Name = ZINC14161001
REMARK  8 active torsions:
REMARK  status: ('A' for Active; 'I' for Inactive)
REMARK    1  A    between atoms: C_1  and  C_2
REMARK    2  A    between atoms: C_7  and  N_8
REMARK    3  A    between atoms: N_8  and  C_9
REMARK    4  A    between atoms: C_9  and  N_11
REMARK    5  A    between atoms: C_16  and  C_21
REMARK    6  A    between atoms: C_18  and  C_20
REMARK    7  A    between atoms: N_25  and  C_28
REMARK    8  A    between atoms: C_28  and  C_29
REMARK                            x       y       z     vdW  Elec       q    Type
REMARK                         _______ _______ _______ _____ _____    ______ ____
ROOT
ATOM      1  N   UNL     1      10.131  -3.117  -0.020  0.00  0.00    -0.163 NA
ATOM      2  C   UNL     1       8.906  -3.363  -0.452  0.00  0.00    +0.180 C 
ATOM      3  N   UNL     1       8.548  -4.637  -0.802  0.00  0.00    -0.258 N 
ATOM      4  C   UNL     1       7.297  -4.878  -1.356  0.00  0.00    +0.222 A 
ATOM      5  N   UNL     1       6.427  -3.884  -1.445  0.00  0.00    -0.219 NA
ATOM      6  C   UNL     1       5.230  -4.079  -1.972  0.00  0.00    +0.044 A 
ATOM      7  C   UNL     1       4.887  -5.344  -2.423  0.00  0.00    +0.046 A 
ATOM      8  C   UNL     1       5.820  -6.363  -2.309  0.00  0.00    +0.044 A 
ATOM      9  N   UNL     1       7.002  -6.098  -1.777  0.00  0.00    -0.219 NA
ATOM     10  C   UNL     1       5.492  -7.754  -2.787  0.00  0.00    +0.066 C 
ATOM     11  C   UNL     1       4.248  -2.940  -2.075  0.00  0.00    +0.066 C 
ATOM     12  N   UNL     1       7.999  -2.348  -0.547  0.00  0.00    -0.302 N 
ATOM     13  C   UNL     1       7.988  -1.454  -1.716  0.00  0.00    +0.123 C 
ATOM     14  C   UNL     1       8.007  -0.004  -1.220  0.00  0.00    +0.103 C 
ATOM     15  N   UNL     1       6.904   0.200  -0.270  0.00  0.00    -0.295 NA
ATOM     16  C   UNL     1       7.066  -0.642   0.923  0.00  0.00    +0.103 C 
ATOM     17  C   UNL     1       7.008  -2.118   0.515  0.00  0.00    +0.123 C 
ATOM     18  H   UNL     1       9.250  -5.469  -0.646  0.00  0.00    +0.157 HD
ENDROOT
BRANCH   1  19
ATOM     19  C   UNL     1      10.428  -1.921   0.509  0.00  0.00    +0.161 C 
ATOM     20  S   UNL     1       9.726  -1.445   1.996  0.00  0.00    -0.016 S 
BRANCH  19  21
ATOM     21  N   UNL     1      11.279  -1.094  -0.130  0.00  0.00    -0.295 N 
ATOM     22  H   UNL     1      11.656  -1.358  -1.129  0.00  0.00    +0.154 HD
BRANCH  21  29
ATOM     23  C   UNL     1      11.370   1.260  -1.725  0.00  0.00    +0.045 C 
ATOM     24  C   UNL     1      11.741   1.272  -0.265  0.00  0.00    -0.029 A 
ATOM     25  C   UNL     1      12.140   2.449   0.338  0.00  0.00    +0.005 A 
ATOM     26  C   UNL     1      12.480   2.461   1.678  0.00  0.00    +0.000 A 
ATOM     27  C   UNL     1      12.422   1.295   2.420  0.00  0.00    +0.002 A 
ATOM     28  C   UNL     1      12.019   0.116   1.825  0.00  0.00    +0.023 A 
ATOM     29  C   UNL     1      11.682   0.099   0.477  0.00  0.00    +0.036 A 
ENDBRANCH  21  29
ENDBRANCH  19  21
ENDBRANCH   1  19
BRANCH  15  30
ATOM     30  C   UNL     1       6.781   1.617   0.098  0.00  0.00    +0.119 C 
BRANCH  30  31
ATOM     31  C   UNL     1       5.504   1.826   0.869  0.00  0.00    -0.030 A 
ATOM     32  C   UNL     1       5.503   1.707   2.247  0.00  0.00    +0.009 A 
ATOM     33  C   UNL     1       4.333   1.898   2.959  0.00  0.00    +0.050 A 
ATOM     34  C   UNL     1       3.159   2.210   2.293  0.00  0.00    +0.166 A 
ATOM     35  C   UNL     1       3.161   2.331   0.905  0.00  0.00    +0.167 A 
ATOM     36  C   UNL     1       4.336   2.138   0.198  0.00  0.00    +0.054 A 
ATOM     37  O   UNL     1       1.897   2.640   0.493  0.00  0.00    -0.453 OA
ATOM     38  C   UNL     1       1.212   3.109   1.670  0.00  0.00    +0.466 C 
ATOM     39  O   UNL     1       1.894   2.444   2.750  0.00  0.00    -0.453 OA
ENDBRANCH  30  31
ENDBRANCH  15  30
TORSDOF 5
