REMARK  Name = ZINC43468015
REMARK  2 active torsions:
REMARK  status: ('A' for Active; 'I' for Inactive)
REMARK    1  A    between atoms: C_4  and  N_8
REMARK    2  A    between atoms: N_11  and  C_12
REMARK                            x       y       z     vdW  Elec       q    Type
REMARK                         _______ _______ _______ _____ _____    ______ ____
ROOT
ATOM      1  N   UNL     1       3.627  -0.653  -0.036  0.00  0.00    -0.265 N 
ATOM      2  C   UNL     1       3.686  -1.941   0.355  0.00  0.00    +0.304 C 
ATOM      3  O   UNL     1       2.664  -2.538   0.636  0.00  0.00    -0.252 OA
ATOM      4  N   UNL     1       4.876  -2.567   0.437  0.00  0.00    -0.294 N 
ATOM      5  H   UNL     1       4.432  -0.198  -0.331  0.00  0.00    +0.157 HD
ATOM      6  H   UNL     1       5.691  -2.091   0.213  0.00  0.00    +0.151 HD
ENDROOT
BRANCH   4   7
ATOM      7  C   UNL     1       4.940  -3.967   0.863  0.00  0.00    +0.037 C 
ATOM      8  C   UNL     1       4.356  -4.099   2.271  0.00  0.00    +0.029 C 
ATOM      9  C   UNL     1       4.422  -5.562   2.715  0.00  0.00    -0.008 C 
ATOM     10  C   UNL     1       5.880  -6.027   2.722  0.00  0.00    +0.007 C 
ATOM     11  C   UNL     1       6.464  -5.895   1.314  0.00  0.00    -0.008 C 
ATOM     12  C   UNL     1       6.397  -4.433   0.869  0.00  0.00    +0.029 C 
ATOM     13  C   UNL     1       5.656  -6.760   0.344  0.00  0.00    +0.007 C 
ATOM     14  C   UNL     1       4.199  -6.295   0.337  0.00  0.00    -0.008 C 
ATOM     15  C   UNL     1       3.615  -6.427   1.745  0.00  0.00    +0.007 C 
ATOM     16  C   UNL     1       4.132  -4.833  -0.107  0.00  0.00    +0.029 C 
ENDBRANCH   4   7
BRANCH   1  20
ATOM     17  C   UNL     1      -0.015   1.381   0.016  0.00  0.00    +0.006 A 
ATOM     18  C   UNL     1       0.783   1.367   1.145  0.00  0.00    +0.040 A 
ATOM     19  C   UNL     1       1.991   0.693   1.132  0.00  0.00    +0.147 A 
ATOM     20  C   UNL     1       2.403   0.031  -0.019  0.00  0.00    +0.106 A 
ATOM     21  C   UNL     1       1.598   0.047  -1.151  0.00  0.00    +0.147 A 
ATOM     22  C   UNL     1       0.391   0.723  -1.130  0.00  0.00    +0.040 A 
ATOM     23  F   UNL     1       1.994  -0.595  -2.272  0.00  0.00    -0.203 F 
ATOM     24  F   UNL     1       2.771   0.680   2.235  0.00  0.00    -0.203 F 
ENDBRANCH   1  20
TORSDOF 2
