REMARK  Name = ZINC03190808
REMARK  6 active torsions:
REMARK  status: ('A' for Active; 'I' for Inactive)
REMARK    1  A    between atoms: C_1  and  N_2
REMARK    2  A    between atoms: C_4  and  C_5
REMARK    3  A    between atoms: C_4  and  C_7
REMARK    4  A    between atoms: N_11  and  C_12
REMARK    5  A    between atoms: C_25  and  C_29
REMARK    6  A    between atoms: C_25  and  C_35
REMARK                            x       y       z     vdW  Elec       q    Type
REMARK                         _______ _______ _______ _____ _____    ______ ____
ROOT
ATOM      1  C   UNL     1      -2.418   0.916   0.061  0.00  0.00    +0.140 C 
ATOM      2  N   UNL     1      -1.237   1.784   0.068  0.00  0.00    -0.252 N 
ATOM      3  C   UNL     1      -1.403   3.155  -0.026  0.00  0.00    +0.095 C 
ATOM      4  C   UNL     1      -2.524   3.708  -0.628  0.00  0.00    +0.124 C 
ATOM      5  S   UNL     1      -0.119   4.172   0.650  0.00  0.00    -0.069 S 
ATOM      6  C   UNL     1       1.300   3.307  -0.080  0.00  0.00    +0.209 C 
ATOM      7  N   UNL     1       1.144   1.871   0.145  0.00  0.00    -0.273 N 
ATOM      8  C   UNL     1      -0.024   1.237   0.171  0.00  0.00    +0.308 C 
ATOM      9  O   UNL     1       0.018   0.028   0.296  0.00  0.00    -0.252 OA
ATOM     10  H   UNL     1       1.947   1.345   0.286  0.00  0.00    +0.152 HD
ENDROOT
BRANCH   4  11
ATOM     11  C   UNL     1      -2.739   5.166  -0.588  0.00  0.00    +0.183 A 
ATOM     12  N   UNL     1      -1.959   6.056  -0.015  0.00  0.00    -0.126 NA
ATOM     13  N   UNL     1      -2.446   7.235  -0.174  0.00  0.00    -0.112 NA
ATOM     14  C   UNL     1      -3.568   7.175  -0.848  0.00  0.00    +0.225 A 
ATOM     15  N   UNL     1      -3.799   5.855  -1.138  0.00  0.00    -0.263 N 
ATOM     16  N   UNL     1      -4.373   8.248  -1.204  0.00  0.00    -0.295 N 
ATOM     17  C   UNL     1      -3.628   9.217  -2.021  0.00  0.00    +0.136 C 
ATOM     18  C   UNL     1      -4.567  10.352  -2.440  0.00  0.00    +0.179 C 
ATOM     19  O   UNL     1      -5.133  10.951  -1.271  0.00  0.00    -0.377 OA
ATOM     20  C   UNL     1      -5.866  10.036  -0.452  0.00  0.00    +0.179 C 
ATOM     21  C   UNL     1      -4.940   8.898  -0.013  0.00  0.00    +0.136 C 
BRANCH  15  22
ATOM     22  C   UNL     1      -4.883   5.318  -1.845  0.00  0.00    +0.051 A 
ATOM     23  C   UNL     1      -5.008   5.551  -3.208  0.00  0.00    +0.026 A 
ATOM     24  C   UNL     1      -6.075   5.016  -3.904  0.00  0.00    +0.002 A 
ATOM     25  C   UNL     1      -7.024   4.259  -3.242  0.00  0.00    +0.000 A 
ATOM     26  C   UNL     1      -6.906   4.031  -1.883  0.00  0.00    +0.002 A 
ATOM     27  C   UNL     1      -5.838   4.558  -1.183  0.00  0.00    +0.026 A 
ENDBRANCH  15  22
ENDBRANCH   4  11
BRANCH   6  28
ATOM     28  C   UNL     1       1.356   3.583  -1.561  0.00  0.00    -0.005 A 
ATOM     29  C   UNL     1       1.782   2.597  -2.432  0.00  0.00    +0.007 A 
ATOM     30  C   UNL     1       1.829   2.849  -3.790  0.00  0.00    +0.000 A 
ATOM     31  C   UNL     1       1.459   4.089  -4.277  0.00  0.00    +0.000 A 
ATOM     32  C   UNL     1       1.038   5.076  -3.405  0.00  0.00    +0.000 A 
ATOM     33  C   UNL     1       0.987   4.823  -2.047  0.00  0.00    +0.007 A 
ENDBRANCH   6  28
BRANCH   6  34
ATOM     34  C   UNL     1       2.592   3.792   0.581  0.00  0.00    +0.425 C 
ATOM     35  F   UNL     1       3.683   3.114   0.027  0.00  0.00    -0.167 F 
ATOM     36  F   UNL     1       2.739   5.167   0.364  0.00  0.00    -0.167 F 
ATOM     37  F   UNL     1       2.535   3.541   1.956  0.00  0.00    -0.167 F 
ENDBRANCH   6  34
BRANCH   4  38
ATOM     38  C   UNL     1      -3.472   2.863  -1.290  0.00  0.00    +0.105 C 
ATOM     39  N   UNL     1      -4.224   2.192  -1.814  0.00  0.00    -0.191 NA
ENDBRANCH   4  38
TORSDOF 5
