REMARK  Name = ZINC09090461
REMARK  8 active torsions:
REMARK  status: ('A' for Active; 'I' for Inactive)
REMARK    1  A    between atoms: C_1  and  C_2
REMARK    2  A    between atoms: C_2  and  N_3
REMARK    3  A    between atoms: C_7  and  C_24
REMARK    4  A    between atoms: C_9  and  C_17
REMARK    5  A    between atoms: C_11  and  C_12
REMARK    6  A    between atoms: C_11  and  O_16
REMARK    7  A    between atoms: C_17  and  C_19
REMARK    8  A    between atoms: C_27  and  N_30
REMARK                            x       y       z     vdW  Elec       q    Type
REMARK                         _______ _______ _______ _____ _____    ______ ____
ROOT
ATOM      1  N   UNL     1      -2.313   7.635  -0.181  0.00  0.00    -0.250 N 
ATOM      2  C   UNL     1      -2.176   7.463  -1.504  0.00  0.00    +0.305 C 
ATOM      3  O   UNL     1      -1.724   8.376  -2.168  0.00  0.00    -0.253 OA
ATOM      4  N   UNL     1      -2.519   6.324  -2.124  0.00  0.00    -0.292 N 
ATOM      5  C   UNL     1      -3.079   5.193  -1.384  0.00  0.00    +0.120 C 
ATOM      6  C   UNL     1      -2.542   5.215   0.051  0.00  0.00    +0.145 C 
ATOM      7  C   UNL     1      -2.863   6.580   0.671  0.00  0.00    +0.246 C 
ATOM      8  H   UNL     1      -2.392   6.249  -3.083  0.00  0.00    +0.151 HD
ENDROOT
BRANCH   5   9
ATOM      9  C   UNL     1      -2.677   3.904  -2.052  0.00  0.00    -0.026 A 
ATOM     10  C   UNL     1      -1.403   3.762  -2.570  0.00  0.00    +0.008 A 
ATOM     11  C   UNL     1      -1.032   2.577  -3.178  0.00  0.00    +0.033 A 
ATOM     12  C   UNL     1      -1.938   1.538  -3.279  0.00  0.00    +0.126 A 
ATOM     13  C   UNL     1      -3.214   1.682  -2.766  0.00  0.00    +0.033 A 
ATOM     14  C   UNL     1      -3.583   2.865  -2.152  0.00  0.00    +0.008 A 
BRANCH  12  15
ATOM     15  N   UNL     1      -1.542   0.272  -3.934  0.00  0.00    +0.056 N 
ATOM     16  O   UNL     1      -2.341  -0.644  -4.023  0.00  0.00    -0.126 OA
ATOM     17  O   UNL     1      -0.418   0.145  -4.386  0.00  0.00    -0.126 OA
ENDBRANCH  12  15
ENDBRANCH   5   9
BRANCH   7  18
ATOM     18  C   UNL     1      -4.380   6.748   0.780  0.00  0.00    +0.436 C 
ATOM     19  F   UNL     1      -4.905   5.734   1.588  0.00  0.00    -0.166 F 
ATOM     20  F   UNL     1      -4.671   7.994   1.345  0.00  0.00    -0.166 F 
ATOM     21  F   UNL     1      -4.950   6.670  -0.495  0.00  0.00    -0.166 F 
ENDBRANCH   7  18
BRANCH   1  23
ATOM     22  C   UNL     1      -0.435   8.823   0.840  0.00  0.00    +0.024 C 
ATOM     23  C   UNL     1      -1.905   8.906   0.423  0.00  0.00    +0.109 C 
ENDBRANCH   1  23
BRANCH   7  24
ATOM     24  O   UNL     1      -2.278   6.663   1.972  0.00  0.00    -0.364 OA
ATOM     25  H   UNL     1      -2.441   7.502   2.424  0.00  0.00    +0.212 HD
ENDBRANCH   7  24
BRANCH   6  26
ATOM     26  C   UNL     1      -1.050   5.004   0.037  0.00  0.00    +0.180 C 
ATOM     27  O   UNL     1      -0.302   5.961   0.035  0.00  0.00    -0.291 OA
BRANCH  26  28
ATOM     28  C   UNL     1      -0.522   3.695   0.025  0.00  0.00    +0.055 A 
ATOM     29  C   UNL     1       0.807   3.285   0.011  0.00  0.00    +0.019 A 
ATOM     30  C   UNL     1       1.043   1.935   0.003  0.00  0.00    +0.008 A 
ATOM     31  C   UNL     1      -0.013   1.076   0.008  0.00  0.00    +0.046 A 
ATOM     32  S   UNL     1      -1.386   2.134   0.019  0.00  0.00    -0.094 S 
ENDBRANCH  26  28
ENDBRANCH   6  26
TORSDOF 7
