REMARK  Name = ZINC66533769
REMARK  6 active torsions:
REMARK  status: ('A' for Active; 'I' for Inactive)
REMARK    1  A    between atoms: C_1  and  O_2
REMARK    2  A    between atoms: O_2  and  C_3
REMARK    3  A    between atoms: C_9  and  O_11
REMARK    4  A    between atoms: O_11  and  C_12
REMARK    5  A    between atoms: C_12  and  C_14
REMARK    6  A    between atoms: C_17  and  N_24
REMARK                            x       y       z     vdW  Elec       q    Type
REMARK                         _______ _______ _______ _____ _____    ______ ____
ROOT
ATOM      1  C   UNL     1       0.325  -2.599  -4.047  0.00  0.00    +0.177 A 
ATOM      2  C   UNL     1       1.071  -3.591  -4.833  0.00  0.00    +0.036 A 
ATOM      3  C   UNL     1       1.564  -4.873  -4.604  0.00  0.00    +0.045 A 
ATOM      4  C   UNL     1       2.237  -5.523  -5.601  0.00  0.00    +0.127 A 
ATOM      5  C   UNL     1       2.431  -4.914  -6.835  0.00  0.00    +0.035 A 
ATOM      6  C   UNL     1       1.955  -3.656  -7.079  0.00  0.00    +0.030 A 
ATOM      7  C   UNL     1       1.267  -2.972  -6.083  0.00  0.00    +0.067 A 
ATOM      8  N   UNL     1       0.675  -1.739  -5.992  0.00  0.00    -0.276 N 
ATOM      9  H   UNL     1       0.654  -1.088  -6.710  0.00  0.00    +0.189 HD
ATOM     10  N   UNL     1       0.148  -1.559  -4.835  0.00  0.00    -0.166 NA
ENDROOT
BRANCH   4  11
ATOM     11  N   UNL     1       2.763  -6.886  -5.364  0.00  0.00    +0.056 N 
ATOM     12  O   UNL     1       2.597  -7.420  -4.293  0.00  0.00    -0.126 OA
ATOM     13  O   UNL     1       3.359  -7.465  -6.242  0.00  0.00    -0.126 OA
ENDBRANCH   4  11
BRANCH   1  14
ATOM     14  C   UNL     1      -0.139  -2.742  -2.657  0.00  0.00    +0.360 C 
ATOM     15  O   UNL     1       0.094  -3.763  -2.041  0.00  0.00    -0.243 OA
BRANCH  14  16
ATOM     16  O   UNL     1      -0.822  -1.740  -2.068  0.00  0.00    -0.454 OA
BRANCH  16  22
ATOM     17  C   UNL     1      -1.295  -0.603   0.011  0.00  0.00    +0.158 C 
ATOM     18  C   UNL     1      -1.745  -0.825   1.457  0.00  0.00    +0.035 C 
ATOM     19  C   UNL     1      -3.134  -1.466   1.467  0.00  0.00    +0.003 C 
ATOM     20  C   UNL     1      -3.080  -2.810   0.738  0.00  0.00    +0.004 C 
ATOM     21  C   UNL     1      -2.631  -2.588  -0.708  0.00  0.00    +0.047 C 
ATOM     22  C   UNL     1      -1.242  -1.947  -0.718  0.00  0.00    +0.205 C 
BRANCH  17  24
ATOM     23  C   UNL     1      -0.017   1.425   0.010  0.00  0.00    +0.194 C 
ATOM     24  O   UNL     1       0.002  -0.004   0.002  0.00  0.00    -0.376 OA
ENDBRANCH  17  24
ENDBRANCH  16  22
ENDBRANCH  14  16
ENDBRANCH   1  14
TORSDOF 5
