REMARK  Name = ZINC39934444
REMARK  12 active torsions:
REMARK  status: ('A' for Active; 'I' for Inactive)
REMARK    1  A    between atoms: C_1  and  C_2
REMARK    2  A    between atoms: C_3  and  C_37
REMARK    3  A    between atoms: C_4  and  C_36
REMARK    4  A    between atoms: C_7  and  C_8
REMARK    5  A    between atoms: C_8  and  C_10
REMARK    6  A    between atoms: C_10  and  C_12
REMARK    7  A    between atoms: C_10  and  S_13
REMARK    8  A    between atoms: S_13  and  C_14
REMARK    9  A    between atoms: C_18  and  C_27
REMARK   10  A    between atoms: N_19  and  C_20
REMARK   11  A    between atoms: C_20  and  C_21
REMARK   12  A    between atoms: C_37  and  C_39
REMARK                            x       y       z     vdW  Elec       q    Type
REMARK                         _______ _______ _______ _____ _____    ______ ____
ROOT
ATOM      1  C   UNL     1      -0.801  -1.854   6.243  0.00  0.00    +0.237 C 
ATOM      2  N   UNL     1       0.575  -2.331   6.457  0.00  0.00    -0.237 N 
ATOM      3  N   UNL     1       0.590  -3.682   6.088  0.00  0.00    -0.169 NA
ATOM      4  C   UNL     1      -0.588  -4.076   5.683  0.00  0.00    +0.147 C 
ATOM      5  N   UNL     1      -1.522  -3.034   5.737  0.00  0.00    -0.283 N 
ATOM      6  H   UNL     1       1.325  -1.812   6.788  0.00  0.00    +0.171 HD
ENDROOT
BRANCH   4   7
ATOM      7  C   UNL     1      -0.880  -5.378   5.249  0.00  0.00    +0.022 C 
ATOM      8  C   UNL     1      -0.032  -6.486   5.273  0.00  0.00    +0.006 A 
ATOM      9  C   UNL     1       1.300  -6.657   5.708  0.00  0.00    +0.010 A 
ATOM     10  C   UNL     1       1.888  -7.877   5.611  0.00  0.00    +0.001 A 
ATOM     11  C   UNL     1       1.206  -8.978   5.088  0.00  0.00    +0.002 A 
ATOM     12  C   UNL     1      -0.074  -8.886   4.652  0.00  0.00    +0.026 A 
ATOM     13  C   UNL     1      -0.755  -7.643   4.722  0.00  0.00    +0.043 A 
ATOM     14  N   UNL     1      -1.978  -7.298   4.371  0.00  0.00    -0.380 N 
ATOM     15  C   UNL     1      -2.183  -5.876   4.664  0.00  0.00    +0.152 C 
ATOM     16  H   UNL     1      -2.640  -7.892   3.983  0.00  0.00    +0.160 HD
ENDBRANCH   4   7
BRANCH   1  17
ATOM     17  S   UNL     1      -0.826  -0.521   5.013  0.00  0.00    -0.107 S 
BRANCH  17  18
ATOM     18  C   UNL     1      -0.052  -1.260   3.549  0.00  0.00    +0.119 C 
ATOM     19  C   UNL     1       1.411  -1.586   3.855  0.00  0.00    +0.027 C 
BRANCH  18  20
ATOM     20  C   UNL     1      -0.119  -0.286   2.400  0.00  0.00    +0.192 C 
ATOM     21  O   UNL     1      -0.201   0.905   2.618  0.00  0.00    -0.289 OA
BRANCH  20  28
ATOM     22  C   UNL     1      -0.245   1.517  -0.127  0.00  0.00    +0.047 C 
ATOM     23  C   UNL     1      -0.141   0.015  -0.070  0.00  0.00    -0.012 A 
ATOM     24  C   UNL     1      -0.075  -0.868  -1.171  0.00  0.00    +0.041 A 
ATOM     25  C   UNL     1       0.012  -2.155  -0.658  0.00  0.00    +0.024 A 
ATOM     26  N   UNL     1       0.000  -2.084   0.680  0.00  0.00    -0.355 N 
ATOM     27  H   UNL     1       0.049  -2.842   1.282  0.00  0.00    +0.166 HD
ATOM     28  C   UNL     1      -0.087  -0.761   1.067  0.00  0.00    +0.087 A 
ATOM     29  C   UNL     1       0.104  -3.420  -1.471  0.00  0.00    +0.064 C 
BRANCH  24  30
ATOM     30  C   UNL     1      -0.094  -0.495  -2.590  0.00  0.00    +0.162 C 
ATOM     31  O   UNL     1      -1.140  -0.501  -3.204  0.00  0.00    -0.292 OA
ATOM     32  C   UNL     1       1.186  -0.105  -3.283  0.00  0.00    +0.091 C 
ENDBRANCH  24  30
ENDBRANCH  20  28
ENDBRANCH  18  20
ENDBRANCH  17  18
ENDBRANCH   1  17
BRANCH   5  33
ATOM     33  C   UNL     1      -2.937  -3.103   5.365  0.00  0.00    +0.140 C 
BRANCH  33  34
ATOM     34  C   UNL     1      -3.754  -3.611   6.555  0.00  0.00    +0.136 C 
ATOM     35  C   UNL     1      -5.233  -3.774   6.143  0.00  0.00    +0.035 C 
ATOM     36  C   UNL     1      -5.984  -3.276   7.408  0.00  0.00    +0.031 C 
ATOM     37  C   UNL     1      -5.024  -2.164   7.901  0.00  0.00    +0.160 C 
ATOM     38  O   UNL     1      -3.703  -2.657   7.622  0.00  0.00    -0.375 OA
ENDBRANCH  33  34
ENDBRANCH   5  33
TORSDOF 8
