REMARK  Name = ZINC11112962
REMARK  6 active torsions:
REMARK  status: ('A' for Active; 'I' for Inactive)
REMARK    1  A    between atoms: C_3  and  N_11
REMARK    2  A    between atoms: C_6  and  N_7
REMARK    3  A    between atoms: C_12  and  C_14
REMARK    4  A    between atoms: C_14  and  O_15
REMARK    5  A    between atoms: O_15  and  C_16
REMARK    6  A    between atoms: C_21  and  C_22
REMARK                            x       y       z     vdW  Elec       q    Type
REMARK                         _______ _______ _______ _____ _____    ______ ____
ROOT
ATOM      1  N   UNL     1       3.909  -2.192  -0.047  0.00  0.00    -0.282 N 
ATOM      2  C   UNL     1       3.713  -0.859  -0.032  0.00  0.00    +0.255 C 
ATOM      3  O   UNL     1       4.664  -0.106  -0.041  0.00  0.00    -0.272 OA
ATOM      4  H   UNL     1       3.152  -2.795   0.026  0.00  0.00    +0.155 HD
ENDROOT
BRANCH   1   7
ATOM      5  C   UNL     1       7.553  -2.555   0.296  0.00  0.00    +0.034 A 
ATOM      6  C   UNL     1       6.275  -2.044   0.417  0.00  0.00    +0.026 A 
ATOM      7  C   UNL     1       5.205  -2.708  -0.168  0.00  0.00    +0.048 A 
ATOM      8  C   UNL     1       5.422  -3.888  -0.868  0.00  0.00    +0.041 A 
ATOM      9  C   UNL     1       6.703  -4.391  -0.990  0.00  0.00    +0.049 A 
ATOM     10  C   UNL     1       7.767  -3.727  -0.406  0.00  0.00    +0.127 A 
ATOM     11 BR   UNL     1       3.967  -4.801  -1.660  0.00  0.00    -0.048 Br
BRANCH  10  12
ATOM     12  N   UNL     1       9.137  -4.272  -0.533  0.00  0.00    +0.056 N 
ATOM     13  O   UNL     1      10.075  -3.688  -0.019  0.00  0.00    -0.126 OA
ATOM     14  O   UNL     1       9.327  -5.304  -1.151  0.00  0.00    -0.126 OA
ENDBRANCH  10  12
ENDBRANCH   1   7
BRANCH   2  15
ATOM     15  C   UNL     1       2.312  -0.303  -0.004  0.00  0.00    +0.324 C 
BRANCH  15  16
ATOM     16  O   UNL     1       2.366   1.125   0.008  0.00  0.00    -0.482 OA
BRANCH  16  17
ATOM     17  C   UNL     1       1.181   1.785   0.033  0.00  0.00    +0.133 A 
ATOM     18  C   UNL     1      -0.011   1.077   0.046  0.00  0.00    +0.048 A 
ATOM     19  C   UNL     1      -1.216   1.750   0.066  0.00  0.00    +0.023 A 
ATOM     20  C   UNL     1      -1.244   3.136   0.084  0.00  0.00    +0.042 A 
ATOM     21  C   UNL     1      -0.068   3.856   0.071  0.00  0.00    +0.036 A 
ATOM     22  C   UNL     1       1.158   3.186   0.045  0.00  0.00    +0.079 A 
ATOM     23 CL   UNL     1      -2.767   3.969   0.116  0.00  0.00    -0.084 Cl
BRANCH  22  24
ATOM     24  C   UNL     1       2.420   3.950   0.032  0.00  0.00    +0.245 C 
ATOM     25  O   UNL     1       3.485   3.364   0.010  0.00  0.00    -0.270 OA
ATOM     26  N   UNL     1       2.393   5.297   0.044  0.00  0.00    -0.325 N 
ATOM     27  H   UNL     1       1.543   5.765   0.061  0.00  0.00    +0.145 HD
ATOM     28  H   UNL     1       3.223   5.799   0.035  0.00  0.00    +0.145 HD
ENDBRANCH  22  24
ENDBRANCH  16  17
ENDBRANCH  15  16
ENDBRANCH   2  15
TORSDOF 6
