REMARK  Name = ZINC57584896
REMARK  10 active torsions:
REMARK  status: ('A' for Active; 'I' for Inactive)
REMARK    1  A    between atoms: C_1  and  C_2
REMARK    2  A    between atoms: C_2  and  N_3
REMARK    3  A    between atoms: N_3  and  C_4
REMARK    4  A    between atoms: N_3  and  C_11
REMARK    5  A    between atoms: C_4  and  C_5
REMARK    6  A    between atoms: C_11  and  C_13
REMARK    7  A    between atoms: C_11  and  C_27
REMARK    8  A    between atoms: C_16  and  C_26
REMARK    9  A    between atoms: C_18  and  C_25
REMARK   10  A    between atoms: N_31  and  C_32
REMARK                            x       y       z     vdW  Elec       q    Type
REMARK                         _______ _______ _______ _____ _____    ______ ____
ROOT
ATOM      1  C   UNL     1      -0.180  -0.078   2.415  0.00  0.00    +0.163 C 
ENDROOT
BRANCH   1   2
ATOM      2  C   UNL     1      -0.616   1.363   2.334  0.00  0.00    +0.042 A 
ATOM      3  C   UNL     1      -1.936   1.667   2.286  0.00  0.00    +0.021 A 
ATOM      4  C   UNL     1      -2.326   3.077   2.208  0.00  0.00    +0.002 A 
ATOM      5  C   UNL     1      -3.672   3.453   2.157  0.00  0.00    -0.041 A 
ATOM      6  C   UNL     1      -4.003   4.777   2.085  0.00  0.00    +0.007 A 
ATOM      7  C   UNL     1      -3.015   5.752   2.062  0.00  0.00    -0.048 A 
ATOM      8  C   UNL     1      -1.682   5.404   2.111  0.00  0.00    +0.029 A 
ATOM      9  C   UNL     1      -1.321   4.062   2.186  0.00  0.00    +0.050 A 
ATOM     10  N   UNL     1       0.004   3.686   2.237  0.00  0.00    -0.322 N 
ATOM     11  H   UNL     1       0.695   4.366   2.222  0.00  0.00    +0.169 HD
ATOM     12  C   UNL     1       0.352   2.389   2.314  0.00  0.00    +0.254 A 
ATOM     13  O   UNL     1       1.534   2.094   2.363  0.00  0.00    -0.268 OA
ATOM     14  C   UNL     1      -3.404   7.205   1.982  0.00  0.00    +0.044 C 
ATOM     15  C   UNL     1      -4.753   2.403   2.180  0.00  0.00    +0.044 C 
ENDBRANCH   1   2
BRANCH   1  16
ATOM     16  C   UNL     1       0.479  -0.329   3.747  0.00  0.00    +0.173 A 
ATOM     17  N   UNL     1       1.678   0.055   4.111  0.00  0.00    -0.111 NA
ATOM     18  N   UNL     1       1.876  -0.350   5.318  0.00  0.00    -0.023 NA
ATOM     19  N   UNL     1       0.835  -0.982   5.733  0.00  0.00    -0.044 NA
ATOM     20  N   UNL     1      -0.051  -0.986   4.795  0.00  0.00    -0.224 N 
BRANCH  20  21
ATOM     21  C   UNL     1      -1.382  -1.595   4.857  0.00  0.00    +0.111 C 
ATOM     22  C   UNL     1      -2.178  -1.004   6.040  0.00  0.00    +0.027 C 
ATOM     23  C   UNL     1      -2.985  -2.206   6.593  0.00  0.00    +0.002 C 
ATOM     24  C   UNL     1      -1.985  -3.381   6.455  0.00  0.00    +0.002 C 
ATOM     25  C   UNL     1      -1.259  -3.106   5.121  0.00  0.00    +0.027 C 
ENDBRANCH  20  21
ENDBRANCH   1  16
BRANCH   1  26
ATOM     26  N   UNL     1       0.773  -0.363   1.335  0.00  0.00    -0.285 NA
BRANCH  26  28
ATOM     27  C   UNL     1      -1.042  -0.916  -0.213  0.00  0.00    +0.020 C 
ATOM     28  C   UNL     1       0.193  -0.044   0.023  0.00  0.00    +0.082 C 
ENDBRANCH  26  28
BRANCH  26  29
ATOM     29  C   UNL     1       1.225  -1.760   1.386  0.00  0.00    +0.120 C 
BRANCH  29  30
ATOM     30  C   UNL     1       2.374  -1.952   0.430  0.00  0.00    -0.033 A 
ATOM     31  C   UNL     1       2.129  -2.315  -0.881  0.00  0.00    +0.005 A 
ATOM     32  C   UNL     1       3.183  -2.491  -1.758  0.00  0.00    +0.000 A 
ATOM     33  C   UNL     1       4.482  -2.303  -1.324  0.00  0.00    +0.000 A 
ATOM     34  C   UNL     1       4.726  -1.939  -0.013  0.00  0.00    +0.000 A 
ATOM     35  C   UNL     1       3.672  -1.758   0.862  0.00  0.00    +0.005 A 
ENDBRANCH  29  30
ENDBRANCH  26  29
ENDBRANCH   1  26
TORSDOF 7
