REMARK  Name = ZINC12481759
REMARK  12 active torsions:
REMARK  status: ('A' for Active; 'I' for Inactive)
REMARK    1  A    between atoms: C_1  and  C_2
REMARK    2  A    between atoms: C_2  and  C_3
REMARK    3  A    between atoms: C_3  and  C_5
REMARK    4  A    between atoms: C_3  and  C_6
REMARK    5  A    between atoms: C_9  and  N_12
REMARK    6  A    between atoms: N_12  and  C_13
REMARK    7  A    between atoms: C_13  and  C_15
REMARK    8  A    between atoms: C_13  and  C_21
REMARK    9  A    between atoms: N_23  and  C_24
REMARK   10  A    between atoms: C_24  and  C_25
REMARK   11  A    between atoms: C_31  and  C_33
REMARK   12  A    between atoms: C_33  and  N_34
REMARK                            x       y       z     vdW  Elec       q    Type
REMARK                         _______ _______ _______ _____ _____    ______ ____
ROOT
ATOM      1  N   UNL     1       3.262  -3.256  -4.553  0.00  0.00    -0.254 N 
ATOM      2  C   UNL     1       2.202  -3.969  -4.125  0.00  0.00    +0.242 C 
ATOM      3  O   UNL     1       2.102  -4.262  -2.952  0.00  0.00    -0.273 OA
ENDROOT
BRANCH   1   7
ATOM      4  C   UNL     1       3.388  -1.867  -8.479  0.00  0.00    -0.044 A 
ATOM      5  C   UNL     1       2.927  -3.143  -8.213  0.00  0.00    +0.006 A 
ATOM      6  C   UNL     1       2.884  -3.607  -6.913  0.00  0.00    +0.024 A 
ATOM      7  C   UNL     1       3.305  -2.790  -5.872  0.00  0.00    +0.038 A 
ATOM      8  C   UNL     1       3.763  -1.507  -6.142  0.00  0.00    +0.024 A 
ATOM      9  C   UNL     1       3.808  -1.051  -7.445  0.00  0.00    +0.006 A 
BRANCH   4  10
ATOM     10  C   UNL     1       3.432  -1.364  -9.899  0.00  0.00    +0.016 C 
ATOM     11  C   UNL     1       4.874  -1.009 -10.270  0.00  0.00    +0.012 C 
BRANCH  10  13
ATOM     12  C   UNL     1       2.497   0.317 -11.493  0.00  0.00    +0.004 C 
ATOM     13  C   UNL     1       2.551  -0.120 -10.028  0.00  0.00    +0.004 C 
ENDBRANCH  10  13
ENDBRANCH   4  10
ENDBRANCH   1   7
BRANCH   1  14
ATOM     14  C   UNL     1       4.370  -2.969  -3.639  0.00  0.00    +0.199 C 
BRANCH  14  15
ATOM     15  C   UNL     1       5.130  -4.239  -3.357  0.00  0.00    +0.000 A 
ATOM     16  C   UNL     1       6.324  -4.201  -2.653  0.00  0.00    +0.009 A 
ATOM     17  C   UNL     1       6.990  -5.394  -2.417  0.00  0.00    +0.020 A 
ATOM     18  C   UNL     1       6.444  -6.574  -2.887  0.00  0.00    +0.111 A 
ATOM     19  N   UNL     1       5.306  -6.572  -3.553  0.00  0.00    -0.263 NA
ATOM     20  C   UNL     1       4.644  -5.457  -3.791  0.00  0.00    +0.116 A 
ENDBRANCH  14  15
BRANCH  14  21
ATOM     21  C   UNL     1       3.825  -2.413  -2.349  0.00  0.00    +0.239 C 
ATOM     22  O   UNL     1       2.656  -2.096  -2.270  0.00  0.00    -0.273 OA
ATOM     23  N   UNL     1       4.636  -2.267  -1.282  0.00  0.00    -0.311 N 
ATOM     24  H   UNL     1       5.570  -2.520  -1.345  0.00  0.00    +0.149 HD
BRANCH  23  25
ATOM     25  C   UNL     1       4.106  -1.726  -0.028  0.00  0.00    +0.135 C 
BRANCH  25  26
ATOM     26  C   UNL     1       5.224  -1.665   1.014  0.00  0.00    +0.135 C 
ATOM     27  C   UNL     1       4.651  -1.216   2.373  0.00  0.00    +0.035 C 
ATOM     28  C   UNL     1       5.449   0.066   2.716  0.00  0.00    +0.031 C 
ATOM     29  C   UNL     1       6.715  -0.094   1.835  0.00  0.00    +0.160 C 
ATOM     30  O   UNL     1       6.208  -0.692   0.623  0.00  0.00    -0.375 OA
ENDBRANCH  25  26
ENDBRANCH  23  25
ENDBRANCH  14  21
ENDBRANCH   1  14
BRANCH   2  31
ATOM     31  C   UNL     1       1.141  -4.403  -5.103  0.00  0.00    +0.242 C 
BRANCH  31  32
ATOM     32  N   UNL     1      -0.181  -4.251  -4.489  0.00  0.00    -0.235 N 
ATOM     33  C   UNL     1      -0.863  -5.197  -3.760  0.00  0.00    +0.090 A 
ATOM     34  C   UNL     1      -0.581  -6.499  -3.363  0.00  0.00    +0.029 A 
ATOM     35  C   UNL     1      -1.490  -7.193  -2.614  0.00  0.00    +0.002 A 
ATOM     36  C   UNL     1      -2.692  -6.606  -2.240  0.00  0.00    +0.002 A 
ATOM     37  C   UNL     1      -2.989  -5.328  -2.611  0.00  0.00    +0.032 A 
ATOM     38  C   UNL     1      -2.075  -4.595  -3.379  0.00  0.00    +0.113 A 
ATOM     39  N   UNL     1      -2.088  -3.345  -3.884  0.00  0.00    -0.129 NA
ATOM     40  N   UNL     1      -1.002  -3.115  -4.534  0.00  0.00    -0.064 NA
ENDBRANCH  31  32
ENDBRANCH   2  31
TORSDOF 10
