REMARK  Name = ZINC04846738
REMARK  9 active torsions:
REMARK  status: ('A' for Active; 'I' for Inactive)
REMARK    1  A    between atoms: C_1  and  C_2
REMARK    2  A    between atoms: C_3  and  C_11
REMARK    3  A    between atoms: C_7  and  N_8
REMARK    4  A    between atoms: C_11  and  O_13
REMARK    5  A    between atoms: O_13  and  C_14
REMARK    6  A    between atoms: C_14  and  C_16
REMARK    7  A    between atoms: C_14  and  C_17
REMARK    8  A    between atoms: C_17  and  C_19
REMARK    9  A    between atoms: C_20  and  C_29
REMARK                            x       y       z     vdW  Elec       q    Type
REMARK                         _______ _______ _______ _____ _____    ______ ____
ROOT
ATOM      1  C   UNL     1       2.836   0.604  -0.245  0.00  0.00    +0.244 C 
ATOM      2  C   UNL     1       2.258  -0.196   0.923  0.00  0.00    +0.061 C 
ENDROOT
BRANCH   1   3
ATOM      3  C   UNL     1       2.635   2.077   0.006  0.00  0.00    +0.205 C 
ATOM      4  O   UNL     1       3.554   2.752   0.422  0.00  0.00    -0.288 OA
BRANCH   3   5
ATOM      5  C   UNL     1       1.373   2.672  -0.243  0.00  0.00    +0.049 A 
ATOM      6  C   UNL     1       0.904   3.143  -1.450  0.00  0.00    +0.025 A 
ATOM      7  N   UNL     1      -0.336   3.644  -1.289  0.00  0.00    -0.358 N 
ATOM      8  H   UNL     1      -0.868   4.037  -1.999  0.00  0.00    +0.166 HD
ATOM      9  C   UNL     1      -0.746   3.520   0.023  0.00  0.00    +0.047 A 
ATOM     10  C   UNL     1       0.298   2.913   0.739  0.00  0.00    +0.011 A 
ATOM     11  C   UNL     1       0.160   2.668   2.102  0.00  0.00    +0.011 A 
ATOM     12  C   UNL     1      -1.006   3.024   2.745  0.00  0.00    +0.001 A 
ATOM     13  C   UNL     1      -2.038   3.624   2.040  0.00  0.00    +0.002 A 
ATOM     14  C   UNL     1      -1.915   3.872   0.690  0.00  0.00    +0.026 A 
ATOM     15  C   UNL     1       1.664   3.108  -2.751  0.00  0.00    +0.064 C 
ENDBRANCH   3   5
ENDBRANCH   1   3
BRANCH   1  16
ATOM     16  O   UNL     1       4.255   0.324  -0.369  0.00  0.00    -0.450 OA
BRANCH  16  17
ATOM     17  C   UNL     1       4.608  -0.704  -1.165  0.00  0.00    +0.340 C 
ATOM     18  O   UNL     1       3.754  -1.348  -1.740  0.00  0.00    -0.245 OA
BRANCH  17  21
ATOM     19  C   UNL     1       5.336  -3.086  -2.638  0.00  0.00    +0.047 C 
ATOM     20  C   UNL     1       6.398  -2.195  -2.047  0.00  0.00    -0.006 A 
ATOM     21  C   UNL     1       6.034  -1.048  -1.339  0.00  0.00    +0.064 A 
ATOM     22  C   UNL     1       7.024  -0.231  -0.790  0.00  0.00    +0.015 A 
ATOM     23  C   UNL     1       8.354  -0.558  -0.956  0.00  0.00    +0.003 A 
ATOM     24  C   UNL     1       8.708  -1.693  -1.664  0.00  0.00    +0.033 A 
ATOM     25  C   UNL     1       7.732  -2.507  -2.210  0.00  0.00    +0.130 A 
BRANCH  25  26
ATOM     26  N   UNL     1       8.119  -3.719  -2.967  0.00  0.00    +0.057 N 
ATOM     27  O   UNL     1       9.288  -4.059  -3.015  0.00  0.00    -0.126 OA
ATOM     28  O   UNL     1       7.270  -4.375  -3.542  0.00  0.00    -0.126 OA
ENDBRANCH  25  26
ENDBRANCH  17  21
ENDBRANCH  16  17
ENDBRANCH   1  16
TORSDOF 6
