REMARK  Name = ZINC28468257
REMARK  5 active torsions:
REMARK  status: ('A' for Active; 'I' for Inactive)
REMARK    1  A    between atoms: C_1  and  C_2
REMARK    2  A    between atoms: N_4  and  C_5
REMARK    3  A    between atoms: C_5  and  N_6
REMARK    4  A    between atoms: C_8  and  C_12
REMARK    5  A    between atoms: C_15  and  C_18
REMARK                            x       y       z     vdW  Elec       q    Type
REMARK                         _______ _______ _______ _____ _____    ______ ____
ROOT
ATOM      1  C   UNL     1      -3.514  -2.042   1.246  0.00  0.00    -0.009 A 
ATOM      2  C   UNL     1      -2.340  -2.156   1.992  0.00  0.00    +0.009 A 
ATOM      3  C   UNL     1      -1.201  -1.496   1.590  0.00  0.00    +0.009 A 
ATOM      4  C   UNL     1      -1.220  -0.712   0.434  0.00  0.00    -0.022 A 
ATOM      5  C   UNL     1      -2.396  -0.594  -0.309  0.00  0.00    +0.009 A 
ATOM      6  C   UNL     1      -3.533  -1.259   0.092  0.00  0.00    +0.009 A 
ENDROOT
BRANCH   4   7
ATOM      7  C   UNL     1       0.002  -0.004   0.002  0.00  0.00    -0.041 C 
ATOM      8  C   UNL     1       1.033  -0.729  -0.364  0.00  0.00    -0.004 C 
ATOM      9  C   UNL     1       2.342  -0.140  -0.810  0.00  0.00    +0.135 C 
ATOM     10  N   UNL     1       2.176   1.306  -1.015  0.00  0.00    -0.301 N 
ATOM     11  C   UNL     1       1.409   2.049  -0.000  0.00  0.00    +0.112 C 
ATOM     12  C   UNL     1      -0.018   1.496   0.010  0.00  0.00    +0.054 C 
ATOM     13  C   UNL     1       2.716   1.939  -2.109  0.00  0.00    +0.151 C 
ATOM     14  N   UNL     1       2.553   3.223  -2.265  0.00  0.00    -0.375 N 
ATOM     15  N   UNL     1       3.428   1.219  -3.039  0.00  0.00    -0.333 N 
ATOM     16  H   UNL     1       2.985   3.730  -3.140  0.00  0.00    +0.158 HD
ATOM     17  H   UNL     1       3.860   1.726  -3.914  0.00  0.00    +0.145 HD
ATOM     18  H   UNL     1       3.566   0.135  -2.907  0.00  0.00    +0.145 HD
ATOM     19  H   UNL     1       1.984   3.800  -1.521  0.00  0.00    +0.158 HD
ENDBRANCH   4   7
BRANCH   1  22
ATOM     20  N   UNL     1      -6.787  -3.254   2.241  0.00  0.00    -0.194 N 
ATOM     21  C   UNL     1      -6.005  -2.243   1.832  0.00  0.00    +0.141 A 
ATOM     22  C   UNL     1      -4.739  -2.753   1.680  0.00  0.00    +0.087 A 
ATOM     23  C   UNL     1      -4.881  -4.124   2.030  0.00  0.00    +0.366 A 
ATOM     24  O   UNL     1      -4.007  -4.975   2.036  0.00  0.00    -0.243 OA
ATOM     25  O   UNL     1      -6.172  -4.288   2.354  0.00  0.00    -0.333 OA
BRANCH  20  26
ATOM     26  C   UNL     1      -8.219  -3.120   2.519  0.00  0.00    +0.267 C 
BRANCH  26  30
ATOM     27  C   UNL     1     -11.110  -3.597   0.055  0.00  0.00    +0.109 C 
ATOM     28  C   UNL     1     -10.327  -3.321   1.312  0.00  0.00    +0.211 C 
ATOM     29  O   UNL     1     -10.908  -3.041   2.339  0.00  0.00    -0.276 OA
ATOM     30  N   UNL     1      -8.981  -3.387   1.296  0.00  0.00    -0.295 N 
ATOM     31  H   UNL     1      -8.454  -3.642   0.365  0.00  0.00    +0.150 HD
ENDBRANCH  26  30
ENDBRANCH  20  26
ENDBRANCH   1  22
TORSDOF 4
