REMARK  Name = ZINC40917148
REMARK  6 active torsions:
REMARK  status: ('A' for Active; 'I' for Inactive)
REMARK    1  A    between atoms: C_1  and  O_2
REMARK    2  A    between atoms: O_2  and  C_3
REMARK    3  A    between atoms: C_5  and  C_19
REMARK    4  A    between atoms: C_8  and  O_9
REMARK    5  A    between atoms: O_9  and  C_10
REMARK    6  A    between atoms: C_10  and  C_11
REMARK                            x       y       z     vdW  Elec       q    Type
REMARK                         _______ _______ _______ _____ _____    ______ ____
ROOT
ATOM      1  C   UNL     1       0.626  -0.619   1.042  0.00  0.00    +0.163 A 
ATOM      2  C   UNL     1       1.202   0.137   2.051  0.00  0.00    +0.055 A 
ATOM      3  C   UNL     1       1.837  -0.489   3.108  0.00  0.00    -0.014 A 
ATOM      4  C   UNL     1       1.899  -1.869   3.161  0.00  0.00    +0.025 A 
ATOM      5  C   UNL     1       1.326  -2.630   2.158  0.00  0.00    +0.063 A 
ATOM      6  C   UNL     1       0.683  -2.008   1.099  0.00  0.00    +0.176 A 
ATOM      7 BR   UNL     1       1.414  -4.517   2.234  0.00  0.00    -0.046 Br
ENDROOT
BRANCH   3   8
ATOM      8  C   UNL     1       2.463   0.335   4.203  0.00  0.00    +0.177 C 
ATOM      9  C   UNL     1       1.810  -0.008   5.525  0.00  0.00    +0.041 C 
ATOM     10  C   UNL     1       2.436  -0.747   6.465  0.00  0.00    +0.020 C 
ATOM     11  C   UNL     1       1.751  -1.088   7.767  0.00  0.00    +0.052 C 
ATOM     12  C   UNL     1       0.794   0.041   8.155  0.00  0.00    +0.014 C 
ATOM     13  C   UNL     1      -0.226   0.218   7.025  0.00  0.00    +0.080 C 
ATOM     14  C   UNL     1       0.509   0.482   5.741  0.00  0.00    +0.163 C 
ATOM     15  O   UNL     1      -0.032   1.134   4.870  0.00  0.00    -0.292 OA
ATOM     16  N   UNL     1       3.716  -1.217   6.287  0.00  0.00    -0.286 N 
ATOM     17  C   UNL     1       4.465  -0.684   5.251  0.00  0.00    +0.240 A 
ATOM     18  N   UNL     1       3.888   0.050   4.267  0.00  0.00    -0.201 N 
ATOM     19  N   UNL     1       4.932   0.418   3.420  0.00  0.00    -0.042 NA
ATOM     20  N   UNL     1       6.009  -0.097   3.919  0.00  0.00    -0.021 NA
ATOM     21  N   UNL     1       5.740  -0.745   4.993  0.00  0.00    -0.092 NA
ATOM     22  H   UNL     1       4.083  -1.900   6.869  0.00  0.00    +0.155 HD
ENDBRANCH   3   8
BRANCH   1  24
ATOM     23  C   UNL     1      -0.017   1.425   0.010  0.00  0.00    +0.277 C 
ATOM     24  O   UNL     1       0.002  -0.004   0.002  0.00  0.00    -0.491 OA
ENDBRANCH   1  24
BRANCH   6  25
ATOM     25  O   UNL     1       0.114  -2.754   0.114  0.00  0.00    -0.483 OA
BRANCH  25  26
ATOM     26  C   UNL     1       0.939  -3.091  -1.003  0.00  0.00    +0.267 C 
BRANCH  26  27
ATOM     27  C   UNL     1       0.145  -3.913  -1.984  0.00  0.00    +0.025 A 
ATOM     28  C   UNL     1      -1.178  -4.217  -1.721  0.00  0.00    +0.010 A 
ATOM     29  C   UNL     1      -1.907  -4.971  -2.621  0.00  0.00    +0.001 A 
ATOM     30  C   UNL     1      -1.315  -5.423  -3.786  0.00  0.00    +0.003 A 
ATOM     31  C   UNL     1       0.007  -5.120  -4.052  0.00  0.00    +0.039 A 
ATOM     32  C   UNL     1       0.737  -4.360  -3.153  0.00  0.00    +0.130 A 
ATOM     33  F   UNL     1       2.028  -4.060  -3.414  0.00  0.00    -0.205 F 
ENDBRANCH  26  27
ENDBRANCH  25  26
ENDBRANCH   6  25
TORSDOF 5
