REMARK  Name = ZINC38670297
REMARK  10 active torsions:
REMARK  status: ('A' for Active; 'I' for Inactive)
REMARK    1  A    between atoms: C_1  and  C_2
REMARK    2  A    between atoms: C_3  and  S_9
REMARK    3  A    between atoms: S_9  and  N_12
REMARK    4  A    between atoms: N_12  and  C_13
REMARK    5  A    between atoms: C_13  and  C_14
REMARK    6  A    between atoms: C_14  and  C_16
REMARK    7  A    between atoms: C_14  and  N_27
REMARK    8  A    between atoms: N_25  and  C_26
REMARK    9  A    between atoms: N_27  and  C_28
REMARK   10  A    between atoms: N_27  and  C_29
REMARK                            x       y       z     vdW  Elec       q    Type
REMARK                         _______ _______ _______ _____ _____    ______ ____
ROOT
ATOM      1  C   UNL     1      -3.100   2.101  -2.576  0.00  0.00    -0.023 C 
ENDROOT
BRANCH   1   2
ATOM      2  C   UNL     1      -3.323   3.474  -1.996  0.00  0.00    -0.059 A 
ATOM      3  C   UNL     1      -2.582   4.546  -2.457  0.00  0.00    +0.004 A 
ATOM      4  C   UNL     1      -2.785   5.803  -1.924  0.00  0.00    +0.023 A 
ATOM      5  C   UNL     1      -3.735   5.991  -0.926  0.00  0.00    +0.033 A 
ATOM      6  C   UNL     1      -4.480   4.916  -0.466  0.00  0.00    -0.026 A 
ATOM      7  C   UNL     1      -4.271   3.658  -1.009  0.00  0.00    +0.007 A 
ATOM      8  C   UNL     1      -5.524   5.083   0.606  0.00  0.00    +0.038 C 
ATOM      9  C   UNL     1      -5.270   6.361   1.405  0.00  0.00    +0.024 C 
ATOM     10  C   UNL     1      -5.110   7.533   0.428  0.00  0.00    +0.105 C 
ATOM     11  N   UNL     1      -3.922   7.272  -0.395  0.00  0.00    -0.333 N 
ATOM     12  C   UNL     1      -2.949   8.335  -0.657  0.00  0.00    +0.129 C 
ENDBRANCH   1   2
BRANCH   1  13
ATOM     13  N   UNL     1      -2.894   2.210  -4.027  0.00  0.00    +0.381 N 
ATOM     14  C   UNL     1      -2.779   0.866  -4.608  0.00  0.00    -0.096 C 
ATOM     15  C   UNL     1      -4.035   2.909  -4.633  0.00  0.00    -0.096 C 
ATOM     16  H   UNL     1      -2.047   2.728  -4.208  0.00  0.00    -0.082 HD
ENDBRANCH   1  13
BRANCH   1  17
ATOM     17  C   UNL     1      -1.865   1.469  -1.932  0.00  0.00    +0.095 C 
BRANCH  17  18
ATOM     18  N   UNL     1      -2.115   1.254  -0.504  0.00  0.00    -0.191 NA
ATOM     19  H   UNL     1      -2.849   1.713  -0.066  0.00  0.00    +0.148 HD
BRANCH  18  20
ATOM     20  S   UNL     1      -1.146   0.228   0.361  0.00  0.00    +0.059 S 
ATOM     21  O   UNL     1      -1.057  -0.976  -0.389  0.00  0.00    -0.153 OA
ATOM     22  O   UNL     1      -1.617   0.257   1.701  0.00  0.00    -0.153 OA
BRANCH  20  25
ATOM     23  C   UNL     1      -0.457   2.873   1.655  0.00  0.00    +0.047 C 
ATOM     24  C   UNL     1       0.688   2.147   0.998  0.00  0.00    -0.006 A 
ATOM     25  C   UNL     1       0.470   0.929   0.380  0.00  0.00    +0.110 A 
ATOM     26  C   UNL     1       1.520   0.263  -0.224  0.00  0.00    +0.029 A 
ATOM     27  C   UNL     1       2.789   0.813  -0.209  0.00  0.00    +0.003 A 
ATOM     28  C   UNL     1       3.007   2.030   0.409  0.00  0.00    +0.020 A 
ATOM     29  C   UNL     1       1.956   2.700   1.008  0.00  0.00    +0.046 A 
ATOM     30 CL   UNL     1       2.228   4.232   1.778  0.00  0.00    -0.083 Cl
ENDBRANCH  20  25
ENDBRANCH  18  20
ENDBRANCH  17  18
ENDBRANCH   1  17
TORSDOF 6
