REMARK  Name = ZINC24709239
REMARK  6 active torsions:
REMARK  status: ('A' for Active; 'I' for Inactive)
REMARK    1  A    between atoms: C_4  and  C_7
REMARK    2  A    between atoms: C_7  and  C_9
REMARK    3  A    between atoms: C_7  and  N_18
REMARK    4  A    between atoms: C_19  and  C_21
REMARK    5  A    between atoms: C_21  and  C_22
REMARK    6  A    between atoms: C_22  and  N_23
REMARK                            x       y       z     vdW  Elec       q    Type
REMARK                         _______ _______ _______ _____ _____    ______ ____
ROOT
ATOM      1  N   UNL     1      -0.453   1.393   3.718  0.00  0.00    -0.302 N 
ATOM      2  C   UNL     1       0.000   1.080   2.488  0.00  0.00    +0.215 C 
ATOM      3  O   UNL     1       0.994   0.397   2.363  0.00  0.00    -0.276 OA
ATOM      4  H   UNL     1      -1.355   2.012   3.831  0.00  0.00    +0.150 HD
ENDROOT
BRANCH   1   5
ATOM      5  C   UNL     1       0.256   0.907   4.905  0.00  0.00    +0.169 C 
BRANCH   5   6
ATOM      6  C   UNL     1      -0.701   0.837   6.067  0.00  0.00    +0.131 A 
ATOM      7  C   UNL     1      -0.731  -0.145   6.978  0.00  0.00    +0.055 A 
ATOM      8  C   UNL     1      -1.808   0.197   7.914  0.00  0.00    +0.020 A 
ATOM      9  C   UNL     1      -2.335  -0.404   9.056  0.00  0.00    +0.011 A 
ATOM     10  C   UNL     1      -3.371   0.193   9.720  0.00  0.00    +0.001 A 
ATOM     11  C   UNL     1      -3.903   1.390   9.261  0.00  0.00    +0.004 A 
ATOM     12  C   UNL     1      -3.395   1.998   8.133  0.00  0.00    +0.047 A 
ATOM     13  C   UNL     1      -2.342   1.409   7.445  0.00  0.00    +0.135 A 
ATOM     14  O   UNL     1      -1.645   1.754   6.344  0.00  0.00    -0.457 OA
ENDBRANCH   5   6
BRANCH   5  18
ATOM     15  C   UNL     1       3.450   3.582   5.848  0.00  0.00    +0.000 A 
ATOM     16  C   UNL     1       3.635   2.216   5.963  0.00  0.00    +0.000 A 
ATOM     17  C   UNL     1       2.601   1.351   5.657  0.00  0.00    +0.006 A 
ATOM     18  C   UNL     1       1.383   1.851   5.238  0.00  0.00    -0.020 A 
ATOM     19  C   UNL     1       1.200   3.216   5.118  0.00  0.00    +0.006 A 
ATOM     20  C   UNL     1       2.232   4.081   5.428  0.00  0.00    +0.000 A 
ENDBRANCH   5  18
ENDBRANCH   1   5
BRANCH   2  21
ATOM     21  C   UNL     1      -0.729   1.579   1.267  0.00  0.00    +0.115 C 
BRANCH  21  22
ATOM     22  C   UNL     1      -0.013   1.086   0.008  0.00  0.00    +0.127 C 
BRANCH  22  23
ATOM     23  N   UNL     1      -0.721   1.571  -1.179  0.00  0.00    -0.224 N 
ATOM     24  C   UNL     1      -0.456   2.743  -1.795  0.00  0.00    +0.247 C 
ATOM     25  O   UNL     1       0.381   3.564  -1.486  0.00  0.00    -0.273 OA
ATOM     26  C   UNL     1      -1.422   2.813  -2.950  0.00  0.00    +0.113 C 
ATOM     27  C   UNL     1      -0.677   2.903  -4.288  0.00  0.00    +0.035 C 
ATOM     28  C   UNL     1      -1.577   3.818  -5.158  0.00  0.00    +0.003 C 
ATOM     29  C   UNL     1      -2.099   4.860  -4.136  0.00  0.00    +0.003 C 
ATOM     30  C   UNL     1      -2.327   4.043  -2.845  0.00  0.00    +0.035 C 
ATOM     31  N   UNL     1      -2.195   1.572  -2.857  0.00  0.00    -0.285 N 
ATOM     32  C   UNL     1      -1.709   0.905  -1.791  0.00  0.00    +0.309 C 
ATOM     33  O   UNL     1      -2.123  -0.178  -1.425  0.00  0.00    -0.252 OA
ATOM     34  H   UNL     1      -2.988   1.362  -3.589  0.00  0.00    +0.151 HD
ENDBRANCH  22  23
ENDBRANCH  21  22
ENDBRANCH   2  21
TORSDOF 6
