REMARK  Name = ZINC63699050
REMARK  7 active torsions:
REMARK  status: ('A' for Active; 'I' for Inactive)
REMARK    1  A    between atoms: C_1  and  C_2
REMARK    2  A    between atoms: C_4  and  C_23
REMARK    3  A    between atoms: N_12  and  C_14
REMARK    4  A    between atoms: C_26  and  C_28
REMARK    5  A    between atoms: C_28  and  C_29
REMARK    6  A    between atoms: C_28  and  C_30
REMARK    7  A    between atoms: C_28  and  C_31
REMARK                            x       y       z     vdW  Elec       q    Type
REMARK                         _______ _______ _______ _____ _____    ______ ____
ROOT
ATOM      1  C   UNL     1       0.194   1.485  -0.635  0.00  0.00    +0.062 C 
ATOM      2  C   UNL     1       0.069  -0.015  -0.561  0.00  0.00    +0.019 C 
ATOM      3  C   UNL     1      -1.026  -0.647  -0.249  0.00  0.00    -0.007 C 
ATOM      4  C   UNL     1      -2.438  -0.151  -0.056  0.00  0.00    +0.065 C 
ATOM      5  C   UNL     1      -3.286  -0.843  -1.133  0.00  0.00    +0.109 C 
ATOM      6  C   UNL     1      -2.852  -2.255  -1.362  0.00  0.00    +0.215 C 
ATOM      7  O   UNL     1      -3.661  -2.984  -1.897  0.00  0.00    -0.276 OA
ATOM      8  N   UNL     1      -1.680  -2.807  -1.046  0.00  0.00    -0.295 N 
ATOM      9  C   UNL     1      -0.696  -2.131  -0.211  0.00  0.00    +0.194 C 
ATOM     10  N   UNL     1       0.670  -2.197  -0.742  0.00  0.00    -0.164 NA
ATOM     11  N   UNL     1       1.104  -0.900  -0.822  0.00  0.00    -0.277 N 
ATOM     12  H   UNL     1      -1.475  -3.692  -1.385  0.00  0.00    +0.151 HD
ATOM     13  H   UNL     1       2.013  -0.636  -1.031  0.00  0.00    +0.166 HD
ENDROOT
BRANCH  10  14
ATOM     14  C   UNL     1       0.691  -2.837  -2.064  0.00  0.00    +0.270 C 
ATOM     15  N   UNL     1       2.072  -2.946  -2.550  0.00  0.00    -0.350 N 
ATOM     16  C   UNL     1       2.151  -2.268  -3.658  0.00  0.00    +0.061 A 
ATOM     17  C   UNL     1       3.254  -2.009  -4.594  0.00  0.00    +0.027 A 
ATOM     18  C   UNL     1       3.035  -1.250  -5.686  0.00  0.00    +0.002 A 
ATOM     19  C   UNL     1       1.780  -0.686  -5.978  0.00  0.00    +0.002 A 
ATOM     20  C   UNL     1       0.703  -0.861  -5.187  0.00  0.00    +0.027 A 
ATOM     21  C   UNL     1       0.823  -1.672  -3.967  0.00  0.00    +0.061 A 
ATOM     22  N   UNL     1      -0.026  -2.004  -3.038  0.00  0.00    -0.350 N 
ATOM     23  H   UNL     1       2.793  -3.434  -2.123  0.00  0.00    +0.163 HD
ATOM     24  H   UNL     1      -0.961  -1.748  -2.997  0.00  0.00    +0.163 HD
ENDBRANCH  10  14
BRANCH   4  25
ATOM     25  C   UNL     1      -2.490   1.344  -0.234  0.00  0.00    -0.002 A 
ATOM     26  C   UNL     1      -2.442   2.318   0.708  0.00  0.00    +0.012 A 
ATOM     27  C   UNL     1      -2.506   3.640   0.309  0.00  0.00    +0.012 A 
ATOM     28  C   UNL     1      -2.616   3.924  -1.012  0.00  0.00    -0.005 A 
ATOM     29  S   UNL     1      -2.625   2.294  -1.740  0.00  0.00    -0.097 S 
BRANCH  28  30
ATOM     30  C   UNL     1      -2.703   5.266  -1.690  0.00  0.00    -0.006 C 
ATOM     31  C   UNL     1      -1.446   6.079  -1.375  0.00  0.00    +0.016 C 
ATOM     32  C   UNL     1      -2.816   5.067  -3.203  0.00  0.00    +0.016 C 
ATOM     33  C   UNL     1      -3.936   6.016  -1.181  0.00  0.00    +0.016 C 
ENDBRANCH  28  30
ENDBRANCH   4  25
TORSDOF 3
