REMARK  Name = ZINC39638242
REMARK  10 active torsions:
REMARK  status: ('A' for Active; 'I' for Inactive)
REMARK    1  A    between atoms: C_1  and  C_2
REMARK    2  A    between atoms: C_2  and  C_3
REMARK    3  A    between atoms: C_3  and  C_5
REMARK    4  A    between atoms: C_3  and  N_8
REMARK    5  A    between atoms: C_5  and  O_6
REMARK    6  A    between atoms: O_6  and  C_7
REMARK    7  A    between atoms: C_9  and  C_11
REMARK    8  A    between atoms: C_22  and  C_24
REMARK    9  A    between atoms: C_25  and  C_35
REMARK   10  A    between atoms: C_28  and  C_29
REMARK                            x       y       z     vdW  Elec       q    Type
REMARK                         _______ _______ _______ _____ _____    ______ ____
ROOT
ATOM      1  C   UNL     1      -3.216   1.478  -2.634  0.00  0.00    +0.100 C 
ATOM      2  C   UNL     1      -4.560   0.750  -2.861  0.00  0.00    +0.121 C 
ATOM      3  N   UNL     1      -5.586   1.690  -2.351  0.00  0.00    -0.296 N 
ATOM      4  C   UNL     1      -5.107   3.026  -2.780  0.00  0.00    +0.115 C 
ATOM      5  C   UNL     1      -3.579   2.971  -2.584  0.00  0.00    -0.004 C 
ATOM      6  C   UNL     1      -3.199   3.562  -1.230  0.00  0.00    -0.010 C 
ATOM      7  C   UNL     1      -3.517   5.060  -1.225  0.00  0.00    -0.082 C 
ATOM      8  N   UNL     1      -2.768   5.725  -2.299  0.00  0.00    +0.379 N 
ATOM      9  C   UNL     1      -3.206   5.215  -3.604  0.00  0.00    -0.082 C 
ATOM     10  C   UNL     1      -2.875   3.724  -3.709  0.00  0.00    -0.010 C 
ATOM     11  C   UNL     1      -6.702   1.397  -1.654  0.00  0.00    +0.252 C 
ATOM     12  O   UNL     1      -7.451   2.288  -1.303  0.00  0.00    -0.270 OA
ATOM     13  H   UNL     1      -2.932   6.719  -2.255  0.00  0.00    -0.086 HD
ATOM     14  H   UNL     1      -1.782   5.543  -2.182  0.00  0.00    -0.086 HD
ENDROOT
BRANCH  11  15
ATOM     15  C   UNL     1      -7.013  -0.002  -1.318  0.00  0.00    +0.106 A 
ATOM     16  C   UNL     1      -6.632  -0.673  -0.193  0.00  0.00    +0.147 A 
ATOM     17  O   UNL     1      -7.113  -1.917  -0.263  0.00  0.00    -0.359 OA
ATOM     18  N   UNL     1      -7.833  -2.076  -1.469  0.00  0.00    -0.077 NA
ATOM     19  C   UNL     1      -7.800  -0.945  -2.127  0.00  0.00    +0.126 A 
ATOM     20  C   UNL     1      -5.809  -0.107   0.936  0.00  0.00    +0.090 C 
BRANCH  19  21
ATOM     21  C   UNL     1      -8.433  -0.667  -3.439  0.00  0.00    +0.004 A 
ATOM     22  C   UNL     1      -8.958   0.595  -3.710  0.00  0.00    +0.010 A 
ATOM     23  C   UNL     1      -9.545   0.848  -4.933  0.00  0.00    +0.001 A 
ATOM     24  C   UNL     1      -9.614  -0.150  -5.889  0.00  0.00    +0.000 A 
ATOM     25  C   UNL     1      -9.096  -1.405  -5.626  0.00  0.00    +0.001 A 
ATOM     26  C   UNL     1      -8.501  -1.667  -4.408  0.00  0.00    +0.010 A 
ENDBRANCH  19  21
ENDBRANCH  11  15
BRANCH   1  28
ATOM     27  N   UNL     1      -1.265   1.126  -1.155  0.00  0.00    -0.310 N 
ATOM     28  C   UNL     1      -2.599   1.044  -1.329  0.00  0.00    +0.218 C 
ATOM     29  O   UNL     1      -3.302   0.621  -0.437  0.00  0.00    -0.275 OA
ATOM     30  H   UNL     1      -0.701   1.451  -1.874  0.00  0.00    +0.149 HD
BRANCH  27  31
ATOM     31  C   UNL     1      -0.667   0.724   0.121  0.00  0.00    +0.098 C 
BRANCH  31  33
ATOM     32  C   UNL     1      -1.933   2.414   1.457  0.00  0.00    +0.006 C 
ATOM     33  C   UNL     1      -0.539   1.947   1.032  0.00  0.00    +0.021 C 
ENDBRANCH  31  33
BRANCH  31  34
ATOM     34  C   UNL     1       0.720   0.128  -0.131  0.00  0.00    +0.181 C 
BRANCH  34  35
ATOM     35  O   UNL     1       1.585   1.139  -0.652  0.00  0.00    -0.381 OA
ATOM     36  C   UNL     1       2.912   0.685  -0.924  0.00  0.00    +0.194 C 
ENDBRANCH  34  35
ENDBRANCH  31  34
ENDBRANCH  27  31
ENDBRANCH   1  28
TORSDOF 7
