REMARK  Name = ZINC23673286
REMARK  10 active torsions:
REMARK  status: ('A' for Active; 'I' for Inactive)
REMARK    1  A    between atoms: C_1  and  C_2
REMARK    2  A    between atoms: C_2  and  C_3
REMARK    3  A    between atoms: C_2  and  C_4
REMARK    4  A    between atoms: C_4  and  N_5
REMARK    5  A    between atoms: C_9  and  C_12
REMARK    6  A    between atoms: C_12  and  S_13
REMARK    7  A    between atoms: S_13  and  C_14
REMARK    8  A    between atoms: N_24  and  C_25
REMARK    9  A    between atoms: C_25  and  C_26
REMARK   10  A    between atoms: C_25  and  C_27
REMARK                            x       y       z     vdW  Elec       q    Type
REMARK                         _______ _______ _______ _____ _____    ______ ____
ROOT
ATOM      1  C   UNL     1       2.268   5.862   0.011  0.00  0.00    +0.172 A 
ATOM      2  N   UNL     1       2.289   4.552   0.004  0.00  0.00    -0.223 NA
ATOM      3  C   UNL     1       1.146   3.826   0.012  0.00  0.00    +0.080 A 
ATOM      4  C   UNL     1       1.167   2.429   0.004  0.00  0.00    +0.048 A 
ATOM      5  C   UNL     1      -0.021   1.732   0.012  0.00  0.00    +0.043 A 
ATOM      6  C   UNL     1      -1.240   2.402   0.021  0.00  0.00    +0.021 A 
ATOM      7  C   UNL     1      -1.285   3.768   0.035  0.00  0.00    +0.017 A 
ATOM      8  C   UNL     1      -0.097   4.498   0.027  0.00  0.00    +0.065 A 
ATOM      9  C   UNL     1      -0.091   5.967   0.034  0.00  0.00    +0.263 A 
ATOM     10  O   UNL     1      -1.129   6.603   0.048  0.00  0.00    -0.267 OA
ATOM     11  N   UNL     1       1.111   6.588   0.026  0.00  0.00    -0.285 N 
ATOM     12 CL   UNL     1       0.002  -0.004   0.002  0.00  0.00    -0.083 Cl
ENDROOT
BRANCH  11  13
ATOM     13  C   UNL     1       1.173   8.052   0.033  0.00  0.00    +0.087 C 
ATOM     14  C   UNL     1       0.462   8.598  -1.206  0.00  0.00    +0.031 C 
ATOM     15  C   UNL     1       0.486   8.585   1.292  0.00  0.00    +0.031 C 
ENDBRANCH  11  13
BRANCH   1  16
ATOM     16  S   UNL     1       3.803   6.727   0.001  0.00  0.00    -0.085 S 
BRANCH  16  17
ATOM     17  C   UNL     1       4.952   5.328  -0.017  0.00  0.00    +0.110 C 
BRANCH  17  22
ATOM     18  N   UNL     1       8.740   5.173  -0.132  0.00  0.00    -0.297 NA
ATOM     19  C   UNL     1       8.919   5.988  -1.342  0.00  0.00    +0.112 C 
ATOM     20  C   UNL     1       7.931   7.158  -1.314  0.00  0.00    +0.175 C 
ATOM     21  O   UNL     1       6.600   6.648  -1.196  0.00  0.00    -0.373 OA
ATOM     22  C   UNL     1       6.390   5.849  -0.028  0.00  0.00    +0.142 C 
ATOM     23  C   UNL     1       7.362   4.667  -0.044  0.00  0.00    +0.116 C 
BRANCH  18  24
ATOM     24  C   UNL     1       9.709   4.070  -0.093  0.00  0.00    +0.087 C 
BRANCH  24  26
ATOM     25  C   UNL     1      11.243   5.332   1.422  0.00  0.00    +0.008 C 
ATOM     26  C   UNL     1      11.121   4.637   0.065  0.00  0.00    -0.003 C 
ATOM     27  C   UNL     1      12.141   3.499  -0.019  0.00  0.00    +0.008 C 
ENDBRANCH  24  26
ENDBRANCH  18  24
ENDBRANCH  17  22
ENDBRANCH  16  17
ENDBRANCH   1  16
TORSDOF 6
