REMARK  Name = ZINC10092358
REMARK  7 active torsions:
REMARK  status: ('A' for Active; 'I' for Inactive)
REMARK    1  A    between atoms: C_5  and  C_7
REMARK    2  A    between atoms: C_7  and  C_9
REMARK    3  A    between atoms: C_7  and  N_48
REMARK    4  A    between atoms: C_9  and  N_10
REMARK    5  A    between atoms: C_11  and  C_13
REMARK    6  A    between atoms: C_16  and  N_22
REMARK    7  A    between atoms: C_17  and  N_19
REMARK                            x       y       z     vdW  Elec       q    Type
REMARK                         _______ _______ _______ _____ _____    ______ ____
ROOT
ATOM      1  N   UNL     1      -4.167   3.227   1.512  0.00  0.00    -0.313 N 
ATOM      2  C   UNL     1      -3.281   3.828   2.330  0.00  0.00    +0.244 C 
ATOM      3  O   UNL     1      -3.667   4.622   3.166  0.00  0.00    -0.270 OA
ATOM      4  H   UNL     1      -3.860   2.594   0.844  0.00  0.00    +0.149 HD
ENDROOT
BRANCH   2   5
ATOM      5  C   UNL     1      -1.843   3.522   2.211  0.00  0.00    +0.039 A 
ATOM      6  C   UNL     1      -1.397   2.614   1.246  0.00  0.00    +0.015 A 
ATOM      7  C   UNL     1      -0.055   2.327   1.141  0.00  0.00    +0.026 A 
ATOM      8  C   UNL     1       0.859   2.948   1.988  0.00  0.00    +0.055 A 
ATOM      9  C   UNL     1       0.419   3.857   2.946  0.00  0.00    +0.147 A 
ATOM     10  C   UNL     1      -0.922   4.144   3.059  0.00  0.00    +0.047 A 
BRANCH   9  11
ATOM     11  N   UNL     1       1.395   4.515   3.844  0.00  0.00    +0.058 N 
ATOM     12  O   UNL     1       1.014   5.332   4.663  0.00  0.00    -0.126 OA
ATOM     13  O   UNL     1       2.579   4.241   3.763  0.00  0.00    -0.126 OA
ENDBRANCH   9  11
BRANCH   8  14
ATOM     14  N   UNL     1       2.215   2.660   1.876  0.00  0.00    -0.356 N 
ATOM     15  H   UNL     1       2.574   2.336   1.035  0.00  0.00    +0.142 HD
ATOM     16  H   UNL     1       2.802   2.783   2.639  0.00  0.00    +0.142 HD
ENDBRANCH   8  14
ENDBRANCH   2   5
BRANCH   1  17
ATOM     17  C   UNL     1      -5.596   3.531   1.629  0.00  0.00    +0.094 C 
BRANCH  17  18
ATOM     18  C   UNL     1      -6.376   2.721   0.592  0.00  0.00    -0.019 C 
BRANCH  18  23
ATOM     19  C   UNL     1     -10.114   3.248   0.689  0.00  0.00    +0.000 A 
ATOM     20  C   UNL     1     -10.239   4.463   0.040  0.00  0.00    +0.001 A 
ATOM     21  C   UNL     1      -9.114   5.114  -0.431  0.00  0.00    +0.020 A 
ATOM     22  C   UNL     1      -7.863   4.553  -0.248  0.00  0.00    +0.043 A 
ATOM     23  C   UNL     1      -7.739   3.336   0.397  0.00  0.00    -0.041 A 
ATOM     24  C   UNL     1      -8.864   2.685   0.868  0.00  0.00    +0.003 A 
ATOM     25 CL   UNL     1      -6.449   5.374  -0.833  0.00  0.00    -0.083 Cl
ENDBRANCH  18  23
BRANCH  18  30
ATOM     26  C   UNL     1      -7.062   1.300   2.446  0.00  0.00    -0.078 C 
ATOM     27  C   UNL     1      -7.636  -0.134   2.566  0.00  0.00    -0.020 C 
ATOM     28  C   UNL     1      -8.233  -0.386   1.162  0.00  0.00    -0.020 C 
ATOM     29  C   UNL     1      -7.501   0.598   0.231  0.00  0.00    -0.078 C 
ATOM     30  N   UNL     1      -6.541   1.316   1.070  0.00  0.00    +0.385 N 
ATOM     31  H   UNL     1      -5.631   0.841   1.039  0.00  0.00    -0.081 HD
ENDBRANCH  18  30
ENDBRANCH  17  18
ENDBRANCH   1  17
TORSDOF 7
