REMARK  Name = ZINC12496815
REMARK  10 active torsions:
REMARK  status: ('A' for Active; 'I' for Inactive)
REMARK    1  A    between atoms: C_1  and  O_2
REMARK    2  A    between atoms: O_2  and  C_3
REMARK    3  A    between atoms: C_6  and  C_11
REMARK    4  A    between atoms: C_7  and  O_9
REMARK    5  A    between atoms: O_9  and  C_10
REMARK    6  A    between atoms: N_19  and  C_22
REMARK    7  A    between atoms: C_29  and  C_30
REMARK    8  A    between atoms: C_29  and  C_36
REMARK    9  A    between atoms: C_36  and  O_38
REMARK   10  A    between atoms: O_38  and  C_39
REMARK                            x       y       z     vdW  Elec       q    Type
REMARK                         _______ _______ _______ _____ _____    ______ ____
ROOT
ATOM      1  C   UNL     1      -2.142   2.501   3.461  0.00  0.00    -0.023 C 
ATOM      2  C   UNL     1      -1.120   2.077   4.438  0.00  0.00    +0.078 C 
ATOM      3  C   UNL     1      -0.920   3.406   5.272  0.00  0.00    +0.090 C 
ATOM      4  C   UNL     1      -0.058   2.790   6.340  0.00  0.00    +0.229 C 
ATOM      5  O   UNL     1      -0.045   3.063   7.521  0.00  0.00    -0.275 OA
ATOM      6  N   UNL     1       0.709   1.858   5.698  0.00  0.00    -0.210 N 
ATOM      7  C   UNL     1       0.220   1.534   4.457  0.00  0.00    +0.229 C 
ATOM      8  O   UNL     1       0.785   0.927   3.573  0.00  0.00    -0.275 OA
ATOM      9  C   UNL     1      -2.394   3.689   5.556  0.00  0.00    +0.070 C 
ATOM     10  N   UNL     1      -3.111   3.231   4.336  0.00  0.00    +0.398 N 
ATOM     11  H   UNL     1      -3.880   2.604   4.601  0.00  0.00    -0.083 HD
ATOM     12  H   UNL     1      -3.490   4.042   3.832  0.00  0.00    -0.083 HD
ENDROOT
BRANCH   6  13
ATOM     13  C   UNL     1       1.869   1.294   6.248  0.00  0.00    +0.044 A 
ATOM     14  C   UNL     1       2.300   1.681   7.509  0.00  0.00    +0.027 A 
ATOM     15  C   UNL     1       3.441   1.121   8.051  0.00  0.00    +0.040 A 
ATOM     16  C   UNL     1       4.160   0.181   7.332  0.00  0.00    +0.124 A 
ATOM     17  C   UNL     1       3.735  -0.203   6.071  0.00  0.00    +0.040 A 
ATOM     18  C   UNL     1       2.592   0.352   5.529  0.00  0.00    +0.027 A 
ATOM     19  F   UNL     1       5.278  -0.362   7.861  0.00  0.00    -0.205 F 
ENDBRANCH   6  13
BRANCH   1  23
ATOM     20  C   UNL     1      -0.462   5.117   0.524  0.00  0.00    +0.124 A 
ATOM     21  C   UNL     1      -1.036   5.638   1.675  0.00  0.00    +0.046 A 
ATOM     22  C   UNL     1      -1.575   4.790   2.624  0.00  0.00    +0.009 A 
ATOM     23  C   UNL     1      -1.548   3.422   2.427  0.00  0.00    -0.019 A 
ATOM     24  C   UNL     1      -0.970   2.897   1.280  0.00  0.00    +0.125 A 
ATOM     25  C   UNL     1      -0.429   3.746   0.326  0.00  0.00    +0.091 A 
BRANCH  20  27
ATOM     26  C   UNL     1      -0.002   7.353  -0.139  0.00  0.00    +0.277 C 
ATOM     27  O   UNL     1       0.067   5.952  -0.409  0.00  0.00    -0.495 OA
ENDBRANCH  20  27
BRANCH  24  28
ATOM     28  O   UNL     1      -0.940   1.552   1.089  0.00  0.00    -0.495 OA
ATOM     29  C   UNL     1      -0.335   1.081  -0.117  0.00  0.00    +0.277 C 
ENDBRANCH  24  28
ENDBRANCH   1  23
BRANCH   9  30
ATOM     30  C   UNL     1      -2.610   5.164   5.775  0.00  0.00    -0.047 A 
ATOM     31  C   UNL     1      -1.601   5.938   6.316  0.00  0.00    +0.003 A 
ATOM     32  C   UNL     1      -1.798   7.292   6.513  0.00  0.00    +0.000 A 
ATOM     33  C   UNL     1      -3.008   7.870   6.176  0.00  0.00    +0.000 A 
ATOM     34  C   UNL     1      -4.019   7.095   5.639  0.00  0.00    +0.000 A 
ATOM     35  C   UNL     1      -3.820   5.742   5.439  0.00  0.00    +0.003 A 
ENDBRANCH   9  30
BRANCH   9  36
ATOM     36  C   UNL     1      -2.853   2.910   6.761  0.00  0.00    +0.301 C 
ATOM     37  O   UNL     1      -2.827   3.420   7.856  0.00  0.00    -0.252 OA
BRANCH  36  38
ATOM     38  O   UNL     1      -3.290   1.649   6.619  0.00  0.00    -0.469 OA
ATOM     39  C   UNL     1      -3.716   0.959   7.823  0.00  0.00    +0.280 C 
ENDBRANCH  36  38
ENDBRANCH   9  36
TORSDOF 7
