REMARK  Name = ZINC11488847
REMARK  12 active torsions:
REMARK  status: ('A' for Active; 'I' for Inactive)
REMARK    1  A    between atoms: C_1  and  C_2
REMARK    2  A    between atoms: C_2  and  C_3
REMARK    3  A    between atoms: C_3  and  C_4
REMARK    4  A    between atoms: C_4  and  N_5
REMARK    5  A    between atoms: C_6  and  C_27
REMARK    6  A    between atoms: C_9  and  S_10
REMARK    7  A    between atoms: S_10  and  C_11
REMARK    8  A    between atoms: C_11  and  C_12
REMARK    9  A    between atoms: N_17  and  C_18
REMARK   10  A    between atoms: C_24  and  C_26
REMARK   11  A    between atoms: C_30  and  O_33
REMARK   12  A    between atoms: O_33  and  C_34
REMARK                            x       y       z     vdW  Elec       q    Type
REMARK                         _______ _______ _______ _____ _____    ______ ____
ROOT
ATOM      1  N   UNL     1       8.961   8.633  -3.239  0.00  0.00    -0.302 N 
ATOM      2  C   UNL     1      10.317   8.590  -3.013  0.00  0.00    +0.165 A 
ATOM      3  N   UNL     1      10.587   7.409  -2.508  0.00  0.00    -0.128 NA
ATOM      4  N   UNL     1       9.507   6.722  -2.398  0.00  0.00    -0.122 NA
ATOM      5  C   UNL     1       8.482   7.418  -2.835  0.00  0.00    +0.192 A 
ENDROOT
BRANCH   2   6
ATOM      6  C   UNL     1      11.288   9.670  -3.289  0.00  0.00    +0.020 A 
ATOM      7  C   UNL     1      12.650   9.379  -3.387  0.00  0.00    +0.015 A 
ATOM      8  C   UNL     1      13.551  10.388  -3.650  0.00  0.00    +0.046 A 
ATOM      9  C   UNL     1      13.108  11.695  -3.805  0.00  0.00    +0.120 A 
ATOM     10  C   UNL     1      11.755  11.989  -3.703  0.00  0.00    +0.046 A 
ATOM     11  C   UNL     1      10.846  10.985  -3.446  0.00  0.00    +0.015 A 
BRANCH   9  12
ATOM     12  O   UNL     1      14.000  12.688  -4.058  0.00  0.00    -0.495 OA
ATOM     13  C   UNL     1      15.377  12.315  -4.151  0.00  0.00    +0.277 C 
ENDBRANCH   9  12
ENDBRANCH   2   6
BRANCH   1  14
ATOM     14  C   UNL     1       8.190   9.748  -3.795  0.00  0.00    +0.126 C 
BRANCH  14  15
ATOM     15  C   UNL     1       7.644  10.609  -2.655  0.00  0.00    +0.021 C 
BRANCH  15  17
ATOM     16  C   UNL     1       6.294  12.636  -2.095  0.00  0.00    +0.004 C 
ATOM     17  C   UNL     1       6.840  11.774  -3.236  0.00  0.00    -0.002 C 
ENDBRANCH  15  17
ENDBRANCH  14  15
ENDBRANCH   1  14
BRANCH   5  18
ATOM     18  S   UNL     1       6.802   6.888  -2.885  0.00  0.00    -0.077 S 
BRANCH  18  19
ATOM     19  C   UNL     1       6.979   5.221  -2.203  0.00  0.00    +0.173 C 
BRANCH  19  20
ATOM     20  C   UNL     1       5.628   4.555  -2.149  0.00  0.00    +0.231 C 
ATOM     21  O   UNL     1       4.644   5.148  -2.534  0.00  0.00    -0.274 OA
ATOM     22  N   UNL     1       5.514   3.299  -1.673  0.00  0.00    -0.239 N 
ATOM     23  C   UNL     1       4.306   2.703  -1.625  0.00  0.00    +0.306 C 
ATOM     24  O   UNL     1       3.320   3.298  -2.011  0.00  0.00    -0.252 OA
ATOM     25  N   UNL     1       4.193   1.447  -1.149  0.00  0.00    -0.296 N 
ATOM     26  H   UNL     1       6.302   2.824  -1.365  0.00  0.00    +0.159 HD
ATOM     27  H   UNL     1       4.981   0.972  -0.841  0.00  0.00    +0.151 HD
BRANCH  25  28
ATOM     28  C   UNL     1       2.880   0.800  -1.097  0.00  0.00    +0.077 C 
ATOM     29  C   UNL     1       2.166   1.198   0.197  0.00  0.00    +0.022 C 
ATOM     30  C   UNL     1       0.795   0.521   0.252  0.00  0.00    +0.002 C 
ATOM     31  C   UNL     1       0.974  -0.998   0.214  0.00  0.00    +0.000 C 
ATOM     32  C   UNL     1       1.687  -1.396  -1.079  0.00  0.00    +0.005 C 
ATOM     33  C   UNL     1       3.059  -0.719  -1.134  0.00  0.00    +0.006 C 
ATOM     34  C   UNL     1       3.772  -1.117  -2.428  0.00  0.00    +0.009 C 
ENDBRANCH  25  28
ENDBRANCH  19  20
ENDBRANCH  18  19
ENDBRANCH   5  18
TORSDOF 9
