REMARK  Name = ZINC06162879
REMARK  8 active torsions:
REMARK  status: ('A' for Active; 'I' for Inactive)
REMARK    1  A    between atoms: C_1  and  C_2
REMARK    2  A    between atoms: C_5  and  C_30
REMARK    3  A    between atoms: C_6  and  O_8
REMARK    4  A    between atoms: O_8  and  C_9
REMARK    5  A    between atoms: C_15  and  O_29
REMARK    6  A    between atoms: C_16  and  C_24
REMARK    7  A    between atoms: C_19  and  C_20
REMARK    8  A    between atoms: C_24  and  N_53
REMARK                            x       y       z     vdW  Elec       q    Type
REMARK                         _______ _______ _______ _____ _____    ______ ____
ROOT
ATOM      1  C   UNL     1       3.544   3.567  -0.012  0.00  0.00    +0.222 A 
ATOM      2  C   UNL     1       3.650   2.147  -0.021  0.00  0.00    +0.235 A 
ATOM      3  O   UNL     1       4.736   1.591  -0.033  0.00  0.00    -0.283 OA
ATOM      4  C   UNL     1       2.394   1.378  -0.013  0.00  0.00    +0.068 A 
ATOM      5  C   UNL     1       2.396  -0.018  -0.020  0.00  0.00    +0.019 A 
ATOM      6  C   UNL     1       1.211  -0.697  -0.013  0.00  0.00    +0.046 A 
ATOM      7  C   UNL     1       0.002  -0.004   0.002  0.00  0.00    +0.122 A 
ATOM      8  C   UNL     1      -0.017   1.380   0.010  0.00  0.00    +0.020 A 
ATOM      9  C   UNL     1       1.179   2.085   0.002  0.00  0.00    +0.144 A 
ATOM     10  O   UNL     1       1.189   3.433   0.009  0.00  0.00    -0.447 OA
ATOM     11  C   UNL     1       2.325   4.143   0.002  0.00  0.00    +0.254 A 
ENDROOT
BRANCH  11  12
ATOM     12  C   UNL     1       2.237   5.647   0.011  0.00  0.00    +0.454 C 
ATOM     13  F   UNL     1       2.198   6.120  -1.304  0.00  0.00    -0.163 F 
ATOM     14  F   UNL     1       1.075   6.042   0.684  0.00  0.00    -0.163 F 
ATOM     15  F   UNL     1       3.356   6.176   0.664  0.00  0.00    -0.163 F 
ENDBRANCH  11  12
BRANCH   7  16
ATOM     16  O   UNL     1      -1.168  -0.693   0.009  0.00  0.00    -0.506 OA
ATOM     17  H   UNL     1      -1.515  -0.888  -0.872  0.00  0.00    +0.292 HD
ENDBRANCH   7  16
BRANCH   1  18
ATOM     18  O   UNL     1       4.666   4.338  -0.019  0.00  0.00    -0.448 OA
BRANCH  18  24
ATOM     19  C   UNL     1       4.421   4.225  -4.892  0.00  0.00    +0.044 C 
ATOM     20  C   UNL     1       5.089   4.671  -3.617  0.00  0.00    -0.047 A 
ATOM     21  C   UNL     1       6.227   5.454  -3.670  0.00  0.00    +0.004 A 
ATOM     22  C   UNL     1       6.843   5.864  -2.502  0.00  0.00    +0.007 A 
ATOM     23  C   UNL     1       6.322   5.492  -1.278  0.00  0.00    -0.008 A 
ATOM     24  C   UNL     1       5.180   4.706  -1.221  0.00  0.00    +0.132 A 
ATOM     25  C   UNL     1       4.567   4.292  -2.396  0.00  0.00    +0.050 A 
ATOM     26  C   UNL     1       6.995   5.938  -0.005  0.00  0.00    +0.047 C 
ENDBRANCH  18  24
ENDBRANCH   1  18
BRANCH   8  27
ATOM     27  C   UNL     1      -1.330   2.119   0.020  0.00  0.00    -0.036 C 
BRANCH  27  32
ATOM     28  C   UNL     1      -0.669   3.005   2.189  0.00  0.00    -0.078 C 
ATOM     29  C   UNL     1      -1.426   3.631   3.387  0.00  0.00    -0.020 C 
ATOM     30  C   UNL     1      -2.748   4.115   2.747  0.00  0.00    -0.020 C 
ATOM     31  C   UNL     1      -2.904   3.275   1.465  0.00  0.00    -0.078 C 
ATOM     32  N   UNL     1      -1.756   2.368   1.430  0.00  0.00    +0.383 N 
ATOM     33  H   UNL     1      -2.008   1.474   1.868  0.00  0.00    -0.081 HD
ENDBRANCH  27  32
ENDBRANCH   8  27
TORSDOF 6
