REMARK  Name = ZINC00208599
REMARK  6 active torsions:
REMARK  status: ('A' for Active; 'I' for Inactive)
REMARK    1  A    between atoms: C_1  and  C_2
REMARK    2  A    between atoms: N_8  and  C_15
REMARK    3  A    between atoms: C_9  and  C_13
REMARK    4  A    between atoms: C_9  and  C_14
REMARK    5  A    between atoms: C_11  and  C_12
REMARK    6  A    between atoms: C_15  and  N_16
REMARK                            x       y       z     vdW  Elec       q    Type
REMARK                         _______ _______ _______ _____ _____    ______ ____
ROOT
ATOM      1  C   UNL     1      -1.923   6.529   0.172  0.00  0.00    +0.044 C 
ATOM      2  C   UNL     1      -1.588   5.059   0.158  0.00  0.00    -0.049 A 
ATOM      3  C   UNL     1      -2.485   4.147   0.688  0.00  0.00    +0.004 A 
ATOM      4  C   UNL     1      -2.189   2.797   0.682  0.00  0.00    +0.010 A 
ATOM      5  C   UNL     1      -0.985   2.360   0.141  0.00  0.00    -0.001 A 
ATOM      6  C   UNL     1      -0.078   3.284  -0.398  0.00  0.00    +0.039 A 
ATOM      7  C   UNL     1      -0.389   4.635  -0.383  0.00  0.00    +0.027 A 
ATOM      8  N   UNL     1       1.122   2.834  -0.940  0.00  0.00    -0.304 N 
ATOM      9  C   UNL     1       1.676   1.700  -0.198  0.00  0.00    +0.050 C 
ATOM     10  C   UNL     1       0.653   0.607  -0.044  0.00  0.00    +0.002 C 
ATOM     11  C   UNL     1      -0.630   0.924   0.120  0.00  0.00    -0.043 C 
ATOM     12  C   UNL     1      -1.683  -0.142   0.281  0.00  0.00    +0.044 C 
ATOM     13  C   UNL     1       2.119   2.174   1.188  0.00  0.00    +0.036 C 
ATOM     14  C   UNL     1       2.889   1.151  -0.952  0.00  0.00    +0.036 C 
ENDROOT
BRANCH   8  15
ATOM     15  C   UNL     1       2.098   3.928  -1.038  0.00  0.00    +0.225 C 
BRANCH  15  16
ATOM     16  N   UNL     1       2.196   4.372  -2.430  0.00  0.00    -0.217 N 
ATOM     17  C   UNL     1       2.843   3.700  -3.400  0.00  0.00    +0.255 C 
ATOM     18  O   UNL     1       3.429   2.645  -3.262  0.00  0.00    -0.269 OA
ATOM     19  C   UNL     1       2.719   4.459  -4.662  0.00  0.00    +0.049 A 
ATOM     20  C   UNL     1       3.168   4.262  -5.958  0.00  0.00    +0.014 A 
ATOM     21  C   UNL     1       2.873   5.198  -6.937  0.00  0.00    +0.001 A 
ATOM     22  C   UNL     1       2.136   6.326  -6.629  0.00  0.00    +0.001 A 
ATOM     23  C   UNL     1       1.681   6.537  -5.337  0.00  0.00    +0.014 A 
ATOM     24  C   UNL     1       1.967   5.609  -4.348  0.00  0.00    +0.049 A 
ATOM     25  C   UNL     1       1.656   5.508  -2.907  0.00  0.00    +0.255 C 
ATOM     26  O   UNL     1       1.018   6.315  -2.261  0.00  0.00    -0.269 OA
ENDBRANCH  15  16
ENDBRANCH   8  15
TORSDOF 2
