REMARK  Name = ZINC66964883
REMARK  12 active torsions:
REMARK  status: ('A' for Active; 'I' for Inactive)
REMARK    1  A    between atoms: C_1  and  C_2
REMARK    2  A    between atoms: C_6  and  C_7
REMARK    3  A    between atoms: N_9  and  N_10
REMARK    4  A    between atoms: N_10  and  C_11
REMARK    5  A    between atoms: C_11  and  C_13
REMARK    6  A    between atoms: C_11  and  C_16
REMARK    7  A    between atoms: C_13  and  C_14
REMARK    8  A    between atoms: C_13  and  C_15
REMARK    9  A    between atoms: N_18  and  C_19
REMARK   10  A    between atoms: C_19  and  C_20
REMARK   11  A    between atoms: C_19  and  C_21
REMARK   12  A    between atoms: C_19  and  C_22
REMARK                            x       y       z     vdW  Elec       q    Type
REMARK                         _______ _______ _______ _____ _____    ______ ____
ROOT
ATOM      1  N   UNL     1      -0.350  -1.169   4.626  0.00  0.00    -0.228 NA
ATOM      2  H   UNL     1       0.203  -0.336   4.490  0.00  0.00    +0.145 HD
ENDROOT
BRANCH   1   5
ATOM      3  C   UNL     1      -0.668  -1.484   2.319  0.00  0.00    +0.264 C 
ATOM      4  O   UNL     1      -1.034  -0.328   2.216  0.00  0.00    -0.268 OA
ATOM      5  N   UNL     1      -0.306  -1.972   3.522  0.00  0.00    -0.246 N 
ATOM      6  H   UNL     1      -0.014  -2.894   3.603  0.00  0.00    +0.169 HD
BRANCH   3  12
ATOM      7  C   UNL     1      -1.431  -0.678  -0.592  0.00  0.00    +0.045 C 
ATOM      8  C   UNL     1      -0.947  -2.044  -0.179  0.00  0.00    -0.031 A 
ATOM      9  C   UNL     1      -0.794  -3.069  -1.083  0.00  0.00    +0.011 A 
ATOM     10  C   UNL     1      -0.353  -4.274  -0.644  0.00  0.00    +0.046 A 
ATOM     11  S   UNL     1      -0.132  -4.055   1.006  0.00  0.00    -0.092 S 
ATOM     12  C   UNL     1      -0.621  -2.346   1.134  0.00  0.00    +0.078 A 
ENDBRANCH   3  12
ENDBRANCH   1   5
BRANCH   1  13
ATOM     13  C   UNL     1       0.084  -1.899   5.825  0.00  0.00    +0.161 C 
BRANCH  13  14
ATOM     14  C   UNL     1      -0.620  -1.341   7.035  0.00  0.00    +0.232 C 
ATOM     15  O   UNL     1      -1.155  -0.254   6.978  0.00  0.00    -0.274 OA
ATOM     16  N   UNL     1      -0.654  -2.049   8.181  0.00  0.00    -0.309 N 
ATOM     17  H   UNL     1      -0.291  -2.948   8.206  0.00  0.00    +0.149 HD
BRANCH  16  18
ATOM     18  C   UNL     1      -1.240  -1.461   9.388  0.00  0.00    +0.026 C 
ATOM     19  C   UNL     1      -2.707  -1.112   9.125  0.00  0.00    +0.031 C 
ATOM     20  C   UNL     1      -1.154  -2.467  10.538  0.00  0.00    +0.031 C 
ATOM     21  C   UNL     1      -0.472  -0.192   9.762  0.00  0.00    +0.031 C 
ENDBRANCH  16  18
ENDBRANCH  13  14
BRANCH  13  22
ATOM     22  C   UNL     1       1.597  -1.742   5.998  0.00  0.00    +0.010 C 
ATOM     23  C   UNL     1       2.308  -2.252   4.743  0.00  0.00    +0.009 C 
ATOM     24  C   UNL     1       1.935  -0.265   6.211  0.00  0.00    +0.009 C 
ENDBRANCH  13  22
ENDBRANCH   1  13
TORSDOF 6
