REMARK  Name = ZINC04493946
REMARK  13 active torsions:
REMARK  status: ('A' for Active; 'I' for Inactive)
REMARK    1  A    between atoms: C_1  and  C_2
REMARK    2  A    between atoms: C_3  and  C_24
REMARK    3  A    between atoms: C_4  and  C_11
REMARK    4  A    between atoms: N_9  and  C_10
REMARK    5  A    between atoms: C_15  and  N_17
REMARK    6  A    between atoms: C_18  and  C_20
REMARK    7  A    between atoms: C_20  and  C_21
REMARK    8  A    between atoms: C_20  and  C_22
REMARK    9  A    between atoms: C_20  and  C_23
REMARK   10  A    between atoms: C_24  and  O_26
REMARK   11  A    between atoms: O_26  and  C_27
REMARK   12  A    between atoms: C_27  and  C_28
REMARK   13  A    between atoms: C_27  and  C_29
REMARK                            x       y       z     vdW  Elec       q    Type
REMARK                         _______ _______ _______ _____ _____    ______ ____
ROOT
ATOM      1  C   UNL     1      -1.288   7.420   2.694  0.00  0.00    +0.061 C 
ATOM      2  C   UNL     1      -1.199   6.768   1.338  0.00  0.00    +0.021 C 
ATOM      3  C   UNL     1      -0.154   5.961   1.056  0.00  0.00    +0.078 C 
ATOM      4  C   UNL     1      -0.102   5.326  -0.319  0.00  0.00    +0.141 C 
ATOM      5  N   UNL     1      -1.205   5.645  -1.241  0.00  0.00    -0.315 N 
ATOM      6  C   UNL     1      -2.181   6.471  -0.814  0.00  0.00    +0.137 C 
ATOM      7  S   UNL     1      -3.469   6.850  -1.876  0.00  0.00    -0.018 S 
ATOM      8  N   UNL     1      -2.175   7.004   0.414  0.00  0.00    -0.289 N 
ATOM      9  C   UNL     1      -3.280   7.890   0.788  0.00  0.00    +0.137 C 
ATOM     10  H   UNL     1      -1.229   5.269  -2.135  0.00  0.00    +0.149 HD
ENDROOT
BRANCH   4  11
ATOM     11  C   UNL     1      -0.065   3.830  -0.139  0.00  0.00    -0.021 A 
ATOM     12  C   UNL     1      -1.241   3.127   0.046  0.00  0.00    +0.006 A 
ATOM     13  C   UNL     1      -1.210   1.754   0.206  0.00  0.00    +0.002 A 
ATOM     14  C   UNL     1      -0.004   1.082   0.192  0.00  0.00    +0.023 A 
ATOM     15  C   UNL     1       1.179   1.785   0.006  0.00  0.00    +0.034 A 
ATOM     16  C   UNL     1       1.145   3.163  -0.160  0.00  0.00    +0.029 A 
BRANCH  15  17
ATOM     17  N   UNL     1       2.402   1.106  -0.015  0.00  0.00    -0.285 N 
ATOM     18  C   UNL     1       2.471  -0.143  -0.517  0.00  0.00    +0.223 C 
ATOM     19  O   UNL     1       1.496  -0.643  -1.036  0.00  0.00    -0.275 OA
ATOM     20  H   UNL     1       3.201   1.535   0.331  0.00  0.00    +0.155 HD
BRANCH  18  21
ATOM     21  C   UNL     1       3.761  -0.919  -0.432  0.00  0.00    +0.039 C 
ATOM     22  C   UNL     1       3.570  -2.296  -1.069  0.00  0.00    +0.020 C 
ATOM     23  C   UNL     1       4.862  -0.160  -1.175  0.00  0.00    +0.020 C 
ATOM     24  C   UNL     1       4.159  -1.087   1.036  0.00  0.00    +0.020 C 
ENDBRANCH  18  21
ENDBRANCH  15  17
ENDBRANCH   4  11
BRANCH   3  25
ATOM     25  C   UNL     1       0.858   5.716   2.013  0.00  0.00    +0.339 C 
ATOM     26  O   UNL     1       0.796   6.236   3.111  0.00  0.00    -0.245 OA
BRANCH  25  27
ATOM     27  O   UNL     1       1.893   4.905   1.708  0.00  0.00    -0.459 OA
BRANCH  27  28
ATOM     28  C   UNL     1       2.879   4.702   2.722  0.00  0.00    +0.171 C 
ATOM     29  C   UNL     1       2.489   3.496   3.579  0.00  0.00    +0.052 C 
ATOM     30  C   UNL     1       4.238   4.444   2.068  0.00  0.00    +0.052 C 
ENDBRANCH  27  28
ENDBRANCH  25  27
ENDBRANCH   3  25
TORSDOF 6
