REMARK  Name = ZINC10048027
REMARK  10 active torsions:
REMARK  status: ('A' for Active; 'I' for Inactive)
REMARK    1  A    between atoms: C_1  and  C_2
REMARK    2  A    between atoms: C_2  and  C_3
REMARK    3  A    between atoms: C_2  and  C_4
REMARK    4  A    between atoms: C_2  and  C_5
REMARK    5  A    between atoms: N_7  and  C_28
REMARK    6  A    between atoms: N_16  and  C_21
REMARK    7  A    between atoms: N_19  and  C_20
REMARK    8  A    between atoms: C_21  and  C_22
REMARK    9  A    between atoms: C_22  and  N_64
REMARK   10  A    between atoms: C_28  and  C_29
REMARK                            x       y       z     vdW  Elec       q    Type
REMARK                         _______ _______ _______ _____ _____    ______ ____
ROOT
ATOM      1  C   UNL     1      -0.738   1.583  -1.212  0.00  0.00    +0.062 C 
ATOM      2  N   UNL     1      -1.641   2.474  -1.191  0.00  0.00    -0.184 NA
ATOM      3  N   UNL     1      -2.070   3.093  -0.005  0.00  0.00    -0.184 N 
ATOM      4  C   UNL     1      -1.671   2.519   1.186  0.00  0.00    +0.221 A 
ATOM      5  N   UNL     1      -2.098   2.749   2.405  0.00  0.00    -0.195 NA
ATOM      6  C   UNL     1      -1.448   1.973   3.257  0.00  0.00    +0.170 A 
ATOM      7  C   UNL     1      -0.539   1.193   2.522  0.00  0.00    +0.153 A 
ATOM      8  N   UNL     1      -0.695   1.556   1.213  0.00  0.00    -0.299 N 
ATOM      9  C   UNL     1      -0.013   1.086   0.008  0.00  0.00    +0.178 C 
ATOM     10  C   UNL     1       0.297   0.266   3.176  0.00  0.00    +0.282 A 
ATOM     11  O   UNL     1       1.094  -0.422   2.563  0.00  0.00    -0.265 OA
ATOM     12  N   UNL     1       0.168   0.180   4.523  0.00  0.00    -0.261 N 
ATOM     13  C   UNL     1      -0.704   0.929   5.215  0.00  0.00    +0.333 A 
ATOM     14  O   UNL     1      -0.756   0.789   6.422  0.00  0.00    -0.246 OA
ATOM     15  N   UNL     1      -1.527   1.833   4.636  0.00  0.00    -0.280 N 
ATOM     16  C   UNL     1      -2.465   2.630   5.431  0.00  0.00    +0.155 C 
ENDROOT
BRANCH   1  18
ATOM     17  C   UNL     1      -1.218   1.625  -3.644  0.00  0.00    +0.017 C 
ATOM     18  C   UNL     1      -0.368   0.985  -2.545  0.00  0.00    +0.004 C 
ATOM     19  C   UNL     1       1.113   1.245  -2.827  0.00  0.00    +0.017 C 
ATOM     20  C   UNL     1      -0.624  -0.524  -2.515  0.00  0.00    +0.017 C 
ENDBRANCH   1  18
BRANCH  12  21
ATOM     21  C   UNL     1       1.013  -0.769   5.252  0.00  0.00    +0.111 C 
BRANCH  21  22
ATOM     22  C   UNL     1       0.302  -2.120   5.343  0.00  0.00    -0.057 C 
BRANCH  22  28
ATOM     23  C   UNL     1       2.377  -3.367   5.323  0.00  0.00    -0.079 C 
ATOM     24  C   UNL     1       3.299  -4.243   6.174  0.00  0.00    -0.019 C 
ATOM     25  C   UNL     1       2.573  -5.542   6.533  0.00  0.00    -0.004 C 
ATOM     26  C   UNL     1       1.275  -5.205   7.272  0.00  0.00    -0.019 C 
ATOM     27  C   UNL     1       0.411  -4.301   6.389  0.00  0.00    -0.079 C 
ATOM     28  N   UNL     1       1.157  -3.058   6.100  0.00  0.00    +0.381 N 
ATOM     29  H   UNL     1       1.430  -2.619   6.987  0.00  0.00    -0.082 HD
ENDBRANCH  22  28
ENDBRANCH  21  22
ENDBRANCH  12  21
BRANCH   3  30
ATOM     30  C   UNL     1      -2.905   4.297  -0.031  0.00  0.00    +0.230 C 
BRANCH  30  31
ATOM     31  C   UNL     1      -2.024   5.519  -0.040  0.00  0.00    +0.230 C 
ATOM     32  O   UNL     1      -0.817   5.397  -0.026  0.00  0.00    -0.274 OA
ATOM     33  N   UNL     1      -2.577   6.748  -0.064  0.00  0.00    -0.328 N 
ATOM     34  H   UNL     1      -3.542   6.846  -0.074  0.00  0.00    +0.145 HD
ATOM     35  H   UNL     1      -2.009   7.535  -0.069  0.00  0.00    +0.145 HD
ENDBRANCH  30  31
ENDBRANCH   3  30
TORSDOF 6
