REMARK  Name = ZINC07116527
REMARK  8 active torsions:
REMARK  status: ('A' for Active; 'I' for Inactive)
REMARK    1  A    between atoms: C_1  and  C_2
REMARK    2  A    between atoms: C_5  and  C_8
REMARK    3  A    between atoms: C_10  and  C_13
REMARK    4  A    between atoms: C_13  and  C_14
REMARK    5  A    between atoms: C_14  and  C_15
REMARK    6  A    between atoms: N_17  and  C_18
REMARK    7  A    between atoms: C_18  and  C_20
REMARK    8  A    between atoms: C_18  and  C_21
REMARK                            x       y       z     vdW  Elec       q    Type
REMARK                         _______ _______ _______ _____ _____    ______ ____
ROOT
ATOM      1  C   UNL     1      -1.319  -9.084   2.892  0.00  0.00    +0.214 C 
ATOM      2  O   UNL     1      -0.263  -9.546   3.267  0.00  0.00    -0.276 OA
ATOM      3  N   UNL     1      -2.479  -9.628   3.311  0.00  0.00    -0.306 N 
ATOM      4  H   UNL     1      -3.324  -9.258   3.011  0.00  0.00    +0.149 HD
ENDROOT
BRANCH   3   5
ATOM      5  C   UNL     1      -2.463 -10.778   4.218  0.00  0.00    +0.136 C 
ATOM      6  C   UNL     1      -2.343 -10.287   5.662  0.00  0.00    +0.036 C 
BRANCH   5   7
ATOM      7  C   UNL     1      -3.741 -11.561   4.059  0.00  0.00    +0.126 A 
ATOM      8  C   UNL     1      -3.828 -12.898   4.065  0.00  0.00    +0.055 A 
ATOM      9  C   UNL     1      -5.248 -13.217   3.881  0.00  0.00    +0.020 A 
ATOM     10  C   UNL     1      -5.979 -14.402   3.800  0.00  0.00    +0.011 A 
ATOM     11  C   UNL     1      -7.333 -14.352   3.620  0.00  0.00    +0.001 A 
ATOM     12  C   UNL     1      -7.984 -13.131   3.518  0.00  0.00    +0.004 A 
ATOM     13  C   UNL     1      -7.278 -11.949   3.596  0.00  0.00    +0.047 A 
ATOM     14  C   UNL     1      -5.901 -11.977   3.779  0.00  0.00    +0.135 A 
ATOM     15  O   UNL     1      -4.961 -11.019   3.897  0.00  0.00    -0.458 OA
ENDBRANCH   5   7
ENDBRANCH   3   5
BRANCH   1  16
ATOM     16  C   UNL     1      -1.335  -7.901   1.959  0.00  0.00    +0.105 C 
BRANCH  16  17
ATOM     17  C   UNL     1       0.102  -7.482   1.642  0.00  0.00    +0.108 C 
BRANCH  17  20
ATOM     18  C   UNL     1       0.059  -4.256  -0.021  0.00  0.00    +0.202 A 
ATOM     19  N   UNL     1       0.070  -5.047   1.067  0.00  0.00    -0.191 NA
ATOM     20  C   UNL     1       0.086  -6.299   0.708  0.00  0.00    +0.228 A 
ATOM     21  O   UNL     1       0.086  -6.357  -0.630  0.00  0.00    -0.338 OA
ATOM     22  N   UNL     1       0.064  -5.015  -1.090  0.00  0.00    -0.056 NA
BRANCH  18  27
ATOM     23  C   UNL     1      -0.018   1.503   0.010  0.00  0.00    +0.044 C 
ATOM     24  C   UNL     1       0.002  -0.004   0.002  0.00  0.00    -0.050 A 
ATOM     25  C   UNL     1       0.006  -0.686  -1.201  0.00  0.00    +0.004 A 
ATOM     26  C   UNL     1       0.024  -2.067  -1.214  0.00  0.00    +0.012 A 
ATOM     27  C   UNL     1       0.040  -2.772  -0.013  0.00  0.00    +0.022 A 
ATOM     28  C   UNL     1       0.036  -2.080   1.196  0.00  0.00    +0.012 A 
ATOM     29  C   UNL     1       0.023  -0.700   1.198  0.00  0.00    +0.004 A 
ENDBRANCH  18  27
ENDBRANCH  17  20
ENDBRANCH  16  17
ENDBRANCH   1  16
TORSDOF 6
