REMARK  Name = ZINC19793184
REMARK  10 active torsions:
REMARK  status: ('A' for Active; 'I' for Inactive)
REMARK    1  A    between atoms: C_1  and  C_2
REMARK    2  A    between atoms: C_2  and  O_3
REMARK    3  A    between atoms: O_3  and  C_4
REMARK    4  A    between atoms: C_9  and  O_10
REMARK    5  A    between atoms: O_10  and  C_11
REMARK    6  A    between atoms: C_17  and  O_34
REMARK    7  A    between atoms: C_18  and  C_26
REMARK    8  A    between atoms: C_21  and  C_22
REMARK    9  A    between atoms: C_26  and  N_27
REMARK   10  A    between atoms: N_30  and  C_33
REMARK                            x       y       z     vdW  Elec       q    Type
REMARK                         _______ _______ _______ _____ _____    ______ ____
ROOT
ATOM      1  C   UNL     1      -3.697   3.485   0.038  0.00  0.00    +0.222 A 
ATOM      2  C   UNL     1      -2.522   4.289   0.049  0.00  0.00    +0.235 A 
ATOM      3  O   UNL     1      -2.586   5.507   0.057  0.00  0.00    -0.283 OA
ATOM      4  C   UNL     1      -1.226   3.589   0.033  0.00  0.00    +0.068 A 
ATOM      5  C   UNL     1      -0.020   4.292   0.025  0.00  0.00    +0.019 A 
ATOM      6  C   UNL     1       1.162   3.607   0.010  0.00  0.00    +0.046 A 
ATOM      7  C   UNL     1       1.169   2.214   0.003  0.00  0.00    +0.125 A 
ATOM      8  C   UNL     1      -0.018   1.503   0.010  0.00  0.00    +0.051 A 
ATOM      9  C   UNL     1      -1.228   2.183   0.020  0.00  0.00    +0.147 A 
ATOM     10  O   UNL     1      -2.399   1.515   0.022  0.00  0.00    -0.447 OA
ATOM     11  C   UNL     1      -3.583   2.142   0.031  0.00  0.00    +0.254 A 
ENDROOT
BRANCH  11  12
ATOM     12  C   UNL     1      -4.840   1.311   0.032  0.00  0.00    +0.454 C 
ATOM     13  F   UNL     1      -5.236   1.061  -1.286  0.00  0.00    -0.163 F 
ATOM     14  F   UNL     1      -4.596   0.097   0.684  0.00  0.00    -0.163 F 
ATOM     15  F   UNL     1      -5.856   2.003   0.700  0.00  0.00    -0.163 F 
ENDBRANCH  11  12
BRANCH   7  16
ATOM     16  O   UNL     1       2.352   1.548  -0.012  0.00  0.00    -0.506 OA
ATOM     17  H   UNL     1       2.364   0.448  -0.018  0.00  0.00    +0.292 HD
ENDBRANCH   7  16
BRANCH   1  18
ATOM     18  O   UNL     1      -4.927   4.068   0.046  0.00  0.00    -0.445 OA
BRANCH  18  24
ATOM     19  C   UNL     1      -6.755   4.932   1.309  0.00  0.00    +0.163 A 
ATOM     20  C   UNL     1      -7.333   5.202   2.539  0.00  0.00    +0.049 A 
ATOM     21  C   UNL     1      -6.663   4.879   3.704  0.00  0.00    +0.004 A 
ATOM     22  C   UNL     1      -5.415   4.287   3.646  0.00  0.00    +0.004 A 
ATOM     23  C   UNL     1      -4.834   4.010   2.422  0.00  0.00    +0.050 A 
ATOM     24  C   UNL     1      -5.499   4.336   1.250  0.00  0.00    +0.170 A 
BRANCH  19  25
ATOM     25  O   UNL     1      -7.414   5.248   0.162  0.00  0.00    -0.489 OA
BRANCH  25  27
ATOM     26  C   UNL     1      -9.281   6.138  -1.088  0.00  0.00    +0.048 C 
ATOM     27  C   UNL     1      -8.699   5.857   0.299  0.00  0.00    +0.226 C 
ENDBRANCH  25  27
ENDBRANCH  19  25
ENDBRANCH  18  24
ENDBRANCH   1  18
BRANCH   8  28
ATOM     28  C   UNL     1       0.002  -0.004   0.002  0.00  0.00    +0.126 C 
BRANCH  28  29
ATOM     29  N   UNL     1       0.022  -0.501   1.384  0.00  0.00    -0.301 NA
ATOM     30  C   UNL     1       1.279  -0.141   2.055  0.00  0.00    +0.066 C 
ATOM     31  C   UNL     1       1.227  -0.606   3.513  0.00  0.00    -0.064 C 
ATOM     32  N   UNL     1       1.009  -2.059   3.553  0.00  0.00    +0.379 N 
ATOM     33  C   UNL     1      -0.248  -2.419   2.882  0.00  0.00    -0.064 C 
ATOM     34  C   UNL     1      -0.196  -1.954   1.425  0.00  0.00    +0.066 C 
ATOM     35  C   UNL     1       1.029  -2.556   4.935  0.00  0.00    -0.096 C 
ATOM     36  H   UNL     1       1.835  -2.542   3.009  0.00  0.00    -0.082 HD
ENDBRANCH  28  29
ENDBRANCH   8  28
TORSDOF 8
