REMARK  Name = ZINC22089989
REMARK  10 active torsions:
REMARK  status: ('A' for Active; 'I' for Inactive)
REMARK    1  A    between atoms: C_1  and  C_2
REMARK    2  A    between atoms: C_2  and  C_3
REMARK    3  A    between atoms: C_3  and  C_4
REMARK    4  A    between atoms: C_4  and  C_6
REMARK    5  A    between atoms: C_4  and  C_26
REMARK    6  A    between atoms: C_6  and  N_7
REMARK    7  A    between atoms: C_8  and  C_10
REMARK    8  A    between atoms: C_10  and  N_11
REMARK    9  A    between atoms: N_14  and  C_17
REMARK   10  A    between atoms: C_17  and  C_18
REMARK                            x       y       z     vdW  Elec       q    Type
REMARK                         _______ _______ _______ _____ _____    ______ ____
ROOT
ATOM      1  N   UNL     1      -2.061   0.763   3.768  0.00  0.00    -0.316 N 
ATOM      2  C   UNL     1      -2.925   0.952   4.785  0.00  0.00    +0.196 C 
ATOM      3  O   UNL     1      -2.635   1.699   5.695  0.00  0.00    -0.278 OA
ATOM      4  H   UNL     1      -2.323   0.085   2.942  0.00  0.00    +0.149 HD
ENDROOT
BRANCH   1   5
ATOM      5  C   UNL     1      -0.772   1.460   3.762  0.00  0.00    +0.112 C 
BRANCH   5   6
ATOM      6  C   UNL     1       0.011   1.072   2.506  0.00  0.00    +0.038 C 
BRANCH   6   7
ATOM      7  C   UNL     1       1.384   1.692   2.560  0.00  0.00    -0.024 A 
ATOM      8  C   UNL     1       1.520   3.066   2.623  0.00  0.00    +0.007 A 
ATOM      9  C   UNL     1       2.779   3.634   2.678  0.00  0.00    +0.020 A 
ATOM     10  C   UNL     1       3.904   2.829   2.659  0.00  0.00    +0.042 A 
ATOM     11  C   UNL     1       3.768   1.454   2.590  0.00  0.00    +0.040 A 
ATOM     12  C   UNL     1       2.508   0.885   2.541  0.00  0.00    +0.046 A 
ATOM     13 CL   UNL     1       2.337  -0.840   2.455  0.00  0.00    -0.083 Cl
ATOM     14 CL   UNL     1       5.484   3.543   2.721  0.00  0.00    -0.083 Cl
ENDBRANCH   6   7
BRANCH   6  15
ATOM     15  C   UNL     1      -0.729   1.579   1.267  0.00  0.00    +0.009 C 
BRANCH  15  17
ATOM     16  C   UNL     1      -0.753   1.593  -1.232  0.00  0.00    +0.004 C 
ATOM     17  C   UNL     1      -0.013   1.086   0.008  0.00  0.00    -0.003 C 
ENDBRANCH  15  17
ENDBRANCH   6  15
ENDBRANCH   5   6
ENDBRANCH   1   5
BRANCH   2  18
ATOM     18  C   UNL     1      -4.250   0.235   4.791  0.00  0.00    +0.019 C 
BRANCH  18  19
ATOM     19  N   UNL     1      -5.003   0.607   5.997  0.00  0.00    +0.387 N 
ATOM     20  C   UNL     1      -4.335   0.110   7.208  0.00  0.00    -0.063 C 
ATOM     21  C   UNL     1      -5.105   0.585   8.443  0.00  0.00    +0.066 C 
ATOM     22  N   UNL     1      -6.489   0.098   8.371  0.00  0.00    -0.298 NA
ATOM     23  C   UNL     1      -7.157   0.594   7.159  0.00  0.00    +0.066 C 
ATOM     24  C   UNL     1      -6.387   0.119   5.925  0.00  0.00    -0.063 C 
ATOM     25  H   UNL     1      -5.032   1.705   6.050  0.00  0.00    -0.081 HD
BRANCH  22  26
ATOM     26  C   UNL     1      -7.242   0.469   9.576  0.00  0.00    +0.180 C 
BRANCH  26  27
ATOM     27  C   UNL     1      -6.671  -0.256  10.768  0.00  0.00    +0.230 C 
ATOM     28  O   UNL     1      -5.731  -1.008  10.627  0.00  0.00    -0.274 OA
ATOM     29  N   UNL     1      -7.207  -0.068  11.991  0.00  0.00    -0.296 N 
ATOM     30  C   UNL     1      -8.344   0.845  12.188  0.00  0.00    +0.136 C 
ATOM     31  C   UNL     1      -9.429   0.094  12.976  0.00  0.00    +0.179 C 
ATOM     32  O   UNL     1      -8.850  -0.461  14.159  0.00  0.00    -0.377 OA
ATOM     33  C   UNL     1      -7.830  -1.433  13.911  0.00  0.00    +0.179 C 
ATOM     34  C   UNL     1      -6.667  -0.765  13.169  0.00  0.00    +0.136 C 
ENDBRANCH  26  27
ENDBRANCH  22  26
ENDBRANCH  18  19
ENDBRANCH   2  18
TORSDOF 9
