REMARK  Name = ZINC12485671
REMARK  9 active torsions:
REMARK  status: ('A' for Active; 'I' for Inactive)
REMARK    1  A    between atoms: C_1  and  C_2
REMARK    2  A    between atoms: C_2  and  C_3
REMARK    3  A    between atoms: C_2  and  C_4
REMARK    4  A    between atoms: C_2  and  C_5
REMARK    5  A    between atoms: C_8  and  C_11
REMARK    6  A    between atoms: C_23  and  C_26
REMARK    7  A    between atoms: C_29  and  N_32
REMARK    8  A    between atoms: N_32  and  C_33
REMARK    9  A    between atoms: N_32  and  C_34
REMARK                            x       y       z     vdW  Elec       q    Type
REMARK                         _______ _______ _______ _____ _____    ______ ____
ROOT
ATOM      1  C   UNL     1       2.840  -3.775   0.634  0.00  0.00    +0.146 C 
ATOM      2  N   UNL     1       2.522  -2.724  -0.058  0.00  0.00    -0.229 NA
ATOM      3  C   UNL     1       1.304  -2.118  -0.048  0.00  0.00    +0.083 A 
ATOM      4  C   UNL     1       1.286  -0.697  -0.060  0.00  0.00    +0.008 A 
ATOM      5  C   UNL     1       2.486   0.032  -0.066  0.00  0.00    +0.010 A 
ATOM      6  C   UNL     1       2.447   1.393  -0.078  0.00  0.00    +0.001 A 
ATOM      7  C   UNL     1       1.231   2.076  -0.084  0.00  0.00    +0.001 A 
ATOM      8  C   UNL     1       0.049   1.401  -0.077  0.00  0.00    +0.008 A 
ATOM      9  C   UNL     1       0.051  -0.005  -0.063  0.00  0.00    -0.016 A 
ATOM     10  C   UNL     1      -1.149  -0.734  -0.053  0.00  0.00    +0.009 A 
ATOM     11  C   UNL     1      -1.117  -2.093  -0.034  0.00  0.00    +0.013 A 
ATOM     12  C   UNL     1       0.095  -2.806  -0.029  0.00  0.00    +0.028 A 
ATOM     13  C   UNL     1       0.011  -4.286   0.002  0.00  0.00    +0.098 C 
ATOM     14  N   UNL     1       0.814  -5.030   0.686  0.00  0.00    -0.180 NA
ATOM     15  N   UNL     1       1.898  -4.468   1.376  0.00  0.00    -0.220 N 
ATOM     16  H   UNL     1       1.984  -4.561   2.338  0.00  0.00    +0.176 HD
ENDROOT
BRANCH   1  20
ATOM     17  C   UNL     1       6.865  -5.124   0.620  0.00  0.00    -0.042 A 
ATOM     18  C   UNL     1       5.913  -5.806   1.357  0.00  0.00    +0.005 A 
ATOM     19  C   UNL     1       4.604  -5.374   1.367  0.00  0.00    +0.011 A 
ATOM     20  C   UNL     1       4.239  -4.244   0.629  0.00  0.00    +0.016 A 
ATOM     21  C   UNL     1       5.205  -3.564  -0.117  0.00  0.00    +0.011 A 
ATOM     22  C   UNL     1       6.512  -4.005  -0.113  0.00  0.00    +0.005 A 
BRANCH  17  24
ATOM     23  C   UNL     1       8.352  -7.030   0.067  0.00  0.00    +0.015 C 
ATOM     24  C   UNL     1       8.294  -5.603   0.615  0.00  0.00    -0.013 C 
ATOM     25  C   UNL     1       9.138  -4.682  -0.269  0.00  0.00    +0.015 C 
ATOM     26  C   UNL     1       8.844  -5.582   2.043  0.00  0.00    +0.015 C 
ENDBRANCH  17  24
ENDBRANCH   1  20
BRANCH  13  27
ATOM     27  C   UNL     1      -1.048  -4.944  -0.793  0.00  0.00    +0.003 A 
ATOM     28  C   UNL     1      -1.492  -6.221  -0.445  0.00  0.00    +0.012 A 
ATOM     29  C   UNL     1      -2.482  -6.830  -1.185  0.00  0.00    +0.024 A 
ATOM     30  C   UNL     1      -3.033  -6.178  -2.284  0.00  0.00    +0.029 A 
ATOM     31  C   UNL     1      -2.589  -4.907  -2.635  0.00  0.00    +0.024 A 
ATOM     32  C   UNL     1      -1.603  -4.291  -1.897  0.00  0.00    +0.012 A 
BRANCH  30  33
ATOM     33  N   UNL     1      -4.031  -6.799  -3.034  0.00  0.00    -0.336 N 
ATOM     34  C   UNL     1      -4.611  -6.113  -4.191  0.00  0.00    +0.129 C 
ATOM     35  C   UNL     1      -4.499  -8.137  -2.665  0.00  0.00    +0.129 C 
ENDBRANCH  30  33
ENDBRANCH  13  27
TORSDOF 4
