REMARK  Name = ZINC39674636
REMARK  7 active torsions:
REMARK  status: ('A' for Active; 'I' for Inactive)
REMARK    1  A    between atoms: C_1  and  C_2
REMARK    2  A    between atoms: C_4  and  C_14
REMARK    3  A    between atoms: C_7  and  C_12
REMARK    4  A    between atoms: C_14  and  C_15
REMARK    5  A    between atoms: C_15  and  N_16
REMARK    6  A    between atoms: C_17  and  C_19
REMARK    7  A    between atoms: C_30  and  C_32
REMARK                            x       y       z     vdW  Elec       q    Type
REMARK                         _______ _______ _______ _____ _____    ______ ____
ROOT
ATOM      1  C   UNL     1      -7.120  -1.150  -2.393  0.00  0.00    +0.100 C 
ATOM      2  C   UNL     1      -7.567   0.329  -2.380  0.00  0.00    +0.121 C 
ATOM      3  N   UNL     1      -9.031   0.279  -2.606  0.00  0.00    -0.296 N 
ATOM      4  C   UNL     1      -9.486  -0.891  -1.818  0.00  0.00    +0.115 C 
ATOM      5  C   UNL     1      -8.381  -1.948  -2.022  0.00  0.00    -0.004 C 
ATOM      6  C   UNL     1      -8.153  -2.728  -0.731  0.00  0.00    -0.010 C 
ATOM      7  C   UNL     1      -9.400  -3.558  -0.415  0.00  0.00    -0.082 C 
ATOM      8  N   UNL     1      -9.672  -4.479  -1.526  0.00  0.00    +0.379 N 
ATOM      9  C   UNL     1      -9.982  -3.718  -2.742  0.00  0.00    -0.082 C 
ATOM     10  C   UNL     1      -8.760  -2.895  -3.157  0.00  0.00    -0.010 C 
ATOM     11  C   UNL     1      -9.779   1.110  -3.358  0.00  0.00    +0.252 C 
ATOM     12  O   UNL     1     -10.980   0.937  -3.444  0.00  0.00    -0.270 OA
ATOM     13  H   UNL     1      -8.861  -5.056  -1.689  0.00  0.00    -0.086 HD
ATOM     14  H   UNL     1     -10.458  -5.067  -1.289  0.00  0.00    -0.086 HD
ENDROOT
BRANCH  11  15
ATOM     15  C   UNL     1      -9.142   2.230  -4.077  0.00  0.00    +0.107 A 
ATOM     16  C   UNL     1      -8.671   2.051  -5.382  0.00  0.00    +0.138 A 
ATOM     17  C   UNL     1      -8.076   3.106  -6.048  0.00  0.00    +0.039 A 
ATOM     18  C   UNL     1      -7.945   4.335  -5.428  0.00  0.00    +0.006 A 
ATOM     19  C   UNL     1      -8.407   4.520  -4.138  0.00  0.00    +0.039 A 
ATOM     20  C   UNL     1      -9.010   3.478  -3.459  0.00  0.00    +0.138 A 
ATOM     21  F   UNL     1      -9.466   3.663  -2.201  0.00  0.00    -0.205 F 
ATOM     22  F   UNL     1      -8.798   0.851  -5.989  0.00  0.00    -0.205 F 
ENDBRANCH  11  15
BRANCH   1  24
ATOM     23  N   UNL     1      -5.122  -2.351  -1.565  0.00  0.00    -0.315 N 
ATOM     24  C   UNL     1      -6.035  -1.379  -1.371  0.00  0.00    +0.218 C 
ATOM     25  O   UNL     1      -5.985  -0.689  -0.375  0.00  0.00    -0.275 OA
ATOM     26  H   UNL     1      -5.162  -2.903  -2.361  0.00  0.00    +0.149 HD
BRANCH  23  27
ATOM     27  C   UNL     1      -4.068  -2.573  -0.571  0.00  0.00    +0.108 C 
BRANCH  27  28
ATOM     28  C   UNL     1      -3.171  -3.725  -1.029  0.00  0.00    +0.052 C 
BRANCH  28  31
ATOM     29  C   UNL     1      -0.114  -4.767  -1.299  0.00  0.00    +0.035 C 
ATOM     30  C   UNL     1      -0.989  -4.992  -0.064  0.00  0.00    +0.103 C 
ATOM     31  C   UNL     1      -2.087  -3.954  -0.008  0.00  0.00    -0.037 C 
ATOM     32  C   UNL     1      -1.898  -3.270   1.149  0.00  0.00    +0.000 A 
ATOM     33  C   UNL     1      -2.608  -2.191   1.738  0.00  0.00    +0.028 A 
ATOM     34  C   UNL     1      -2.197  -1.671   2.944  0.00  0.00    +0.052 A 
ATOM     35  C   UNL     1      -1.036  -2.208   3.644  0.00  0.00    +0.021 A 
ATOM     36  C   UNL     1      -0.323  -3.233   3.133  0.00  0.00    +0.027 A 
ATOM     37  C   UNL     1      -0.718  -3.824   1.849  0.00  0.00    +0.043 A 
ATOM     38  N   UNL     1      -0.197  -4.809   1.156  0.00  0.00    -0.378 N 
ATOM     39  H   UNL     1       0.582  -5.330   1.409  0.00  0.00    +0.160 HD
BRANCH  34  40
ATOM     40  C   UNL     1      -2.925  -0.582   3.523  0.00  0.00    +0.099 C 
ATOM     41  N   UNL     1      -3.502   0.282   3.983  0.00  0.00    -0.191 NA
ENDBRANCH  34  40
ENDBRANCH  28  31
ENDBRANCH  27  28
ENDBRANCH  23  27
ENDBRANCH   1  24
TORSDOF 6
