REMARK  Name = ZINC39197595
REMARK  8 active torsions:
REMARK  status: ('A' for Active; 'I' for Inactive)
REMARK    1  A    between atoms: C_1  and  C_2
REMARK    2  A    between atoms: C_6  and  O_33
REMARK    3  A    between atoms: C_7  and  O_32
REMARK    4  A    between atoms: N_12  and  C_13
REMARK    5  A    between atoms: C_13  and  C_14
REMARK    6  A    between atoms: C_17  and  S_20
REMARK    7  A    between atoms: S_20  and  C_23
REMARK    8  A    between atoms: C_23  and  C_24
REMARK                            x       y       z     vdW  Elec       q    Type
REMARK                         _______ _______ _______ _____ _____    ______ ____
ROOT
ATOM      1  C   UNL     1       2.849  -0.478   2.362  0.00  0.00    -0.064 A 
ATOM      2  C   UNL     1       2.906   0.410   3.419  0.00  0.00    +0.003 A 
ATOM      3  C   UNL     1       3.560   0.056   4.584  0.00  0.00    +0.027 A 
ATOM      4  C   UNL     1       4.156  -1.187   4.692  0.00  0.00    +0.089 A 
ATOM      5  C   UNL     1       4.098  -2.075   3.635  0.00  0.00    +0.027 A 
ATOM      6  C   UNL     1       3.440  -1.723   2.471  0.00  0.00    +0.003 A 
ENDROOT
BRANCH   4   7
ATOM      7  S   UNL     1       4.991  -1.637   6.177  0.00  0.00    +0.001 S 
ATOM      8  O   UNL     1       5.953  -2.602   5.774  0.00  0.00    -0.169 OA
ATOM      9  O   UNL     1       5.399  -0.404   6.753  0.00  0.00    -0.169 OA
BRANCH   7  10
ATOM     10  C   UNL     1       3.719  -2.417   7.208  0.00  0.00    +0.209 C 
BRANCH  10  11
ATOM     11  C   UNL     1       4.328  -2.847   8.518  0.00  0.00    +0.011 A 
ATOM     12  C   UNL     1       4.882  -4.109   8.643  0.00  0.00    +0.047 A 
ATOM     13  C   UNL     1       5.441  -4.503   9.846  0.00  0.00    +0.020 A 
ATOM     14  C   UNL     1       5.446  -3.636  10.923  0.00  0.00    +0.003 A 
ATOM     15  C   UNL     1       4.893  -2.376  10.799  0.00  0.00    +0.020 A 
ATOM     16  C   UNL     1       4.339  -1.978   9.595  0.00  0.00    +0.047 A 
ATOM     17 CL   UNL     1       3.651  -0.392   9.437  0.00  0.00    -0.083 Cl
ATOM     18 CL   UNL     1       4.874  -5.198   7.291  0.00  0.00    -0.083 Cl
ENDBRANCH  10  11
ENDBRANCH   7  10
ENDBRANCH   4   7
BRANCH   1  19
ATOM     19  C   UNL     1       2.136  -0.093   1.091  0.00  0.00    -0.042 C 
BRANCH  19  30
ATOM     20  C   UNL     1      -0.019   1.526   0.010  0.00  0.00    -0.008 C 
ATOM     21  C   UNL     1       0.002  -0.004   0.002  0.00  0.00    -0.040 C 
ATOM     22  C   UNL     1      -1.413  -0.520  -0.001  0.00  0.00    -0.054 A 
ATOM     23  C   UNL     1      -2.350   0.123  -0.797  0.00  0.00    +0.051 A 
ATOM     24  C   UNL     1      -3.660  -0.319  -0.833  0.00  0.00    +0.158 A 
ATOM     25  C   UNL     1      -4.039  -1.415  -0.064  0.00  0.00    +0.158 A 
ATOM     26  C   UNL     1      -3.103  -2.053   0.730  0.00  0.00    +0.053 A 
ATOM     27  C   UNL     1      -1.791  -1.605   0.762  0.00  0.00    -0.044 A 
ATOM     28  C   UNL     1      -0.804  -2.324   1.647  0.00  0.00    +0.017 C 
ATOM     29  C   UNL     1       0.622  -1.950   1.244  0.00  0.00    -0.073 C 
ATOM     30  N   UNL     1       0.723  -0.484   1.184  0.00  0.00    +0.387 N 
ATOM     31  H   UNL     1       0.314  -0.083   2.015  0.00  0.00    -0.080 HD
BRANCH  25  32
ATOM     32  O   UNL     1      -5.325  -1.858  -0.092  0.00  0.00    -0.503 OA
ATOM     33  H   UNL     1      -5.496  -2.525  -0.771  0.00  0.00    +0.292 HD
ENDBRANCH  25  32
BRANCH  24  34
ATOM     34  O   UNL     1      -4.573   0.315  -1.615  0.00  0.00    -0.503 OA
ATOM     35  H   UNL     1      -4.638  -0.041  -2.512  0.00  0.00    +0.292 HD
ENDBRANCH  24  34
ENDBRANCH  19  30
ENDBRANCH   1  19
TORSDOF 7
