REMARK  Name = ZINC09590672
REMARK  6 active torsions:
REMARK  status: ('A' for Active; 'I' for Inactive)
REMARK    1  A    between atoms: C_8  and  C_12
REMARK    2  A    between atoms: C_17  and  C_20
REMARK    3  A    between atoms: C_20  and  S_21
REMARK    4  A    between atoms: S_21  and  C_22
REMARK    5  A    between atoms: C_22  and  C_23
REMARK    6  A    between atoms: N_25  and  C_26
REMARK                            x       y       z     vdW  Elec       q    Type
REMARK                         _______ _______ _______ _____ _____    ______ ____
ROOT
ATOM      1  C   UNL     1       4.633   1.016  -0.023  0.00  0.00    +0.257 C 
ATOM      2  O   UNL     1       4.451  -0.187  -0.035  0.00  0.00    -0.270 OA
ATOM      3  N   UNL     1       3.579   1.856  -0.007  0.00  0.00    -0.260 N 
ATOM      4  C   UNL     1       2.286   1.349  -0.005  0.00  0.00    +0.165 A 
ATOM      5  N   UNL     1       1.140   2.002   0.009  0.00  0.00    -0.229 NA
ATOM      6  C   UNL     1      -0.011   1.360   0.009  0.00  0.00    +0.060 A 
ATOM      7  C   UNL     1       0.004   0.005  -0.007  0.00  0.00    +0.072 A 
ATOM      8  S   UNL     1       1.764  -0.306  -0.021  0.00  0.00    -0.060 S 
ATOM      9  H   UNL     1       3.724   2.815   0.003  0.00  0.00    +0.157 HD
ENDROOT
BRANCH   1  17
ATOM     10  C   UNL     1       9.110   5.221  -0.001  0.00  0.00    +0.001 A 
ATOM     11  C   UNL     1      10.168   4.322  -0.017  0.00  0.00    +0.004 A 
ATOM     12  C   UNL     1       9.936   2.964  -0.032  0.00  0.00    +0.047 A 
ATOM     13  C   UNL     1       8.632   2.481  -0.030  0.00  0.00    +0.139 A 
ATOM     14  C   UNL     1       7.561   3.393  -0.013  0.00  0.00    +0.018 A 
ATOM     15  C   UNL     1       7.821   4.772   0.001  0.00  0.00    +0.011 A 
ATOM     16  C   UNL     1       6.225   2.920  -0.011  0.00  0.00    +0.031 A 
ATOM     17  C   UNL     1       6.003   1.553  -0.025  0.00  0.00    +0.122 A 
ATOM     18  C   UNL     1       7.160   0.650  -0.036  0.00  0.00    +0.350 A 
ATOM     19  O   UNL     1       6.989  -0.555  -0.043  0.00  0.00    -0.244 OA
ATOM     20  O   UNL     1       8.407   1.150  -0.043  0.00  0.00    -0.422 OA
ENDBRANCH   1  17
BRANCH   6  21
ATOM     21  C   UNL     1      -1.315   2.116   0.019  0.00  0.00    +0.125 C 
BRANCH  21  22
ATOM     22  S   UNL     1      -1.836   2.399   1.734  0.00  0.00    -0.145 S 
BRANCH  22  23
ATOM     23  C   UNL     1      -3.399   3.307   1.573  0.00  0.00    +0.165 C 
BRANCH  23  24
ATOM     24  C   UNL     1      -3.947   3.610   2.944  0.00  0.00    +0.227 C 
ATOM     25  O   UNL     1      -3.343   3.249   3.932  0.00  0.00    -0.275 OA
ATOM     26  N   UNL     1      -5.108   4.282   3.072  0.00  0.00    -0.285 N 
ATOM     27  H   UNL     1      -5.557   4.629   2.286  0.00  0.00    +0.155 HD
BRANCH  26  28
ATOM     28  C   UNL     1      -5.667   4.478   4.341  0.00  0.00    +0.034 A 
ATOM     29  C   UNL     1      -7.046   4.476   4.502  0.00  0.00    +0.026 A 
ATOM     30  C   UNL     1      -7.595   4.664   5.755  0.00  0.00    +0.040 A 
ATOM     31  C   UNL     1      -6.771   4.868   6.849  0.00  0.00    +0.124 A 
ATOM     32  C   UNL     1      -5.395   4.877   6.690  0.00  0.00    +0.040 A 
ATOM     33  C   UNL     1      -4.842   4.683   5.440  0.00  0.00    +0.026 A 
ATOM     34  F   UNL     1      -7.309   5.057   8.073  0.00  0.00    -0.205 F 
ENDBRANCH  26  28
ENDBRANCH  23  24
ENDBRANCH  22  23
ENDBRANCH  21  22
ENDBRANCH   6  21
TORSDOF 6
