REMARK  Name = ZINC13674591
REMARK  12 active torsions:
REMARK  status: ('A' for Active; 'I' for Inactive)
REMARK    1  A    between atoms: C_1  and  C_2
REMARK    2  A    between atoms: C_2  and  C_3
REMARK    3  A    between atoms: C_8  and  N_9
REMARK    4  A    between atoms: N_9  and  C_10
REMARK    5  A    between atoms: N_9  and  S_23
REMARK    6  A    between atoms: C_10  and  C_11
REMARK    7  A    between atoms: N_13  and  C_14
REMARK    8  A    between atoms: C_14  and  C_15
REMARK    9  A    between atoms: C_15  and  C_16
REMARK   10  A    between atoms: C_16  and  N_70
REMARK   11  A    between atoms: S_23  and  C_26
REMARK   12  A    between atoms: C_29  and  C_32
REMARK                            x       y       z     vdW  Elec       q    Type
REMARK                         _______ _______ _______ _____ _____    ______ ____
ROOT
ATOM      1  N   UNL     1       0.917   1.684  -0.345  0.00  0.00    -0.194 N 
ENDROOT
BRANCH   1   7
ATOM      2  C   UNL     1       1.613   3.224  -2.067  0.00  0.00    -0.025 A 
ATOM      3  C   UNL     1       1.792   4.520  -2.511  0.00  0.00    +0.005 A 
ATOM      4  C   UNL     1       1.446   5.585  -1.701  0.00  0.00    +0.000 A 
ATOM      5  C   UNL     1       0.928   5.357  -0.438  0.00  0.00    +0.002 A 
ATOM      6  C   UNL     1       0.752   4.065   0.014  0.00  0.00    +0.025 A 
ATOM      7  C   UNL     1       1.094   2.992  -0.800  0.00  0.00    +0.055 A 
BRANCH   2   9
ATOM      8  C   UNL     1       0.769   1.158  -3.147  0.00  0.00    +0.009 C 
ATOM      9  C   UNL     1       1.987   2.064  -2.953  0.00  0.00    +0.033 C 
ENDBRANCH   2   9
ENDBRANCH   1   7
BRANCH   1  10
ATOM     10  S   UNL     1       2.148   0.585  -0.485  0.00  0.00    +0.075 S 
ATOM     11  O   UNL     1       2.047  -0.284   0.635  0.00  0.00    -0.150 OA
ATOM     12  O   UNL     1       2.116   0.108  -1.824  0.00  0.00    -0.150 OA
BRANCH  10  13
ATOM     13  C   UNL     1       3.660   1.470  -0.302  0.00  0.00    +0.109 A 
ATOM     14  C   UNL     1       4.010   2.438  -1.224  0.00  0.00    +0.029 A 
ATOM     15  C   UNL     1       5.195   3.136  -1.078  0.00  0.00    +0.005 A 
ATOM     16  C   UNL     1       6.034   2.858  -0.015  0.00  0.00    -0.050 A 
ATOM     17  C   UNL     1       5.686   1.886   0.904  0.00  0.00    +0.005 A 
ATOM     18  C   UNL     1       4.500   1.191   0.760  0.00  0.00    +0.029 A 
ATOM     19  C   UNL     1       7.327   3.615   0.141  0.00  0.00    +0.044 C 
ENDBRANCH  10  13
ENDBRANCH   1  10
BRANCH   1  20
ATOM     20  C   UNL     1      -0.357   1.284   0.257  0.00  0.00    +0.227 C 
BRANCH  20  21
ATOM     21  C   UNL     1      -1.463   1.444  -0.755  0.00  0.00    +0.232 C 
ATOM     22  O   UNL     1      -1.221   1.910  -1.848  0.00  0.00    -0.274 OA
ATOM     23  N   UNL     1      -2.720   1.069  -0.445  0.00  0.00    -0.314 N 
ATOM     24  H   UNL     1      -2.913   0.696   0.430  0.00  0.00    +0.149 HD
BRANCH  23  25
ATOM     25  C   UNL     1      -3.794   1.224  -1.428  0.00  0.00    +0.102 C 
BRANCH  25  26
ATOM     26  C   UNL     1      -5.111   0.727  -0.828  0.00  0.00    +0.000 C 
BRANCH  26  27
ATOM     27  C   UNL     1      -6.233   0.889  -1.855  0.00  0.00    -0.077 C 
BRANCH  27  34
ATOM     28  C   UNL     1      -7.412  -1.024  -0.931  0.00  0.00    -0.079 C 
ATOM     29  C   UNL     1      -8.750  -1.623  -0.594  0.00  0.00    -0.019 C 
ATOM     30  C   UNL     1      -9.339  -2.255  -1.873  0.00  0.00    -0.002 C 
ATOM     31  C   UNL     1      -9.920  -1.257  -2.764  0.00  0.00    -0.002 C 
ATOM     32  C   UNL     1      -8.876  -0.228  -3.247  0.00  0.00    -0.019 C 
ATOM     33  C   UNL     1      -8.643   0.769  -2.145  0.00  0.00    -0.079 C 
ATOM     34  N   UNL     1      -7.491   0.445  -1.236  0.00  0.00    +0.380 N 
ATOM     35  H   UNL     1      -7.623   0.952  -0.353  0.00  0.00    -0.082 HD
ENDBRANCH  27  34
ENDBRANCH  26  27
ENDBRANCH  25  26
ENDBRANCH  23  25
ENDBRANCH  20  21
ENDBRANCH   1  20
TORSDOF 10
