REMARK  Name = ZINC33936419
REMARK  11 active torsions:
REMARK  status: ('A' for Active; 'I' for Inactive)
REMARK    1  A    between atoms: C_1  and  C_2
REMARK    2  A    between atoms: C_2  and  O_3
REMARK    3  A    between atoms: O_3  and  C_4
REMARK    4  A    between atoms: C_4  and  C_6
REMARK    5  A    between atoms: C_7  and  C_32
REMARK    6  A    between atoms: C_11  and  C_13
REMARK    7  A    between atoms: C_16  and  C_19
REMARK    8  A    between atoms: C_22  and  C_28
REMARK    9  A    between atoms: C_24  and  C_27
REMARK   10  A    between atoms: C_28  and  O_30
REMARK   11  A    between atoms: O_30  and  C_31
REMARK                            x       y       z     vdW  Elec       q    Type
REMARK                         _______ _______ _______ _____ _____    ______ ____
ROOT
ATOM      1  C   UNL     1      -2.798  -2.433   0.237  0.00  0.00    +0.065 C 
ATOM      2  C   UNL     1      -2.942  -3.729  -0.086  0.00  0.00    +0.016 C 
ATOM      3  N   UNL     1      -4.186  -4.257  -0.297  0.00  0.00    -0.321 N 
ATOM      4  C   UNL     1      -5.301  -3.628   0.189  0.00  0.00    +0.016 C 
ATOM      5  C   UNL     1      -5.260  -2.321   0.524  0.00  0.00    +0.025 C 
ATOM      6  C   UNL     1      -3.987  -1.528   0.375  0.00  0.00    +0.092 C 
ATOM      7  C   UNL     1      -6.398  -1.663   1.021  0.00  0.00    +0.176 C 
ATOM      8  O   UNL     1      -6.323  -0.490   1.329  0.00  0.00    -0.291 OA
ATOM      9  C   UNL     1      -7.709  -2.385   1.178  0.00  0.00    +0.171 C 
ATOM     10  C   UNL     1      -7.782  -3.516   0.147  0.00  0.00    +0.013 C 
ATOM     11  C   UNL     1      -6.570  -4.430   0.343  0.00  0.00    +0.055 C 
ATOM     12  C   UNL     1      -9.071  -4.314   0.350  0.00  0.00    +0.009 C 
ATOM     13  C   UNL     1      -1.725  -4.608  -0.219  0.00  0.00    +0.061 C 
ATOM     14  H   UNL     1      -4.279  -5.084  -0.795  0.00  0.00    +0.152 HD
ENDROOT
BRANCH   6  15
ATOM     15  C   UNL     1      -4.092  -0.659  -0.852  0.00  0.00    -0.035 A 
ATOM     16  C   UNL     1      -4.255  -1.237  -2.096  0.00  0.00    +0.005 A 
ATOM     17  C   UNL     1      -4.351  -0.440  -3.222  0.00  0.00    +0.003 A 
ATOM     18  C   UNL     1      -4.285   0.936  -3.102  0.00  0.00    -0.050 A 
ATOM     19  C   UNL     1      -4.122   1.514  -1.857  0.00  0.00    +0.003 A 
ATOM     20  C   UNL     1      -4.031   0.717  -0.731  0.00  0.00    +0.005 A 
ATOM     21  C   UNL     1      -4.388   1.805  -4.329  0.00  0.00    +0.044 C 
ENDBRANCH   6  15
BRANCH   1  22
ATOM     22  C   UNL     1      -1.502  -1.913   0.459  0.00  0.00    +0.338 C 
ATOM     23  O   UNL     1      -0.541  -2.660   0.476  0.00  0.00    -0.245 OA
BRANCH  22  24
ATOM     24  O   UNL     1      -1.329  -0.589   0.650  0.00  0.00    -0.462 OA
BRANCH  24  26
ATOM     25  C   UNL     1       0.004   1.384   1.064  0.00  0.00    +0.048 C 
ATOM     26  C   UNL     1       0.008  -0.133   0.868  0.00  0.00    +0.229 C 
ENDBRANCH  24  26
ENDBRANCH  22  24
ENDBRANCH   1  22
BRANCH   9  27
ATOM     27  C   UNL     1      -8.845  -1.421   0.954  0.00  0.00    +0.318 C 
ATOM     28  O   UNL     1      -9.640  -1.621   0.066  0.00  0.00    -0.250 OA
BRANCH  27  29
ATOM     29  O   UNL     1      -8.975  -0.341   1.740  0.00  0.00    -0.467 OA
ATOM     30  C   UNL     1     -10.075   0.529   1.471  0.00  0.00    +0.280 C 
ENDBRANCH  27  29
ENDBRANCH   9  27
TORSDOF 6
