REMARK  Name = ZINC44612244
REMARK  5 active torsions:
REMARK  status: ('A' for Active; 'I' for Inactive)
REMARK    1  A    between atoms: C_1  and  C_2
REMARK    2  A    between atoms: C_4  and  C_7
REMARK    3  A    between atoms: C_7  and  N_12
REMARK    4  A    between atoms: C_13  and  C_15
REMARK    5  A    between atoms: C_16  and  C_17
REMARK                            x       y       z     vdW  Elec       q    Type
REMARK                         _______ _______ _______ _____ _____    ______ ____
ROOT
ATOM      1  N   UNL     1      -2.325  -2.980   1.321  0.00  0.00    -0.299 N 
ATOM      2  C   UNL     1      -3.012  -1.866   1.643  0.00  0.00    +0.238 C 
ATOM      3  O   UNL     1      -2.532  -0.770   1.421  0.00  0.00    -0.271 OA
ATOM      4  H   UNL     1      -2.708  -3.853   1.498  0.00  0.00    +0.150 HD
ENDROOT
BRANCH   1   5
ATOM      5  C   UNL     1      -1.001  -2.871   0.703  0.00  0.00    +0.098 C 
ATOM      6  C   UNL     1      -1.100  -2.179  -0.679  0.00  0.00    +0.034 C 
ATOM      7  C   UNL     1      -1.555  -3.333  -1.607  0.00  0.00    +0.003 C 
ATOM      8  C   UNL     1      -0.789  -4.565  -1.083  0.00  0.00    +0.003 C 
ATOM      9  C   UNL     1      -0.437  -4.271   0.386  0.00  0.00    +0.034 C 
BRANCH   5  13
ATOM     10  C   UNL     1       0.831   0.751   3.638  0.00  0.00    +0.112 C 
ATOM     11  C   UNL     1       0.720  -0.542   2.872  0.00  0.00    +0.224 A 
ATOM     12  N   UNL     1      -0.295  -0.913   2.142  0.00  0.00    -0.194 NA
ATOM     13  C   UNL     1      -0.060  -2.115   1.605  0.00  0.00    +0.195 A 
ATOM     14  N   UNL     1       1.114  -2.526   1.989  0.00  0.00    -0.059 NA
ATOM     15  O   UNL     1       1.648  -1.505   2.819  0.00  0.00    -0.338 OA
ENDBRANCH   5  13
ENDBRANCH   1   5
BRANCH   2  16
ATOM     16  C   UNL     1      -4.338  -1.975   2.262  0.00  0.00    +0.069 C 
ATOM     17  C   UNL     1      -5.123  -0.886   2.367  0.00  0.00    +0.033 C 
BRANCH  17  18
ATOM     18  C   UNL     1      -5.063   0.168   1.339  0.00  0.00    +0.065 A 
ATOM     19  C   UNL     1      -5.780   1.362   1.535  0.00  0.00    +0.028 A 
ATOM     20  C   UNL     1      -5.732   2.344   0.591  0.00  0.00    +0.012 A 
ATOM     21  C   UNL     1      -4.955   2.124  -0.564  0.00  0.00    +0.001 A 
ATOM     22  C   UNL     1      -4.862   3.094  -1.574  0.00  0.00    +0.011 A 
ATOM     23  C   UNL     1      -4.101   2.849  -2.676  0.00  0.00    +0.021 A 
ATOM     24  C   UNL     1      -3.411   1.644  -2.817  0.00  0.00    +0.043 A 
ATOM     25  C   UNL     1      -3.479   0.680  -1.857  0.00  0.00    +0.048 A 
ATOM     26  C   UNL     1      -4.254   0.898  -0.703  0.00  0.00    +0.073 A 
ATOM     27  N   UNL     1      -4.332  -0.027   0.255  0.00  0.00    -0.247 NA
ATOM     28 CL   UNL     1      -2.452   1.369  -4.237  0.00  0.00    -0.083 Cl
ENDBRANCH  17  18
ENDBRANCH   2  16
TORSDOF 4
