REMARK  Name = ZINC15724001
REMARK  12 active torsions:
REMARK  status: ('A' for Active; 'I' for Inactive)
REMARK    1  A    between atoms: C_1  and  C_2
REMARK    2  A    between atoms: C_2  and  C_3
REMARK    3  A    between atoms: C_3  and  C_4
REMARK    4  A    between atoms: C_4  and  O_5
REMARK    5  A    between atoms: O_5  and  C_6
REMARK    6  A    between atoms: C_6  and  C_8
REMARK    7  A    between atoms: C_12  and  C_14
REMARK    8  A    between atoms: C_17  and  C_19
REMARK    9  A    between atoms: C_21  and  C_36
REMARK   10  A    between atoms: N_23  and  C_26
REMARK   11  A    between atoms: C_29  and  S_32
REMARK   12  A    between atoms: S_32  and  N_35
REMARK                            x       y       z     vdW  Elec       q    Type
REMARK                         _______ _______ _______ _____ _____    ______ ____
ROOT
ATOM      1  C   UNL     1      -3.451   4.917   0.044  0.00  0.00    +0.061 C 
ATOM      2  C   UNL     1      -2.816   3.676   0.034  0.00  0.00    +0.065 C 
ATOM      3  C   UNL     1      -3.445   2.350   0.030  0.00  0.00    +0.069 C 
ATOM      4  N   UNL     1      -2.495   1.464   0.016  0.00  0.00    -0.177 NA
ATOM      5  N   UNL     1      -1.238   2.070   0.019  0.00  0.00    -0.156 N 
ATOM      6  C   UNL     1      -1.372   3.412   0.027  0.00  0.00    +0.272 C 
ATOM      7  O   UNL     1      -0.475   4.238   0.028  0.00  0.00    -0.268 OA
ATOM      8  C   UNL     1      -4.925   2.067   0.034  0.00  0.00    +0.068 C 
ENDROOT
BRANCH   5   9
ATOM      9  C   UNL     1      -0.017   1.385   0.010  0.00  0.00    +0.060 A 
ATOM     10  C   UNL     1       1.178   2.092   0.002  0.00  0.00    +0.027 A 
ATOM     11  C   UNL     1       2.381   1.414  -0.013  0.00  0.00    +0.030 A 
ATOM     12  C   UNL     1       2.396   0.031  -0.021  0.00  0.00    +0.105 A 
ATOM     13  C   UNL     1       1.208  -0.677  -0.013  0.00  0.00    +0.030 A 
ATOM     14  C   UNL     1       0.002  -0.004   0.002  0.00  0.00    +0.027 A 
BRANCH  12  15
ATOM     15  S   UNL     1       3.933  -0.831  -0.039  0.00  0.00    +0.056 S 
ATOM     16  O   UNL     1       4.902   0.053   0.507  0.00  0.00    -0.153 OA
ATOM     17  O   UNL     1       3.683  -2.119   0.507  0.00  0.00    -0.153 OA
BRANCH  15  18
ATOM     18  N   UNL     1       4.345  -1.063  -1.626  0.00  0.00    -0.204 NA
ATOM     19  H   UNL     1       3.764  -0.737  -2.331  0.00  0.00    +0.144 HD
ATOM     20  H   UNL     1       5.168  -1.524  -1.851  0.00  0.00    +0.144 HD
ENDBRANCH  15  18
ENDBRANCH  12  15
ENDBRANCH   5   9
BRANCH   1  24
ATOM     21  C   UNL     1      -0.964   7.455   0.049  0.00  0.00    +0.136 A 
ATOM     22  C   UNL     1      -2.095   8.246   0.058  0.00  0.00    +0.050 A 
ATOM     23  C   UNL     1      -3.193   7.389   0.057  0.00  0.00    +0.050 A 
ATOM     24  C   UNL     1      -2.691   6.093   0.048  0.00  0.00    +0.129 A 
ATOM     25  O   UNL     1      -1.342   6.165   0.048  0.00  0.00    -0.455 OA
BRANCH  21  30
ATOM     26  C   UNL     1       2.799   7.507   0.034  0.00  0.00    +0.060 A 
ATOM     27  C   UNL     1       3.044   8.883   0.041  0.00  0.00    +0.015 A 
ATOM     28  C   UNL     1       1.991   9.776   0.050  0.00  0.00    +0.001 A 
ATOM     29  C   UNL     1       0.689   9.318   0.047  0.00  0.00    +0.011 A 
ATOM     30  C   UNL     1       0.428   7.944   0.046  0.00  0.00    +0.018 A 
ATOM     31  C   UNL     1       1.488   7.037   0.036  0.00  0.00    +0.026 A 
BRANCH  26  32
ATOM     32  C   UNL     1       3.928   6.554   0.023  0.00  0.00    +0.339 C 
ATOM     33  O   UNL     1       3.713   5.359   0.017  0.00  0.00    -0.245 OA
BRANCH  32  34
ATOM     34  O   UNL     1       5.195   7.011   0.021  0.00  0.00    -0.461 OA
BRANCH  34  35
ATOM     35  C   UNL     1       6.254   6.018   0.010  0.00  0.00    +0.232 C 
BRANCH  35  36
ATOM     36  C   UNL     1       7.613   6.721   0.009  0.00  0.00    +0.041 C 
BRANCH  36  38
ATOM     37  C   UNL     1      10.088   6.377  -0.004  0.00  0.00    +0.004 C 
ATOM     38  C   UNL     1       8.729   5.674  -0.002  0.00  0.00    -0.000 C 
ENDBRANCH  36  38
ENDBRANCH  35  36
ENDBRANCH  34  35
ENDBRANCH  32  34
ENDBRANCH  26  32
ENDBRANCH  21  30
ENDBRANCH   1  24
TORSDOF 10
