REMARK  Name = ZINC55394192
REMARK  9 active torsions:
REMARK  status: ('A' for Active; 'I' for Inactive)
REMARK    1  A    between atoms: C_1  and  C_2
REMARK    2  A    between atoms: C_2  and  C_3
REMARK    3  A    between atoms: C_2  and  C_4
REMARK    4  A    between atoms: C_4  and  C_6
REMARK    5  A    between atoms: C_4  and  N_13
REMARK    6  A    between atoms: C_14  and  C_16
REMARK    7  A    between atoms: C_16  and  C_17
REMARK    8  A    between atoms: C_17  and  C_19
REMARK    9  A    between atoms: C_17  and  N_24
REMARK                            x       y       z     vdW  Elec       q    Type
REMARK                         _______ _______ _______ _____ _____    ______ ____
ROOT
ATOM      1  N   UNL     1      -1.413  -1.998   0.005  0.00  0.00    -0.308 N 
ATOM      2  C   UNL     1      -1.292  -2.677   1.163  0.00  0.00    +0.216 C 
ATOM      3  O   UNL     1      -1.198  -2.075   2.212  0.00  0.00    -0.276 OA
ATOM      4  H   UNL     1      -1.488  -2.480  -0.834  0.00  0.00    +0.149 HD
ENDROOT
BRANCH   1   5
ATOM      5  C   UNL     1      -1.433  -0.534   0.013  0.00  0.00    +0.106 C 
BRANCH   5   6
ATOM      6  C   UNL     1      -2.162  -0.034  -1.208  0.00  0.00    -0.027 A 
ATOM      7  C   UNL     1      -1.982  -0.663  -2.426  0.00  0.00    +0.007 A 
ATOM      8  C   UNL     1      -2.650  -0.206  -3.546  0.00  0.00    +0.020 A 
ATOM      9  C   UNL     1      -3.499   0.881  -3.448  0.00  0.00    +0.041 A 
ATOM     10  C   UNL     1      -3.680   1.510  -2.229  0.00  0.00    +0.020 A 
ATOM     11  C   UNL     1      -3.015   1.049  -1.109  0.00  0.00    +0.007 A 
ATOM     12 CL   UNL     1      -4.339   1.457  -4.855  0.00  0.00    -0.084 Cl
ENDBRANCH   5   6
BRANCH   5  14
ATOM     13  C   UNL     1      -0.019   1.526   0.010  0.00  0.00    +0.009 C 
ATOM     14  C   UNL     1       0.002  -0.004   0.002  0.00  0.00    +0.008 C 
ATOM     15  C   UNL     1       0.742  -0.511   1.242  0.00  0.00    +0.009 C 
ENDBRANCH   5  14
ENDBRANCH   1   5
BRANCH   2  16
ATOM     16  C   UNL     1      -1.271  -4.184   1.155  0.00  0.00    +0.123 C 
BRANCH  16  17
ATOM     17  C   UNL     1      -1.125  -4.700   2.587  0.00  0.00    +0.120 C 
BRANCH  17  18
ATOM     18  N   UNL     1      -2.312  -4.333   3.362  0.00  0.00    -0.292 N 
ATOM     19  C   UNL     1      -3.528  -4.772   2.981  0.00  0.00    +0.298 C 
ATOM     20  O   UNL     1      -3.639  -5.473   1.994  0.00  0.00    -0.253 OA
ATOM     21  N   UNL     1      -4.621  -4.434   3.694  0.00  0.00    -0.313 N 
ATOM     22  H   UNL     1      -2.224  -3.774   4.150  0.00  0.00    +0.151 HD
ATOM     23  H   UNL     1      -4.532  -3.875   4.481  0.00  0.00    +0.146 HD
ATOM     24  H   UNL     1      -5.496  -4.750   3.419  0.00  0.00    +0.146 HD
ENDBRANCH  17  18
BRANCH  17  25
ATOM     25  C   UNL     1      -0.981  -6.200   2.569  0.00  0.00    +0.010 A 
ATOM     26  C   UNL     1       0.142  -6.951   2.677  0.00  0.00    +0.013 A 
ATOM     27  C   UNL     1       0.034  -8.329   2.634  0.00  0.00    +0.008 A 
ATOM     28  C   UNL     1      -1.192  -8.887   2.485  0.00  0.00    +0.045 A 
ATOM     29  S   UNL     1      -2.246  -7.449   2.407  0.00  0.00    -0.100 S 
ENDBRANCH  17  25
ENDBRANCH  16  17
ENDBRANCH   2  16
TORSDOF 7
