REMARK  Name = ZINC39189891
REMARK  10 active torsions:
REMARK  status: ('A' for Active; 'I' for Inactive)
REMARK    1  A    between atoms: C_1  and  C_2
REMARK    2  A    between atoms: C_5  and  C_37
REMARK    3  A    between atoms: N_8  and  S_10
REMARK    4  A    between atoms: S_10  and  C_13
REMARK    5  A    between atoms: C_16  and  C_19
REMARK    6  A    between atoms: C_19  and  O_21
REMARK    7  A    between atoms: O_21  and  C_22
REMARK    8  A    between atoms: C_22  and  C_24
REMARK    9  A    between atoms: C_22  and  C_25
REMARK   10  A    between atoms: N_30  and  C_31
REMARK                            x       y       z     vdW  Elec       q    Type
REMARK                         _______ _______ _______ _____ _____    ______ ____
ROOT
ATOM      1  C   UNL     1       3.869  -4.122  -4.162  0.00  0.00    +0.340 C 
ATOM      2  O   UNL     1       3.458  -5.108  -4.739  0.00  0.00    -0.245 OA
ENDROOT
BRANCH   1   6
ATOM      3  C   UNL     1       2.547  -3.268  -0.217  0.00  0.00    +0.106 A 
ATOM      4  C   UNL     1       2.077  -4.392  -0.873  0.00  0.00    +0.029 A 
ATOM      5  C   UNL     1       2.502  -4.676  -2.154  0.00  0.00    +0.017 A 
ATOM      6  C   UNL     1       3.409  -3.825  -2.790  0.00  0.00    +0.059 A 
ATOM      7  C   UNL     1       3.879  -2.692  -2.122  0.00  0.00    +0.017 A 
ATOM      8  C   UNL     1       3.441  -2.418  -0.843  0.00  0.00    +0.029 A 
BRANCH   3   9
ATOM      9  S   UNL     1       1.999  -2.914   1.419  0.00  0.00    +0.061 S 
ATOM     10  O   UNL     1       2.998  -2.098   2.015  0.00  0.00    -0.153 OA
ATOM     11  O   UNL     1       1.587  -4.150   1.986  0.00  0.00    -0.153 OA
BRANCH   9  17
ATOM     12  C   UNL     1      -0.019   1.526   0.010  0.00  0.00    +0.009 C 
ATOM     13  C   UNL     1       0.002  -0.004   0.002  0.00  0.00    +0.002 C 
ATOM     14  C   UNL     1      -1.433  -0.534   0.015  0.00  0.00    +0.009 C 
ATOM     15  C   UNL     1      -1.414  -2.064  -0.027  0.00  0.00    +0.002 C 
ATOM     16  C   UNL     1      -0.692  -2.596   1.215  0.00  0.00    +0.112 C 
ATOM     17  N   UNL     1       0.639  -1.977   1.288  0.00  0.00    -0.176 NA
ATOM     18  C   UNL     1       0.742  -0.512   1.244  0.00  0.00    +0.112 C 
ATOM     19  C   UNL     1      -2.850  -2.592  -0.049  0.00  0.00    +0.009 C 
ENDBRANCH   9  17
ENDBRANCH   3   9
ENDBRANCH   1   6
BRANCH   1  20
ATOM     20  O   UNL     1       4.743  -3.299  -4.772  0.00  0.00    -0.449 OA
BRANCH  20  21
ATOM     21  C   UNL     1       5.145  -3.648  -6.098  0.00  0.00    +0.259 C 
ATOM     22  C   UNL     1       4.192  -3.002  -7.106  0.00  0.00    +0.062 C 
BRANCH  21  23
ATOM     23  C   UNL     1       6.547  -3.153  -6.345  0.00  0.00    +0.261 C 
ATOM     24  O   UNL     1       7.143  -2.560  -5.471  0.00  0.00    -0.271 OA
ATOM     25  N   UNL     1       7.138  -3.369  -7.537  0.00  0.00    -0.237 N 
ATOM     26  C   UNL     1       8.392  -2.926  -7.757  0.00  0.00    +0.306 C 
ATOM     27  O   UNL     1       8.989  -2.332  -6.882  0.00  0.00    -0.252 OA
ATOM     28  N   UNL     1       8.983  -3.142  -8.949  0.00  0.00    -0.296 N 
ATOM     29  H   UNL     1       6.661  -3.843  -8.236  0.00  0.00    +0.159 HD
ATOM     30  H   UNL     1       8.506  -3.616  -9.648  0.00  0.00    +0.151 HD
BRANCH  28  31
ATOM     31  C   UNL     1      10.345  -2.661  -9.189  0.00  0.00    +0.074 C 
ATOM     32  C   UNL     1      10.298  -1.200  -9.643  0.00  0.00    +0.022 C 
ATOM     33  C   UNL     1      11.721  -0.698  -9.893  0.00  0.00    +0.002 C 
ATOM     34  C   UNL     1      12.379  -1.549 -10.982  0.00  0.00    +0.000 C 
ATOM     35  C   UNL     1      12.426  -3.009 -10.528  0.00  0.00    +0.002 C 
ATOM     36  C   UNL     1      11.003  -3.512 -10.277  0.00  0.00    +0.022 C 
ENDBRANCH  28  31
ENDBRANCH  21  23
ENDBRANCH  20  21
ENDBRANCH   1  20
TORSDOF 7
