REMARK  Name = ZINC09712224
REMARK  9 active torsions:
REMARK  status: ('A' for Active; 'I' for Inactive)
REMARK    1  A    between atoms: C_1  and  O_2
REMARK    2  A    between atoms: O_2  and  C_3
REMARK    3  A    between atoms: C_8  and  C_9
REMARK    4  A    between atoms: C_10  and  C_20
REMARK    5  A    between atoms: N_12  and  C_14
REMARK    6  A    between atoms: N_22  and  C_23
REMARK    7  A    between atoms: C_23  and  C_24
REMARK    8  A    between atoms: C_24  and  C_26
REMARK    9  A    between atoms: C_24  and  N_31
REMARK                            x       y       z     vdW  Elec       q    Type
REMARK                         _______ _______ _______ _____ _____    ______ ____
ROOT
ATOM      1  C   UNL     1      -0.473  -2.966   0.270  0.00  0.00    +0.109 A 
ATOM      2  C   UNL     1      -0.301  -4.412   0.099  0.00  0.00    +0.082 A 
ATOM      3  C   UNL     1      -1.040  -4.763  -1.012  0.00  0.00    +0.128 A 
ATOM      4  N   UNL     1      -1.618  -3.648  -1.492  0.00  0.00    -0.239 N 
ATOM      5  N   UNL     1      -1.267  -2.556  -0.694  0.00  0.00    -0.165 NA
ENDROOT
BRANCH   1  11
ATOM      6  C   UNL     1      -0.666  -1.234   2.059  0.00  0.00    +0.129 A 
ATOM      7  C   UNL     1      -0.096  -0.457   3.054  0.00  0.00    +0.046 A 
ATOM      8  C   UNL     1       1.256  -0.560   3.324  0.00  0.00    +0.004 A 
ATOM      9  C   UNL     1       2.047  -1.438   2.603  0.00  0.00    +0.001 A 
ATOM     10  C   UNL     1       1.492  -2.218   1.609  0.00  0.00    +0.014 A 
ATOM     11  C   UNL     1       0.129  -2.126   1.333  0.00  0.00    +0.044 A 
BRANCH   6  13
ATOM     12  C   UNL     1      -2.744  -0.201   2.575  0.00  0.00    +0.277 C 
ATOM     13  O   UNL     1      -1.994  -1.133   1.793  0.00  0.00    -0.494 OA
ENDBRANCH   6  13
ENDBRANCH   1  11
BRANCH   4  14
ATOM     14  C   UNL     1      -2.451  -3.591  -2.617  0.00  0.00    +0.065 A 
ATOM     15  C   UNL     1      -2.740  -4.748  -3.328  0.00  0.00    +0.028 A 
ATOM     16  C   UNL     1      -3.561  -4.688  -4.437  0.00  0.00    +0.002 A 
ATOM     17  C   UNL     1      -4.095  -3.478  -4.840  0.00  0.00    +0.000 A 
ATOM     18  C   UNL     1      -3.809  -2.324  -4.134  0.00  0.00    +0.002 A 
ATOM     19  C   UNL     1      -2.993  -2.378  -3.020  0.00  0.00    +0.028 A 
ENDBRANCH   4  14
BRANCH   2  20
ATOM     20  C   UNL     1       0.501  -5.311   0.945  0.00  0.00    +0.248 C 
ATOM     21  O   UNL     1       1.028  -4.886   1.956  0.00  0.00    -0.270 OA
ATOM     22  N   UNL     1       0.651  -6.606   0.600  0.00  0.00    -0.312 N 
ATOM     23  H   UNL     1       0.230  -6.945  -0.205  0.00  0.00    +0.149 HD
BRANCH  22  24
ATOM     24  C   UNL     1       1.449  -7.500   1.442  0.00  0.00    +0.097 C 
BRANCH  24  25
ATOM     25  C   UNL     1       1.569  -8.866   0.764  0.00  0.00    +0.016 C 
BRANCH  25  26
ATOM     26  N   UNL     1       2.253  -9.803   1.666  0.00  0.00    +0.387 N 
ATOM     27  C   UNL     1       1.433 -10.032   2.883  0.00  0.00    -0.078 C 
ATOM     28  C   UNL     1       1.962 -11.387   3.417  0.00  0.00    -0.020 C 
ATOM     29  C   UNL     1       2.230 -12.188   2.122  0.00  0.00    -0.020 C 
ATOM     30  C   UNL     1       2.392 -11.125   1.018  0.00  0.00    -0.078 C 
ATOM     31  H   UNL     1       3.160  -9.442   1.919  0.00  0.00    -0.081 HD
ENDBRANCH  25  26
BRANCH  25  32
ATOM     32  C   UNL     1       2.363  -8.726  -0.510  0.00  0.00    +0.093 A 
ATOM     33  C   UNL     1       1.851  -8.643  -1.751  0.00  0.00    +0.043 A 
ATOM     34  C   UNL     1       2.945  -8.523  -2.638  0.00  0.00    +0.041 A 
ATOM     35  C   UNL     1       4.060  -8.540  -1.887  0.00  0.00    +0.195 A 
ATOM     36  O   UNL     1       3.701  -8.657  -0.598  0.00  0.00    -0.469 OA
ENDBRANCH  25  32
ENDBRANCH  24  25
ENDBRANCH  22  24
ENDBRANCH   2  20
TORSDOF 8
