REMARK  Name = ZINC02110628
REMARK  12 active torsions:
REMARK  status: ('A' for Active; 'I' for Inactive)
REMARK    1  A    between atoms: C_1  and  C_2
REMARK    2  A    between atoms: C_2  and  C_3
REMARK    3  A    between atoms: C_2  and  C_4
REMARK    4  A    between atoms: C_2  and  C_5
REMARK    5  A    between atoms: C_7  and  C_16
REMARK    6  A    between atoms: C_9  and  C_12
REMARK    7  A    between atoms: C_10  and  O_11
REMARK    8  A    between atoms: C_12  and  C_13
REMARK    9  A    between atoms: C_12  and  C_14
REMARK   10  A    between atoms: C_12  and  C_15
REMARK   11  A    between atoms: N_17  and  N_18
REMARK   12  A    between atoms: C_19  and  C_21
REMARK                            x       y       z     vdW  Elec       q    Type
REMARK                         _______ _______ _______ _____ _____    ______ ____
ROOT
ATOM      1  C   UNL     1       0.000   1.080   2.488  0.00  0.00    +0.000 A 
ATOM      2  C   UNL     1       1.130   0.304   2.345  0.00  0.00    +0.017 A 
ATOM      3  C   UNL     1       1.805  -0.158   3.478  0.00  0.00    -0.005 A 
ATOM      4  C   UNL     1       1.331   0.170   4.751  0.00  0.00    +0.017 A 
ATOM      5  C   UNL     1       0.200   0.946   4.884  0.00  0.00    +0.000 A 
ATOM      6  C   UNL     1      -0.465   1.408   3.755  0.00  0.00    +0.124 A 
ENDROOT
BRANCH   1   8
ATOM      7  C   UNL     1      -0.013   1.086   0.008  0.00  0.00    +0.015 C 
ATOM      8  C   UNL     1      -0.729   1.579   1.267  0.00  0.00    -0.009 C 
ATOM      9  C   UNL     1      -0.750   3.109   1.275  0.00  0.00    +0.015 C 
ATOM     10  C   UNL     1      -2.164   1.050   1.278  0.00  0.00    +0.015 C 
ENDBRANCH   1   8
BRANCH   5  11
ATOM     11  C   UNL     1      -0.312   1.301   6.256  0.00  0.00    -0.009 C 
ATOM     12  C   UNL     1       0.598   0.677   7.317  0.00  0.00    +0.015 C 
ATOM     13  C   UNL     1      -0.320   2.822   6.421  0.00  0.00    +0.015 C 
ATOM     14  C   UNL     1      -1.734   0.762   6.424  0.00  0.00    +0.015 C 
ENDBRANCH   5  11
BRANCH   6  15
ATOM     15  O   UNL     1      -1.575   2.178   3.891  0.00  0.00    -0.506 OA
ATOM     16  H   UNL     1      -2.400   1.675   3.933  0.00  0.00    +0.292 HD
ENDBRANCH   6  15
BRANCH   3  17
ATOM     17  C   UNL     1       3.014  -0.989   3.331  0.00  0.00    +0.138 C 
ATOM     18  N   UNL     1       3.639  -1.417   4.384  0.00  0.00    -0.187 NA
BRANCH  18  19
ATOM     19  N   UNL     1       4.788  -2.207   4.244  0.00  0.00    -0.200 N 
ATOM     20  C   UNL     1       5.438  -2.651   5.338  0.00  0.00    +0.299 C 
ATOM     21  O   UNL     1       5.027  -2.367   6.448  0.00  0.00    -0.265 OA
ATOM     22  H   UNL     1       5.116  -2.434   3.360  0.00  0.00    +0.178 HD
BRANCH  20  23
ATOM     23  C   UNL     1       6.639  -3.477   5.192  0.00  0.00    +0.192 A 
ATOM     24  C   UNL     1       7.392  -3.986   6.212  0.00  0.00    +0.056 A 
ATOM     25  C   UNL     1       8.437  -4.712   5.619  0.00  0.00    +0.058 A 
ATOM     26  C   UNL     1       8.283  -4.608   4.279  0.00  0.00    +0.171 A 
ATOM     27  O   UNL     1       7.199  -3.864   4.026  0.00  0.00    -0.444 OA
ATOM     28 BR   UNL     1       9.412  -5.387   2.977  0.00  0.00    -0.008 Br
ENDBRANCH  20  23
ENDBRANCH  18  19
ENDBRANCH   3  17
TORSDOF 6
