REMARK  Name = ZINC63948709
REMARK  10 active torsions:
REMARK  status: ('A' for Active; 'I' for Inactive)
REMARK    1  A    between atoms: C_1  and  C_2
REMARK    2  A    between atoms: C_2  and  C_3
REMARK    3  A    between atoms: C_2  and  C_4
REMARK    4  A    between atoms: C_7  and  C_10
REMARK    5  A    between atoms: C_16  and  C_17
REMARK    6  A    between atoms: N_19  and  C_20
REMARK    7  A    between atoms: C_20  and  C_21
REMARK    8  A    between atoms: C_21  and  C_22
REMARK    9  A    between atoms: C_25  and  O_31
REMARK   10  A    between atoms: O_31  and  C_32
REMARK                            x       y       z     vdW  Elec       q    Type
REMARK                         _______ _______ _______ _____ _____    ______ ____
ROOT
ATOM      1  C   UNL     1      -4.975  -5.133  -2.697  0.00  0.00    +0.238 C 
ATOM      2  O   UNL     1      -4.290  -5.153  -1.691  0.00  0.00    -0.271 OA
ATOM      3  N   UNL     1      -4.713  -5.986  -3.708  0.00  0.00    -0.311 N 
ATOM      4  H   UNL     1      -5.260  -5.970  -4.509  0.00  0.00    +0.149 HD
ENDROOT
BRANCH   1  10
ATOM      5  C   UNL     1      -5.843  -2.477   0.409  0.00  0.00    +0.159 C 
ATOM      6  N   UNL     1      -5.832  -3.614  -0.530  0.00  0.00    -0.331 N 
ATOM      7  C   UNL     1      -6.385  -3.448  -1.749  0.00  0.00    +0.020 C 
ATOM      8  C   UNL     1      -7.419  -2.333  -1.853  0.00  0.00    +0.121 C 
ATOM      9  S   UNL     1      -6.801  -1.206  -0.521  0.00  0.00    -0.128 S 
ATOM     10  C   UNL     1      -6.046  -4.216  -2.805  0.00  0.00    +0.086 C 
ATOM     11  H   UNL     1      -5.436  -4.462  -0.277  0.00  0.00    +0.147 HD
BRANCH   5  15
ATOM     12  C   UNL     1      -1.870  -1.115   1.193  0.00  0.00    -0.045 A 
ATOM     13  C   UNL     1      -2.862  -0.933   2.138  0.00  0.00    +0.004 A 
ATOM     14  C   UNL     1      -4.148  -1.373   1.884  0.00  0.00    +0.006 A 
ATOM     15  C   UNL     1      -4.441  -1.996   0.685  0.00  0.00    -0.017 A 
ATOM     16  C   UNL     1      -3.449  -2.177  -0.260  0.00  0.00    +0.006 A 
ATOM     17  C   UNL     1      -2.165  -1.733  -0.008  0.00  0.00    +0.004 A 
BRANCH  12  19
ATOM     18  C   UNL     1      -0.485   0.876   1.709  0.00  0.00    +0.012 C 
ATOM     19  C   UNL     1      -0.469  -0.635   1.470  0.00  0.00    +0.013 C 
ATOM     20  C   UNL     1       0.077  -1.343   2.712  0.00  0.00    +0.012 C 
ENDBRANCH  12  19
ENDBRANCH   5  15
ENDBRANCH   1  10
BRANCH   3  21
ATOM     21  C   UNL     1      -3.604  -6.936  -3.596  0.00  0.00    +0.109 C 
BRANCH  21  22
ATOM     22  C   UNL     1      -3.525  -7.779  -4.870  0.00  0.00    +0.052 C 
BRANCH  22  23
ATOM     23  C   UNL     1      -2.383  -8.757  -4.755  0.00  0.00    -0.040 C 
ATOM     24  C   UNL     1      -2.453 -10.043  -4.346  0.00  0.00    +0.002 A 
ATOM     25  C   UNL     1      -3.567 -10.887  -3.900  0.00  0.00    +0.055 A 
ATOM     26  C   UNL     1      -3.329 -12.171  -3.541  0.00  0.00    +0.121 A 
ATOM     27  C   UNL     1      -2.042 -12.735  -3.578  0.00  0.00    +0.047 A 
ATOM     28  C   UNL     1      -0.954 -12.039  -3.973  0.00  0.00    +0.029 A 
ATOM     29  C   UNL     1      -1.097 -10.638  -4.384  0.00  0.00    +0.043 A 
ATOM     30  N   UNL     1      -0.225  -9.755  -4.801  0.00  0.00    -0.380 N 
ATOM     31  C   UNL     1      -0.929  -8.498  -5.081  0.00  0.00    +0.144 C 
ATOM     32  H   UNL     1       0.727  -9.907  -4.910  0.00  0.00    +0.160 HD
BRANCH  26  33
ATOM     33  O   UNL     1      -4.371 -12.942  -3.131  0.00  0.00    -0.495 OA
ATOM     34  C   UNL     1      -4.075 -14.290  -2.761  0.00  0.00    +0.277 C 
ENDBRANCH  26  33
ENDBRANCH  22  23
ENDBRANCH  21  22
ENDBRANCH   3  21
TORSDOF 7
