REMARK  Name = ZINC23595432
REMARK  7 active torsions:
REMARK  status: ('A' for Active; 'I' for Inactive)
REMARK    1  A    between atoms: C_1  and  C_2
REMARK    2  A    between atoms: C_7  and  N_8
REMARK    3  A    between atoms: C_11  and  C_16
REMARK    4  A    between atoms: C_16  and  S_17
REMARK    5  A    between atoms: S_17  and  C_18
REMARK    6  A    between atoms: C_21  and  C_24
REMARK    7  A    between atoms: N_22  and  C_23
REMARK                            x       y       z     vdW  Elec       q    Type
REMARK                         _______ _______ _______ _____ _____    ______ ____
ROOT
ATOM      1  N   UNL     1      -0.011   0.966   0.007  0.00  0.00    -0.283 N 
ATOM      2  C   UNL     1       1.270   1.478  -0.065  0.00  0.00    +0.224 A 
ATOM      3  N   UNL     1       2.319   0.669   0.056  0.00  0.00    -0.198 NA
ATOM      4  C   UNL     1       3.545   1.158  -0.019  0.00  0.00    +0.146 A 
ATOM      5  N   UNL     1       3.733   2.453  -0.203  0.00  0.00    -0.199 NA
ATOM      6  C   UNL     1       2.689   3.269  -0.319  0.00  0.00    +0.217 A 
ATOM      7  N   UNL     1       1.455   2.781  -0.250  0.00  0.00    -0.181 NA
ATOM      8  N   UNL     1       2.887   4.622  -0.510  0.00  0.00    -0.327 N 
ATOM      9  H   UNL     1      -0.166  -0.093   0.261  0.00  0.00    +0.155 HD
ATOM     10  H   UNL     1       2.023   5.296  -0.606  0.00  0.00    +0.145 HD
ATOM     11  H   UNL     1       3.909   5.025  -0.567  0.00  0.00    +0.145 HD
ENDROOT
BRANCH   1  18
ATOM     12  C   UNL     1      -2.456   0.388   1.342  0.00  0.00    +0.045 C 
ATOM     13  C   UNL     1      -2.323   1.547   0.389  0.00  0.00    -0.029 A 
ATOM     14  C   UNL     1      -3.407   2.367   0.142  0.00  0.00    +0.005 A 
ATOM     15  C   UNL     1      -3.286   3.431  -0.732  0.00  0.00    +0.000 A 
ATOM     16  C   UNL     1      -2.079   3.679  -1.361  0.00  0.00    +0.002 A 
ATOM     17  C   UNL     1      -0.991   2.867  -1.115  0.00  0.00    +0.023 A 
ATOM     18  C   UNL     1      -1.111   1.793  -0.241  0.00  0.00    +0.036 A 
ENDBRANCH   1  18
BRANCH   4  19
ATOM     19  C   UNL     1       4.730   0.237   0.113  0.00  0.00    +0.153 C 
BRANCH  19  20
ATOM     20  S   UNL     1       5.204   0.108   1.855  0.00  0.00    -0.078 S 
BRANCH  20  21
ATOM     21  C   UNL     1       6.571  -0.995   1.720  0.00  0.00    +0.192 A 
ATOM     22  N   UNL     1       7.042  -1.523   0.614  0.00  0.00    -0.122 NA
ATOM     23  N   UNL     1       8.045  -2.280   0.884  0.00  0.00    -0.130 NA
ATOM     24  C   UNL     1       8.273  -2.280   2.167  0.00  0.00    +0.178 A 
ATOM     25  N   UNL     1       7.346  -1.457   2.745  0.00  0.00    -0.306 N 
ATOM     26  C   UNL     1       7.211  -1.139   4.168  0.00  0.00    +0.153 C 
BRANCH  24  27
ATOM     27  C   UNL     1       9.360  -3.041   2.880  0.00  0.00    +0.278 C 
ATOM     28  C   UNL     1      10.714  -2.363   2.633  0.00  0.00    +0.281 C 
ATOM     29  O   UNL     1      11.724  -3.118   3.312  0.00  0.00    -0.484 OA
ATOM     30  C   UNL     1      11.684  -4.470   3.160  0.00  0.00    +0.162 A 
ATOM     31  C   UNL     1      12.805  -5.224   3.476  0.00  0.00    +0.049 A 
ATOM     32  C   UNL     1      12.778  -6.598   3.330  0.00  0.00    +0.004 A 
ATOM     33  C   UNL     1      11.635  -7.224   2.869  0.00  0.00    +0.004 A 
ATOM     34  C   UNL     1      10.516  -6.479   2.550  0.00  0.00    +0.049 A 
ATOM     35  C   UNL     1      10.536  -5.099   2.694  0.00  0.00    +0.163 A 
ATOM     36  O   UNL     1       9.428  -4.378   2.372  0.00  0.00    -0.474 OA
ENDBRANCH  24  27
ENDBRANCH  20  21
ENDBRANCH  19  20
ENDBRANCH   4  19
TORSDOF 5
