REMARK  Name = ZINC59745825
REMARK  10 active torsions:
REMARK  status: ('A' for Active; 'I' for Inactive)
REMARK    1  A    between atoms: C_1  and  C_2
REMARK    2  A    between atoms: C_2  and  C_3
REMARK    3  A    between atoms: C_3  and  C_4
REMARK    4  A    between atoms: C_4  and  C_6
REMARK    5  A    between atoms: C_4  and  N_7
REMARK    6  A    between atoms: N_7  and  C_8
REMARK    7  A    between atoms: N_7  and  S_9
REMARK    8  A    between atoms: S_9  and  C_12
REMARK    9  A    between atoms: C_13  and  C_14
REMARK   10  A    between atoms: C_17  and  C_20
REMARK                            x       y       z     vdW  Elec       q    Type
REMARK                         _______ _______ _______ _____ _____    ______ ____
ROOT
ATOM      1  S   UNL     1       0.866  -3.479   1.013  0.00  0.00    +0.054 S 
ATOM      2  O   UNL     1       1.652  -3.324   2.187  0.00  0.00    -0.153 OA
ATOM      3  O   UNL     1      -0.530  -3.215   0.991  0.00  0.00    -0.153 OA
ENDROOT
BRANCH   1   4
ATOM      4  N   UNL     1       1.548  -2.511  -0.144  0.00  0.00    -0.177 NA
ATOM      5  C   UNL     1       2.962  -2.138  -0.047  0.00  0.00    +0.132 C 
BRANCH   4   6
ATOM      6  C   UNL     1       0.739  -2.027  -1.265  0.00  0.00    +0.076 C 
ATOM      7  C   UNL     1       1.343  -2.522  -2.581  0.00  0.00    +0.026 C 
BRANCH   6   8
ATOM      8  C   UNL     1       0.718  -0.497  -1.257  0.00  0.00    +0.020 C 
BRANCH   8  10
ATOM      9  C   UNL     1      -0.019   1.526   0.010  0.00  0.00    +0.004 C 
ATOM     10  C   UNL     1       0.002  -0.004   0.002  0.00  0.00    -0.002 C 
ENDBRANCH   8  10
ENDBRANCH   6   8
ENDBRANCH   4   6
ENDBRANCH   1   4
BRANCH   1  11
ATOM     11  C   UNL     1       1.072  -5.147   0.485  0.00  0.00    +0.153 C 
ATOM     12  C   UNL     1       1.834  -5.975   1.186  0.00  0.00    +0.028 C 
BRANCH  12  13
ATOM     13  C   UNL     1       2.007  -7.374   0.743  0.00  0.00    -0.024 A 
ATOM     14  C   UNL     1       1.374  -7.826  -0.415  0.00  0.00    +0.008 A 
ATOM     15  C   UNL     1       1.539  -9.133  -0.823  0.00  0.00    +0.004 A 
ATOM     16  C   UNL     1       2.330  -9.996  -0.086  0.00  0.00    -0.050 A 
ATOM     17  C   UNL     1       2.961  -9.555   1.064  0.00  0.00    +0.004 A 
ATOM     18  C   UNL     1       2.808  -8.248   1.479  0.00  0.00    +0.008 A 
ATOM     19  C   UNL     1       2.506 -11.423  -0.537  0.00  0.00    +0.044 C 
ENDBRANCH  12  13
ENDBRANCH   1  11
TORSDOF 6
