REMARK  Name = ZINC08937017
REMARK  7 active torsions:
REMARK  status: ('A' for Active; 'I' for Inactive)
REMARK    1  A    between atoms: C_1  and  C_2
REMARK    2  A    between atoms: C_2  and  C_22
REMARK    3  A    between atoms: N_5  and  C_9
REMARK    4  A    between atoms: C_9  and  C_10
REMARK    5  A    between atoms: N_12  and  C_13
REMARK    6  A    between atoms: C_25  and  O_28
REMARK    7  A    between atoms: O_28  and  C_29
REMARK                            x       y       z     vdW  Elec       q    Type
REMARK                         _______ _______ _______ _____ _____    ______ ____
ROOT
ATOM      1  C   UNL     1       5.751   1.643   1.623  0.00  0.00    +0.047 C 
ATOM      2  C   UNL     1       5.850   0.577   0.530  0.00  0.00    +0.135 C 
ATOM      3  C   UNL     1       4.468   0.126   0.098  0.00  0.00    +0.251 C 
ATOM      4  O   UNL     1       3.598   0.807  -0.400  0.00  0.00    -0.272 OA
ATOM      5  N   UNL     1       4.409  -1.190   0.385  0.00  0.00    -0.215 N 
ATOM      6  C   UNL     1       5.549  -1.628   0.932  0.00  0.00    +0.310 C 
ATOM      7  O   UNL     1       5.735  -2.779   1.275  0.00  0.00    -0.252 OA
ATOM      8  N   UNL     1       6.466  -0.652   1.059  0.00  0.00    -0.281 N 
ATOM      9  H   UNL     1       7.359  -0.740   1.427  0.00  0.00    +0.152 HD
ENDROOT
BRANCH   2  10
ATOM     10  C   UNL     1       6.630   1.096  -0.650  0.00  0.00    -0.015 A 
ATOM     11  C   UNL     1       5.967   1.684  -1.712  0.00  0.00    +0.010 A 
ATOM     12  C   UNL     1       6.681   2.166  -2.792  0.00  0.00    +0.046 A 
ATOM     13  C   UNL     1       8.063   2.049  -2.817  0.00  0.00    +0.127 A 
ATOM     14  C   UNL     1       8.726   1.453  -1.753  0.00  0.00    +0.046 A 
ATOM     15  C   UNL     1       8.008   0.979  -0.672  0.00  0.00    +0.010 A 
BRANCH  13  16
ATOM     16  O   UNL     1       8.767   2.516  -3.881  0.00  0.00    -0.434 OA
BRANCH  16  17
ATOM     17  C   UNL     1       8.019   3.117  -4.940  0.00  0.00    +0.541 C 
ATOM     18  F   UNL     1       7.120   2.182  -5.465  0.00  0.00    -0.166 F 
ATOM     19  F   UNL     1       7.312   4.217  -4.445  0.00  0.00    -0.166 F 
ENDBRANCH  16  17
ENDBRANCH  13  16
ENDBRANCH   2  10
BRANCH   5  20
ATOM     20  C   UNL     1       3.241  -2.036   0.129  0.00  0.00    +0.214 C 
BRANCH  20  21
ATOM     21  C   UNL     1       3.344  -2.631  -1.252  0.00  0.00    +0.235 C 
ATOM     22  O   UNL     1       4.300  -2.373  -1.953  0.00  0.00    -0.274 OA
ATOM     23  N   UNL     1       2.375  -3.449  -1.708  0.00  0.00    -0.282 N 
ATOM     24  H   UNL     1       1.648  -3.713  -1.123  0.00  0.00    +0.155 HD
BRANCH  23  25
ATOM     25  C   UNL     1       2.417  -3.917  -3.027  0.00  0.00    +0.071 A 
ATOM     26  C   UNL     1       1.818  -3.186  -4.045  0.00  0.00    +0.065 A 
ATOM     27  C   UNL     1       1.866  -3.648  -5.347  0.00  0.00    +0.042 A 
ATOM     28  C   UNL     1       2.501  -4.843  -5.635  0.00  0.00    +0.044 A 
ATOM     29  C   UNL     1       3.094  -5.577  -4.623  0.00  0.00    +0.042 A 
ATOM     30  C   UNL     1       3.054  -5.117  -3.320  0.00  0.00    +0.065 A 
ATOM     31 CL   UNL     1       3.799  -6.037  -2.050  0.00  0.00    -0.082 Cl
ATOM     32 CL   UNL     1       2.553  -5.424  -7.271  0.00  0.00    -0.083 Cl
ATOM     33 CL   UNL     1       1.014  -1.690  -3.683  0.00  0.00    -0.082 Cl
ENDBRANCH  23  25
ENDBRANCH  20  21
ENDBRANCH   5  20
TORSDOF 6
