REMARK  Name = ZINC38008955
REMARK  4 active torsions:
REMARK  status: ('A' for Active; 'I' for Inactive)
REMARK    1  A    between atoms: C_3  and  N_9
REMARK    2  A    between atoms: N_9  and  S_10
REMARK    3  A    between atoms: S_10  and  C_13
REMARK    4  A    between atoms: N_19  and  N_20
REMARK                            x       y       z     vdW  Elec       q    Type
REMARK                         _______ _______ _______ _____ _____    ______ ____
ROOT
ATOM      1  S   UNL     1       5.029   1.321  -0.039  0.00  0.00    +0.092 S 
ATOM      2  O   UNL     1       5.127   0.636   1.202  0.00  0.00    -0.148 OA
ATOM      3  O   UNL     1       5.103   0.648  -1.289  0.00  0.00    -0.148 OA
ENDROOT
BRANCH   1   4
ATOM      4  C   UNL     1       6.305   2.536  -0.045  0.00  0.00    +0.115 A 
ATOM      5  C   UNL     1       6.804   3.036  -1.242  0.00  0.00    +0.046 A 
ATOM      6  C   UNL     1       7.804   3.987  -1.212  0.00  0.00    +0.086 A 
ATOM      7  N   UNL     1       8.288   4.425  -0.066  0.00  0.00    -0.349 N 
ATOM      8  C   UNL     1       7.840   3.973   1.095  0.00  0.00    +0.112 A 
ATOM      9  C   UNL     1       6.829   3.017   1.140  0.00  0.00    +0.071 A 
ATOM     10  N   UNL     1       8.379   4.461   2.280  0.00  0.00    -0.269 N 
ATOM     11  H   UNL     1       8.054   4.133   3.132  0.00  0.00    +0.167 HD
ATOM     12  H   UNL     1       8.991   5.094  -0.073  0.00  0.00    +0.167 HD
BRANCH  10  13
ATOM     13  N   UNL     1       9.367   5.404   2.242  0.00  0.00    -0.255 NA
ATOM     14  H   UNL     1       9.074   6.215   1.719  0.00  0.00    +0.140 HD
ATOM     15  H   UNL     1       9.658   5.660   3.174  0.00  0.00    +0.140 HD
ENDBRANCH  10  13
ENDBRANCH   1   4
BRANCH   1  16
ATOM     16  N   UNL     1       3.584   2.129  -0.021  0.00  0.00    -0.095 NA
BRANCH  16  19
ATOM     17  C   UNL     1      -0.017   1.380   0.010  0.00  0.00    +0.040 A 
ATOM     18  C   UNL     1       1.170   2.089   0.002  0.00  0.00    +0.032 A 
ATOM     19  C   UNL     1       2.381   1.413  -0.013  0.00  0.00    +0.110 A 
ATOM     20  C   UNL     1       2.399   0.022  -0.021  0.00  0.00    +0.150 A 
ATOM     21  C   UNL     1       1.210  -0.682  -0.013  0.00  0.00    +0.078 A 
ATOM     22  C   UNL     1       0.002  -0.004   0.002  0.00  0.00    +0.126 A 
ATOM     23  F   UNL     1      -1.159  -0.694   0.010  0.00  0.00    -0.205 F 
ATOM     24  F   UNL     1       3.577  -0.639  -0.036  0.00  0.00    -0.203 F 
ENDBRANCH  16  19
ENDBRANCH   1  16
TORSDOF 4
