REMARK  Name = ZINC40945282
REMARK  13 active torsions:
REMARK  status: ('A' for Active; 'I' for Inactive)
REMARK    1  A    between atoms: C_1  and  C_2
REMARK    2  A    between atoms: C_2  and  C_3
REMARK    3  A    between atoms: C_4  and  C_25
REMARK    4  A    between atoms: C_9  and  C_11
REMARK    5  A    between atoms: C_11  and  C_13
REMARK    6  A    between atoms: C_11  and  O_14
REMARK    7  A    between atoms: O_14  and  C_15
REMARK    8  A    between atoms: C_18  and  C_21
REMARK    9  A    between atoms: C_21  and  C_22
REMARK   10  A    between atoms: C_21  and  C_23
REMARK   11  A    between atoms: C_21  and  C_24
REMARK   12  A    between atoms: C_25  and  O_27
REMARK   13  A    between atoms: O_27  and  C_28
REMARK                            x       y       z     vdW  Elec       q    Type
REMARK                         _______ _______ _______ _____ _____    ______ ____
ROOT
ATOM      1  C   UNL     1       0.596  -1.285  -1.082  0.00  0.00    +0.064 A 
ATOM      2  C   UNL     1      -0.077  -1.687  -2.228  0.00  0.00    +0.120 A 
ATOM      3  S   UNL     1       1.298  -2.025  -3.316  0.00  0.00    -0.045 S 
ATOM      4  C   UNL     1       2.540  -1.637  -2.248  0.00  0.00    +0.165 A 
ATOM      5  N   UNL     1       1.903  -1.274  -1.150  0.00  0.00    -0.229 NA
ATOM      6  N   UNL     1       3.905  -1.683  -2.471  0.00  0.00    -0.262 N 
ATOM      7  C   UNL     1       4.380  -2.077  -3.669  0.00  0.00    +0.259 C 
ATOM      8  O   UNL     1       3.611  -2.391  -4.552  0.00  0.00    -0.271 OA
ATOM      9  H   UNL     1       4.521  -1.431  -1.764  0.00  0.00    +0.157 HD
ENDROOT
BRANCH   1  11
ATOM     10  C   UNL     1      -0.421   0.624   0.129  0.00  0.00    +0.010 C 
ATOM     11  C   UNL     1      -0.138  -0.878   0.170  0.00  0.00    +0.053 C 
ENDBRANCH   1  11
BRANCH   7  12
ATOM     12  C   UNL     1       5.867  -2.126  -3.911  0.00  0.00    +0.256 C 
ATOM     13  C   UNL     1       6.496  -3.187  -3.006  0.00  0.00    +0.062 C 
BRANCH  12  14
ATOM     14  O   UNL     1       6.116  -2.458  -5.279  0.00  0.00    -0.480 OA
BRANCH  14  15
ATOM     15  C   UNL     1       7.303  -2.056  -5.805  0.00  0.00    +0.122 A 
ATOM     16  C   UNL     1       7.562  -2.240  -7.155  0.00  0.00    +0.046 A 
ATOM     17  C   UNL     1       8.768  -1.830  -7.688  0.00  0.00    +0.008 A 
ATOM     18  C   UNL     1       9.718  -1.236  -6.876  0.00  0.00    -0.042 A 
ATOM     19  C   UNL     1       9.462  -1.052  -5.530  0.00  0.00    +0.008 A 
ATOM     20  C   UNL     1       8.254  -1.455  -4.994  0.00  0.00    +0.046 A 
BRANCH  18  21
ATOM     21  C   UNL     1      11.033  -0.790  -7.460  0.00  0.00    -0.013 C 
ATOM     22  C   UNL     1      10.780   0.249  -8.554  0.00  0.00    +0.015 C 
ATOM     23  C   UNL     1      11.896  -0.170  -6.359  0.00  0.00    +0.015 C 
ATOM     24  C   UNL     1      11.760  -1.995  -8.060  0.00  0.00    +0.015 C 
ENDBRANCH  18  21
ENDBRANCH  14  15
ENDBRANCH  12  14
ENDBRANCH   7  12
BRANCH   2  25
ATOM     25  C   UNL     1      -1.513  -1.802  -2.475  0.00  0.00    +0.347 C 
ATOM     26  O   UNL     1      -2.306  -1.523  -1.596  0.00  0.00    -0.244 OA
BRANCH  25  27
ATOM     27  O   UNL     1      -1.959  -2.219  -3.679  0.00  0.00    -0.464 OA
ATOM     28  C   UNL     1      -3.375  -2.308  -3.850  0.00  0.00    +0.280 C 
ENDBRANCH  25  27
ENDBRANCH   2  25
TORSDOF 7
