REMARK  Name = ZINC40437184
REMARK  2 active torsions:
REMARK  status: ('A' for Active; 'I' for Inactive)
REMARK    1  A    between atoms: C_2  and  C_7
REMARK    2  A    between atoms: N_9  and  C_10
REMARK                            x       y       z     vdW  Elec       q    Type
REMARK                         _______ _______ _______ _____ _____    ______ ____
ROOT
ATOM      1  C   UNL     1       2.459   2.936   1.076  0.00  0.00    +0.247 C 
ATOM      2  O   UNL     1       2.283   3.632   2.058  0.00  0.00    -0.270 OA
ATOM      3  N   UNL     1       3.075   3.445  -0.009  0.00  0.00    -0.308 N 
ATOM      4  H   UNL     1       3.216   2.890  -0.792  0.00  0.00    +0.149 HD
ENDROOT
BRANCH   3   5
ATOM      5  C   UNL     1       3.534   4.837  -0.006  0.00  0.00    +0.077 C 
ATOM      6  C   UNL     1       3.736   5.332  -1.463  0.00  0.00    +0.026 C 
ATOM      7  C   UNL     1       5.315   5.396  -1.579  0.00  0.00    -0.006 C 
ATOM      8  C   UNL     1       5.560   6.096  -0.175  0.00  0.00    +0.009 C 
ATOM      9  C   UNL     1       4.905   4.940   0.691  0.00  0.00    +0.013 C 
ATOM     10  C   UNL     1       5.852   3.831   0.255  0.00  0.00    -0.003 C 
ATOM     11  C   UNL     1       5.637   3.955  -1.325  0.00  0.00    -0.004 C 
ATOM     12  C   UNL     1       6.421   2.875  -1.934  0.00  0.00    +0.004 C 
ATOM     13  C   UNL     1       6.273   1.711  -0.896  0.00  0.00    +0.001 C 
ATOM     14  C   UNL     1       5.509   2.354   0.403  0.00  0.00    +0.004 C 
ENDBRANCH   3   5
BRANCH   1  16
ATOM     15  C   UNL     1       1.356   0.883   2.106  0.00  0.00    +0.118 A 
ATOM     16  C   UNL     1       1.998   1.536   1.073  0.00  0.00    +0.074 A 
ATOM     17  C   UNL     1       2.131   0.611   0.013  0.00  0.00    +0.147 A 
ATOM     18  N   UNL     1       1.600  -0.518   0.394  0.00  0.00    -0.182 NA
ATOM     19  N   UNL     1       1.110  -0.372   1.697  0.00  0.00    -0.284 N 
ATOM     20  H   UNL     1       0.668  -1.062   2.216  0.00  0.00    +0.188 HD
ENDBRANCH   1  16
TORSDOF 2
