REMARK  Name = ZINC18321240
REMARK  5 active torsions:
REMARK  status: ('A' for Active; 'I' for Inactive)
REMARK    1  A    between atoms: C_1  and  C_2
REMARK    2  A    between atoms: C_2  and  C_4
REMARK    3  A    between atoms: C_2  and  S_20
REMARK    4  A    between atoms: C_10  and  C_15
REMARK    5  A    between atoms: S_20  and  C_21
REMARK                            x       y       z     vdW  Elec       q    Type
REMARK                         _______ _______ _______ _____ _____    ______ ____
ROOT
ATOM      1  C   UNL     1      -3.855  -4.304  -0.107  0.00  0.00    +0.124 A 
ATOM      2  N   UNL     1      -3.434  -5.531   0.294  0.00  0.00    -0.309 N 
ATOM      3  H   UNL     1      -2.539  -5.631   0.654  0.00  0.00    +0.170 HD
ATOM      4  C   UNL     1      -4.233  -6.610   0.203  0.00  0.00    +0.260 A 
ATOM      5  O   UNL     1      -3.840  -7.704   0.569  0.00  0.00    -0.267 OA
ATOM      6  C   UNL     1      -5.552  -6.452  -0.329  0.00  0.00    +0.083 A 
ATOM      7  C   UNL     1      -6.593  -7.455  -0.526  0.00  0.00    +0.039 A 
ATOM      8  C   UNL     1      -7.782  -7.065  -1.054  0.00  0.00    +0.059 A 
ATOM      9  S   UNL     1      -7.562  -5.316  -1.315  0.00  0.00    -0.076 S 
ATOM     10  C   UNL     1      -5.900  -5.149  -0.718  0.00  0.00    +0.116 A 
ATOM     11  N   UNL     1      -5.055  -4.128  -0.592  0.00  0.00    -0.225 NA
ENDROOT
BRANCH   7  12
ATOM     12  C   UNL     1      -6.359  -8.867  -0.159  0.00  0.00    +0.136 A 
ATOM     13  C   UNL     1      -7.178  -9.640   0.604  0.00  0.00    +0.050 A 
ATOM     14  C   UNL     1      -6.569 -10.909   0.694  0.00  0.00    +0.042 A 
ATOM     15  C   UNL     1      -5.419 -10.846  -0.003  0.00  0.00    +0.196 A 
ATOM     16  O   UNL     1      -5.295  -9.610  -0.518  0.00  0.00    -0.463 OA
ENDBRANCH   7  12
BRANCH   1  18
ATOM     17  C   UNL     1      -3.201  -2.391   1.327  0.00  0.00    +0.027 C 
ATOM     18  C   UNL     1      -2.925  -3.125   0.013  0.00  0.00    +0.119 C 
BRANCH  18  19
ATOM     19  S   UNL     1      -1.211  -3.704  -0.006  0.00  0.00    -0.056 S 
BRANCH  19  20
ATOM     20  C   UNL     1      -0.365  -2.158  -0.006  0.00  0.00    +0.259 A 
ATOM     21  N   UNL     1       0.936  -2.015  -0.018  0.00  0.00    -0.203 NA
ATOM     22  C   UNL     1       1.228  -0.685  -0.013  0.00  0.00    +0.110 A 
ATOM     23  C   UNL     1       2.421   0.039  -0.021  0.00  0.00    +0.031 A 
ATOM     24  C   UNL     1       2.385   1.416  -0.013  0.00  0.00    +0.002 A 
ATOM     25  C   UNL     1       1.171   2.085   0.002  0.00  0.00    +0.004 A 
ATOM     26  C   UNL     1      -0.017   1.381   0.010  0.00  0.00    +0.048 A 
ATOM     27  C   UNL     1       0.002  -0.004   0.002  0.00  0.00    +0.156 A 
ATOM     28  O   UNL     1      -0.962  -0.953   0.006  0.00  0.00    -0.431 OA
ENDBRANCH  19  20
ENDBRANCH  18  19
ENDBRANCH   1  18
TORSDOF 4
