REMARK  Name = ZINC30495517
REMARK  9 active torsions:
REMARK  status: ('A' for Active; 'I' for Inactive)
REMARK    1  A    between atoms: C_1  and  O_2
REMARK    2  A    between atoms: O_2  and  C_3
REMARK    3  A    between atoms: C_6  and  C_9
REMARK    4  A    between atoms: C_9  and  C_11
REMARK    5  A    between atoms: C_9  and  N_28
REMARK    6  A    between atoms: C_11  and  N_12
REMARK    7  A    between atoms: N_12  and  S_13
REMARK    8  A    between atoms: S_13  and  C_16
REMARK    9  A    between atoms: C_19  and  N_22
REMARK                            x       y       z     vdW  Elec       q    Type
REMARK                         _______ _______ _______ _____ _____    ______ ____
ROOT
ATOM      1  C   UNL     1      -1.044   1.861   2.982  0.00  0.00    +0.095 C 
ENDROOT
BRANCH   1   2
ATOM      2  N   UNL     1      -2.487   1.674   3.150  0.00  0.00    -0.191 NA
ATOM      3  H   UNL     1      -3.098   1.323   2.305  0.00  0.00    +0.148 HD
BRANCH   2   4
ATOM      4  S   UNL     1      -3.239   2.220   4.520  0.00  0.00    +0.058 S 
ATOM      5  O   UNL     1      -4.620   1.918   4.374  0.00  0.00    -0.153 OA
ATOM      6  O   UNL     1      -2.469   1.753   5.619  0.00  0.00    -0.153 OA
BRANCH   4   7
ATOM      7  C   UNL     1      -3.105   3.977   4.522  0.00  0.00    +0.105 A 
ATOM      8  C   UNL     1      -2.021   4.586   5.127  0.00  0.00    +0.030 A 
ATOM      9  C   UNL     1      -1.911   5.963   5.127  0.00  0.00    +0.025 A 
ATOM     10  C   UNL     1      -2.896   6.736   4.526  0.00  0.00    +0.036 A 
ATOM     11  C   UNL     1      -3.986   6.122   3.924  0.00  0.00    +0.025 A 
ATOM     12  C   UNL     1      -4.088   4.745   3.924  0.00  0.00    +0.030 A 
BRANCH  10  13
ATOM     13  N   UNL     1      -2.789   8.132   4.528  0.00  0.00    -0.271 N 
ATOM     14  C   UNL     1      -3.708   9.033   3.821  0.00  0.00    +0.114 C 
ATOM     15  C   UNL     1      -2.972  10.389   3.739  0.00  0.00    +0.029 C 
ATOM     16  C   UNL     1      -2.017  10.303   4.952  0.00  0.00    +0.098 C 
ATOM     17  C   UNL     1      -1.837   8.819   5.181  0.00  0.00    +0.220 C 
ATOM     18  O   UNL     1      -0.958   8.321   5.853  0.00  0.00    -0.275 OA
ENDBRANCH  10  13
ENDBRANCH   4   7
ENDBRANCH   2   4
ENDBRANCH   1   2
BRANCH   1  19
ATOM     19  C   UNL     1      -0.542   0.963   1.849  0.00  0.00    -0.022 C 
BRANCH  19  20
ATOM     20  N   UNL     1      -1.314   1.236   0.629  0.00  0.00    +0.385 N 
ATOM     21  C   UNL     1      -0.539   0.895  -0.571  0.00  0.00    -0.078 C 
ATOM     22  C   UNL     1      -1.422   1.053  -1.811  0.00  0.00    -0.019 C 
ATOM     23  C   UNL     1      -1.920   2.499  -1.896  0.00  0.00    -0.004 C 
ATOM     24  C   UNL     1      -2.682   2.844  -0.613  0.00  0.00    -0.019 C 
ATOM     25  C   UNL     1      -1.762   2.634   0.592  0.00  0.00    -0.078 C 
ATOM     26  H   UNL     1      -2.209   0.597   0.643  0.00  0.00    -0.081 HD
ENDBRANCH  19  20
BRANCH  19  30
ATOM     27  C   UNL     1       3.594   1.761   1.125  0.00  0.00    +0.120 A 
ATOM     28  C   UNL     1       3.187   0.490   1.506  0.00  0.00    +0.046 A 
ATOM     29  C   UNL     1       1.850   0.235   1.739  0.00  0.00    +0.005 A 
ATOM     30  C   UNL     1       0.916   1.245   1.594  0.00  0.00    -0.059 A 
ATOM     31  C   UNL     1       1.318   2.510   1.209  0.00  0.00    +0.005 A 
ATOM     32  C   UNL     1       2.655   2.772   0.980  0.00  0.00    +0.046 A 
BRANCH  27  34
ATOM     33  C   UNL     1       5.254   3.345   0.506  0.00  0.00    +0.277 C 
ATOM     34  O   UNL     1       4.909   2.014   0.894  0.00  0.00    -0.495 OA
ENDBRANCH  27  34
ENDBRANCH  19  30
ENDBRANCH   1  19
TORSDOF 8
