REMARK  Name = ZINC00891177
REMARK  8 active torsions:
REMARK  status: ('A' for Active; 'I' for Inactive)
REMARK    1  A    between atoms: C_1  and  C_2
REMARK    2  A    between atoms: C_2  and  C_3
REMARK    3  A    between atoms: C_8  and  N_9
REMARK    4  A    between atoms: N_9  and  C_10
REMARK    5  A    between atoms: C_10  and  N_12
REMARK    6  A    between atoms: N_12  and  C_13
REMARK    7  A    between atoms: N_12  and  C_30
REMARK    8  A    between atoms: C_13  and  C_14
REMARK                            x       y       z     vdW  Elec       q    Type
REMARK                         _______ _______ _______ _____ _____    ______ ____
ROOT
ATOM      1  N   UNL     1       4.814   1.452   0.133  0.00  0.00    -0.305 N 
ENDROOT
BRANCH   1   2
ATOM      2  C   UNL     1       4.969   0.010   0.341  0.00  0.00    +0.075 C 
ATOM      3  C   UNL     1       4.465  -0.740  -0.893  0.00  0.00    +0.022 C 
ATOM      4  C   UNL     1       4.627  -2.246  -0.676  0.00  0.00    +0.002 C 
ATOM      5  C   UNL     1       3.816  -2.675   0.548  0.00  0.00    +0.000 C 
ATOM      6  C   UNL     1       4.321  -1.925   1.782  0.00  0.00    +0.002 C 
ATOM      7  C   UNL     1       4.158  -0.419   1.565  0.00  0.00    +0.022 C 
ENDBRANCH   1   2
BRANCH   1   8
ATOM      8  C   UNL     1       3.599   1.966  -0.140  0.00  0.00    +0.138 C 
ATOM      9  S   UNL     1       2.217   0.955  -0.121  0.00  0.00    -0.018 S 
BRANCH   8  10
ATOM     10  N   UNL     1       3.471   3.277  -0.428  0.00  0.00    -0.297 N 
ATOM     11  H   UNL     1       4.261   3.831  -0.526  0.00  0.00    +0.154 HD
BRANCH  10  17
ATOM     12  C   UNL     1       1.895   5.053   0.014  0.00  0.00    -0.026 A 
ATOM     13  C   UNL     1       0.637   5.601  -0.138  0.00  0.00    +0.005 A 
ATOM     14  C   UNL     1      -0.317   4.946  -0.894  0.00  0.00    +0.000 A 
ATOM     15  C   UNL     1      -0.018   3.735  -1.492  0.00  0.00    +0.002 A 
ATOM     16  C   UNL     1       1.236   3.179  -1.340  0.00  0.00    +0.023 A 
ATOM     17  C   UNL     1       2.199   3.837  -0.585  0.00  0.00    +0.036 A 
BRANCH  12  19
ATOM     18  C   UNL     1       3.821   6.613  -0.088  0.00  0.00    +0.009 C 
ATOM     19  C   UNL     1       2.937   5.770   0.834  0.00  0.00    +0.033 C 
ENDBRANCH  12  19
ENDBRANCH  10  17
ENDBRANCH   8  10
ENDBRANCH   1   8
BRANCH   1  20
ATOM     20  C   UNL     1       5.980   2.334   0.222  0.00  0.00    +0.147 C 
BRANCH  20  21
ATOM     21  C   UNL     1       6.420   2.443   1.660  0.00  0.00    +0.035 A 
ATOM     22  C   UNL     1       7.383   1.613   2.136  0.00  0.00    +0.020 A 
ATOM     23  C   UNL     1       7.787   1.743   3.535  0.00  0.00    +0.003 A 
ATOM     24  C   UNL     1       8.775   0.915   4.082  0.00  0.00    +0.059 A 
ATOM     25  C   UNL     1       9.134   1.058   5.406  0.00  0.00    +0.163 A 
ATOM     26  C   UNL     1       8.517   2.029   6.201  0.00  0.00    +0.164 A 
ATOM     27  C   UNL     1       7.541   2.853   5.668  0.00  0.00    +0.075 A 
ATOM     28  C   UNL     1       7.167   2.720   4.338  0.00  0.00    +0.053 A 
ATOM     29  N   UNL     1       6.194   3.533   3.791  0.00  0.00    -0.322 N 
ATOM     30  H   UNL     1       5.768   4.206   4.344  0.00  0.00    +0.169 HD
ATOM     31  C   UNL     1       5.833   3.409   2.502  0.00  0.00    +0.254 A 
ATOM     32  O   UNL     1       4.973   4.146   2.052  0.00  0.00    -0.268 OA
ATOM     33  O   UNL     1       8.868   2.180   7.507  0.00  0.00    -0.485 OA
ATOM     34  C   UNL     1       9.579   1.094   8.112  0.00  0.00    +0.270 C 
ATOM     35  C   UNL     1      10.695   0.656   7.155  0.00  0.00    +0.270 C 
ATOM     36  O   UNL     1      10.092   0.241   5.924  0.00  0.00    -0.485 OA
ENDBRANCH  20  21
ENDBRANCH   1  20
TORSDOF 7
