REMARK  Name = ZINC12546290
REMARK  7 active torsions:
REMARK  status: ('A' for Active; 'I' for Inactive)
REMARK    1  A    between atoms: C_1  and  C_2
REMARK    2  A    between atoms: C_10  and  S_12
REMARK    3  A    between atoms: S_12  and  C_13
REMARK    4  A    between atoms: C_13  and  C_15
REMARK    5  A    between atoms: C_13  and  C_16
REMARK    6  A    between atoms: N_18  and  C_19
REMARK    7  A    between atoms: C_21  and  N_26
REMARK                            x       y       z     vdW  Elec       q    Type
REMARK                         _______ _______ _______ _____ _____    ______ ____
ROOT
ATOM      1  C   UNL     1       0.088  -7.039   1.042  0.00  0.00    +0.137 C 
ATOM      2  C   UNL     1      -1.227  -6.958   0.264  0.00  0.00    +0.029 C 
ENDROOT
BRANCH   1   3
ATOM      3  C   UNL     1       0.246  -8.422   1.619  0.00  0.00    +0.230 C 
ATOM      4  O   UNL     1      -0.105  -8.648   2.757  0.00  0.00    -0.274 OA
ATOM      5  N   UNL     1       0.778  -9.409   0.870  0.00  0.00    -0.283 N 
ATOM      6  H   UNL     1       0.999  -9.245  -0.061  0.00  0.00    +0.155 HD
BRANCH   5   7
ATOM      7  C   UNL     1       1.011 -10.668   1.434  0.00  0.00    +0.054 A 
ATOM      8  C   UNL     1       0.144 -11.171   2.395  0.00  0.00    +0.057 A 
ATOM      9  C   UNL     1       0.377 -12.415   2.950  0.00  0.00    +0.128 A 
ATOM     10  C   UNL     1       1.472 -13.159   2.550  0.00  0.00    +0.034 A 
ATOM     11  C   UNL     1       2.338 -12.661   1.593  0.00  0.00    +0.024 A 
ATOM     12  C   UNL     1       2.108 -11.420   1.030  0.00  0.00    +0.062 A 
ATOM     13 CL   UNL     1       3.191 -10.799  -0.176  0.00  0.00    -0.082 Cl
BRANCH   9  14
ATOM     14  N   UNL     1      -0.546 -12.951   3.974  0.00  0.00    +0.056 N 
ATOM     15  O   UNL     1      -1.504 -12.301   4.325  0.00  0.00    -0.126 OA
ATOM     16  O   UNL     1      -0.344 -14.039   4.461  0.00  0.00    -0.126 OA
ENDBRANCH   9  14
ENDBRANCH   5   7
ENDBRANCH   1   3
BRANCH   1  17
ATOM     17  S   UNL     1       0.072  -5.821   2.386  0.00  0.00    -0.075 S 
BRANCH  17  27
ATOM     18  C   UNL     1      -0.099   1.494  -0.017  0.00  0.00    +0.044 C 
ATOM     19  C   UNL     1      -0.068  -0.012  -0.021  0.00  0.00    -0.048 A 
ATOM     20  C   UNL     1      -0.061  -0.698  -1.227  0.00  0.00    +0.005 A 
ATOM     21  C   UNL     1      -0.033  -2.074  -1.248  0.00  0.00    +0.030 A 
ATOM     22  C   UNL     1      -0.009  -2.786  -0.046  0.00  0.00    +0.090 A 
ATOM     23  C   UNL     1      -0.016  -2.087   1.172  0.00  0.00    +0.067 A 
ATOM     24  C   UNL     1      -0.040  -0.701   1.174  0.00  0.00    +0.031 A 
ATOM     25  N   UNL     1       0.011  -3.049   2.169  0.00  0.00    -0.333 N 
ATOM     26  H   UNL     1       0.014  -2.886   3.125  0.00  0.00    +0.168 HD
ATOM     27  C   UNL     1       0.033  -4.269   1.554  0.00  0.00    +0.168 A 
ATOM     28  N   UNL     1       0.021  -4.111   0.253  0.00  0.00    -0.222 NA
ENDBRANCH  17  27
ENDBRANCH   1  17
TORSDOF 5
