REMARK  Name = ZINC08797486
REMARK  7 active torsions:
REMARK  status: ('A' for Active; 'I' for Inactive)
REMARK    1  A    between atoms: C_1  and  C_2
REMARK    2  A    between atoms: C_2  and  N_3
REMARK    3  A    between atoms: N_14  and  C_15
REMARK    4  A    between atoms: C_15  and  C_17
REMARK    5  A    between atoms: C_20  and  S_23
REMARK    6  A    between atoms: S_23  and  N_26
REMARK    7  A    between atoms: C_30  and  C_33
REMARK                            x       y       z     vdW  Elec       q    Type
REMARK                         _______ _______ _______ _____ _____    ______ ____
ROOT
ATOM      1  C   UNL     1       2.899   7.241   0.961  0.00  0.00    +0.269 C 
ATOM      2  O   UNL     1       3.736   6.355   0.982  0.00  0.00    -0.268 OA
ENDROOT
BRANCH   1  14
ATOM      3  N   UNL     1       0.036   5.212   0.120  0.00  0.00    -0.320 N 
ATOM      4  C   UNL     1      -0.140   3.861  -0.118  0.00  0.00    +0.077 A 
ATOM      5  C   UNL     1       1.025   3.087  -0.019  0.00  0.00    +0.040 A 
ATOM      6  C   UNL     1       1.028   1.728  -0.225  0.00  0.00    +0.019 A 
ATOM      7  C   UNL     1      -0.154   1.081  -0.543  0.00  0.00    +0.022 A 
ATOM      8  C   UNL     1      -1.320   1.821  -0.654  0.00  0.00    +0.061 A 
ATOM      9  C   UNL     1      -1.325   3.181  -0.443  0.00  0.00    +0.084 A 
ATOM     10 CL   UNL     1      -2.811   4.067  -0.586  0.00  0.00    -0.080 Cl
ATOM     11 CL   UNL     1      -2.804   1.016  -1.061  0.00  0.00    -0.082 Cl
ATOM     12  S   UNL     1       2.273   4.279   0.395  0.00  0.00    -0.052 S 
ATOM     13  C   UNL     1       1.271   5.695   0.423  0.00  0.00    +0.167 A 
ATOM     14  N   UNL     1       1.625   6.950   0.680  0.00  0.00    -0.152 NA
BRANCH   3  16
ATOM     15  C   UNL     1      -0.818   7.375   0.877  0.00  0.00    +0.027 C 
ATOM     16  C   UNL     1      -1.108   6.123   0.046  0.00  0.00    +0.121 C 
ENDBRANCH   3  16
ENDBRANCH   1  14
BRANCH   1  17
ATOM     17  C   UNL     1       3.294   8.639   1.248  0.00  0.00    +0.039 A 
ATOM     18  C   UNL     1       2.339   9.656   1.219  0.00  0.00    +0.015 A 
ATOM     19  C   UNL     1       2.711  10.956   1.492  0.00  0.00    +0.029 A 
ATOM     20  C   UNL     1       4.031  11.254   1.783  0.00  0.00    +0.106 A 
ATOM     21  C   UNL     1       4.983  10.251   1.807  0.00  0.00    +0.029 A 
ATOM     22  C   UNL     1       4.622   8.946   1.541  0.00  0.00    +0.015 A 
BRANCH  20  23
ATOM     23  S   UNL     1       4.500  12.918   2.123  0.00  0.00    +0.061 S 
ATOM     24  O   UNL     1       3.329  13.586   2.574  0.00  0.00    -0.153 OA
ATOM     25  O   UNL     1       5.688  12.854   2.901  0.00  0.00    -0.153 OA
BRANCH  23  26
ATOM     26  N   UNL     1       4.916  13.614   0.680  0.00  0.00    -0.176 NA
ATOM     27  C   UNL     1       3.908  14.301  -0.139  0.00  0.00    +0.109 C 
ATOM     28  C   UNL     1       3.936  13.712  -1.553  0.00  0.00    +0.017 C 
ATOM     29  C   UNL     1       5.360  13.797  -2.108  0.00  0.00    +0.006 C 
ATOM     30  C   UNL     1       6.303  12.978  -1.224  0.00  0.00    +0.002 C 
ATOM     31  C   UNL     1       6.303  13.563   0.196  0.00  0.00    +0.112 C 
ATOM     32  C   UNL     1       7.721  13.037  -1.798  0.00  0.00    +0.009 C 
ENDBRANCH  23  26
ENDBRANCH  20  23
ENDBRANCH   1  17
TORSDOF 5
