REMARK  Name = ZINC60355778
REMARK  5 active torsions:
REMARK  status: ('A' for Active; 'I' for Inactive)
REMARK    1  A    between atoms: C_4  and  S_19
REMARK    2  A    between atoms: C_5  and  N_7
REMARK    3  A    between atoms: C_13  and  N_17
REMARK    4  A    between atoms: C_14  and  C_15
REMARK    5  A    between atoms: S_19  and  C_22
REMARK                            x       y       z     vdW  Elec       q    Type
REMARK                         _______ _______ _______ _____ _____    ______ ____
ROOT
ATOM      1  N   UNL     1       1.248  -2.078   0.203  0.00  0.00    -0.323 N 
ATOM      2  C   UNL     1       1.206  -2.727   1.522  0.00  0.00    +0.110 C 
ATOM      3  C   UNL     1      -0.083  -3.540   1.653  0.00  0.00    +0.056 C 
ATOM      4  C   UNL     1      -0.272  -4.381   0.399  0.00  0.00    -0.015 A 
ATOM      5  C   UNL     1       0.364  -4.085  -0.755  0.00  0.00    +0.013 A 
ATOM      6  S   UNL     1      -0.172  -5.323  -1.897  0.00  0.00    -0.076 S 
ATOM      7  C   UNL     1      -1.194  -6.208  -0.902  0.00  0.00    +0.081 A 
ATOM      8  C   UNL     1      -1.130  -5.552   0.318  0.00  0.00    +0.083 A 
ATOM      9  C   UNL     1       1.309  -2.950  -0.987  0.00  0.00    +0.147 C 
ENDROOT
BRANCH   1  14
ATOM     10  C   UNL     1      -0.008   1.366  -0.062  0.00  0.00    +0.002 A 
ATOM     11  C   UNL     1       1.178   2.070  -0.163  0.00  0.00    +0.002 A 
ATOM     12  C   UNL     1       2.387   1.399  -0.144  0.00  0.00    +0.029 A 
ATOM     13  C   UNL     1       2.414   0.024  -0.022  0.00  0.00    +0.118 A 
ATOM     14  C   UNL     1       1.225  -0.686   0.080  0.00  0.00    +0.055 A 
ATOM     15  C   UNL     1       0.011  -0.010   0.060  0.00  0.00    +0.025 A 
BRANCH  13  16
ATOM     16  S   UNL     1       3.955  -0.830   0.002  0.00  0.00    +0.093 S 
ATOM     17  O   UNL     1       4.806  -0.020   0.802  0.00  0.00    -0.161 OA
ATOM     18  O   UNL     1       3.630  -2.154   0.402  0.00  0.00    -0.161 OA
BRANCH  16  19
ATOM     19  C   UNL     1       4.521  -0.819  -1.721  0.00  0.00    +0.526 C 
ATOM     20  F   UNL     1       4.782   0.497  -2.118  0.00  0.00    -0.150 F 
ATOM     21  F   UNL     1       5.690  -1.580  -1.833  0.00  0.00    -0.150 F 
ATOM     22  F   UNL     1       3.529  -1.366  -2.542  0.00  0.00    -0.150 F 
ENDBRANCH  16  19
ENDBRANCH  13  16
ENDBRANCH   1  14
BRANCH   7  23
ATOM     23  N   UNL     1      -1.932  -7.333  -1.225  0.00  0.00    -0.352 N 
ATOM     24  H   UNL     1      -1.891  -7.699  -2.122  0.00  0.00    +0.143 HD
ATOM     25  H   UNL     1      -2.490  -7.756  -0.554  0.00  0.00    +0.143 HD
ENDBRANCH   7  23
BRANCH   8  26
ATOM     26  C   UNL     1      -1.876  -6.009   1.451  0.00  0.00    +0.102 C 
ATOM     27  N   UNL     1      -2.469  -6.372   2.350  0.00  0.00    -0.191 NA
ENDBRANCH   8  26
TORSDOF 5
