REMARK  Name = ZINC63303048
REMARK  4 active torsions:
REMARK  status: ('A' for Active; 'I' for Inactive)
REMARK    1  A    between atoms: N_18  and  C_19
REMARK    2  A    between atoms: C_19  and  C_20
REMARK    3  A    between atoms: C_20  and  C_21
REMARK    4  A    between atoms: C_26  and  C_29
REMARK                            x       y       z     vdW  Elec       q    Type
REMARK                         _______ _______ _______ _____ _____    ______ ____
ROOT
ATOM      1  C   UNL     1      -0.016   1.406   0.016  0.00  0.00    +0.022 A 
ATOM      2  C   UNL     1       1.111   2.148   0.012  0.00  0.00    +0.027 A 
ATOM      3  C   UNL     1       2.387   1.522  -0.006  0.00  0.00    +0.043 A 
ATOM      4  N   UNL     1       3.603   2.018   0.007  0.00  0.00    -0.376 N 
ATOM      5  C   UNL     1       4.556   0.916  -0.100  0.00  0.00    +0.124 C 
ATOM      6  C   UNL     1       5.542   0.896   1.073  0.00  0.00    +0.138 C 
ATOM      7  N   UNL     1       6.176  -0.431   1.108  0.00  0.00    -0.283 N 
ATOM      8  C   UNL     1       5.365  -1.642   1.276  0.00  0.00    +0.114 C 
ATOM      9  C   UNL     1       4.329  -1.723   0.141  0.00  0.00    +0.052 C 
ATOM     10  C   UNL     1       3.719  -0.350  -0.019  0.00  0.00    -0.035 C 
ATOM     11  C   UNL     1       2.436   0.039  -0.013  0.00  0.00    +0.001 A 
ATOM     12  C   UNL     1       1.162  -0.693  -0.011  0.00  0.00    +0.030 A 
ATOM     13  C   UNL     1       0.003   0.003   0.003  0.00  0.00    +0.042 A 
ATOM     14 CL   UNL     1      -1.502  -0.862   0.004  0.00  0.00    -0.084 Cl
ATOM     15  C   UNL     1       7.514  -0.536   0.983  0.00  0.00    +0.302 C 
ATOM     16  O   UNL     1       8.181   0.453   0.747  0.00  0.00    -0.253 OA
ATOM     17  N   UNL     1       8.112  -1.736   1.119  0.00  0.00    -0.299 N 
ATOM     18  H   UNL     1       7.575  -2.535   1.234  0.00  0.00    +0.150 HD
ATOM     19  H   UNL     1       3.830   2.958   0.076  0.00  0.00    +0.160 HD
ENDROOT
BRANCH  17  20
ATOM     20  C   UNL     1       9.573  -1.833   1.092  0.00  0.00    +0.115 C 
BRANCH  20  21
ATOM     21  C   UNL     1       9.991  -3.295   1.266  0.00  0.00    +0.114 C 
BRANCH  21  22
ATOM     22  C   UNL     1      11.494  -3.395   1.239  0.00  0.00    +0.217 C 
ATOM     23  O   UNL     1      12.166  -2.395   1.095  0.00  0.00    -0.276 OA
ATOM     24  N   UNL     1      12.092  -4.595   1.375  0.00  0.00    -0.301 N 
ATOM     25  C   UNL     1      11.292  -5.815   1.544  0.00  0.00    +0.108 C 
ATOM     26  C   UNL     1      11.719  -6.836   0.485  0.00  0.00    +0.032 C 
ATOM     27  C   UNL     1      13.230  -7.058   0.576  0.00  0.00    +0.078 C 
ATOM     28  C   UNL     1      13.959  -5.741   0.299  0.00  0.00    +0.032 C 
ATOM     29  C   UNL     1      13.557  -4.708   1.350  0.00  0.00    +0.108 C 
BRANCH  27  30
ATOM     30  C   UNL     1      13.649  -8.087  -0.442  0.00  0.00    +0.214 C 
ATOM     31  O   UNL     1      12.820  -8.593  -1.169  0.00  0.00    -0.276 OA
ATOM     32  N   UNL     1      14.944  -8.445  -0.544  0.00  0.00    -0.329 N 
ATOM     33  H   UNL     1      15.607  -8.041   0.037  0.00  0.00    +0.145 HD
ATOM     34  H   UNL     1      15.214  -9.108  -1.200  0.00  0.00    +0.145 HD
ENDBRANCH  27  30
ENDBRANCH  21  22
ENDBRANCH  20  21
ENDBRANCH  17  20
TORSDOF 4
