REMARK  Name = ZINC21672219
REMARK  8 active torsions:
REMARK  status: ('A' for Active; 'I' for Inactive)
REMARK    1  A    between atoms: C_1  and  C_2
REMARK    2  A    between atoms: C_2  and  C_4
REMARK    3  A    between atoms: C_2  and  N_16
REMARK    4  A    between atoms: N_6  and  C_7
REMARK    5  A    between atoms: C_12  and  C_13
REMARK    6  A    between atoms: C_13  and  C_14
REMARK    7  A    between atoms: C_13  and  C_15
REMARK    8  A    between atoms: C_26  and  C_29
REMARK                            x       y       z     vdW  Elec       q    Type
REMARK                         _______ _______ _______ _____ _____    ______ ____
ROOT
ATOM      1  N   UNL     1       0.770  -0.621  -1.156  0.00  0.00    +0.388 N 
ATOM      2  C   UNL     1       0.571  -2.068  -1.187  0.00  0.00    -0.076 C 
ATOM      3  C   UNL     1       0.574  -2.542  -2.623  0.00  0.00    +0.000 C 
ATOM      4  C   UNL     1       1.996  -2.984  -3.014  0.00  0.00    +0.104 C 
ATOM      5  N   UNL     1       3.010  -2.071  -2.449  0.00  0.00    -0.317 N 
ATOM      6  C   UNL     1       2.837  -0.634  -2.433  0.00  0.00    +0.088 C 
ATOM      7  C   UNL     1       2.121  -0.206  -1.130  0.00  0.00    -0.059 C 
ATOM      8  C   UNL     1       4.173  -2.612  -1.912  0.00  0.00    +0.121 A 
ATOM      9  C   UNL     1       4.460  -3.960  -2.106  0.00  0.00    +0.044 A 
ATOM     10  C   UNL     1       5.620  -4.484  -1.567  0.00  0.00    +0.017 A 
ATOM     11  C   UNL     1       6.458  -3.641  -0.849  0.00  0.00    +0.073 A 
ATOM     12  C   UNL     1       6.111  -2.314  -0.696  0.00  0.00    +0.125 A 
ATOM     13  N   UNL     1       5.000  -1.839  -1.226  0.00  0.00    -0.240 NA
ATOM     14  H   UNL     1       0.331  -0.224  -1.972  0.00  0.00    -0.081 HD
ENDROOT
BRANCH  11  15
ATOM     15  C   UNL     1       7.733  -4.169  -0.243  0.00  0.00    +0.419 C 
ATOM     16  F   UNL     1       8.777  -4.035  -1.164  0.00  0.00    -0.166 F 
ATOM     17  F   UNL     1       8.035  -3.443   0.914  0.00  0.00    -0.166 F 
ATOM     18  F   UNL     1       7.569  -5.520   0.084  0.00  0.00    -0.166 F 
ENDBRANCH  11  15
BRANCH   1  20
ATOM     19  C   UNL     1       0.878  -0.494   1.288  0.00  0.00    -0.004 C 
ATOM     20  C   UNL     1       0.099  -0.086   0.036  0.00  0.00    +0.016 C 
BRANCH  20  21
ATOM     21  C   UNL     1       0.041   1.418  -0.052  0.00  0.00    +0.203 C 
ATOM     22  O   UNL     1       0.449   1.983  -1.045  0.00  0.00    -0.277 OA
ATOM     23  N   UNL     1      -0.463   2.134   0.972  0.00  0.00    -0.287 N 
ATOM     24  H   UNL     1      -0.859   1.680   1.733  0.00  0.00    +0.155 HD
BRANCH  23  25
ATOM     25  C   UNL     1      -0.416   3.532   0.938  0.00  0.00    +0.037 A 
ATOM     26  C   UNL     1       0.549   4.177   0.175  0.00  0.00    +0.023 A 
ATOM     27  C   UNL     1       0.593   5.557   0.144  0.00  0.00    +0.002 A 
ATOM     28  C   UNL     1      -0.322   6.296   0.872  0.00  0.00    +0.000 A 
ATOM     29  C   UNL     1      -1.283   5.657   1.633  0.00  0.00    +0.006 A 
ATOM     30  C   UNL     1      -1.336   4.277   1.663  0.00  0.00    -0.024 A 
BRANCH  30  31
ATOM     31  C   UNL     1      -2.389   3.581   2.487  0.00  0.00    +0.015 C 
ATOM     32  C   UNL     1      -2.313   4.074   3.933  0.00  0.00    +0.012 C 
ATOM     33  C   UNL     1      -3.773   3.892   1.915  0.00  0.00    +0.012 C 
ENDBRANCH  30  31
ENDBRANCH  23  25
ENDBRANCH  20  21
ENDBRANCH   1  20
TORSDOF 5
