REMARK  Name = ZINC02659143
REMARK  4 active torsions:
REMARK  status: ('A' for Active; 'I' for Inactive)
REMARK    1  A    between atoms: C_3  and  C_10
REMARK    2  A    between atoms: C_5  and  N_7
REMARK    3  A    between atoms: N_14  and  C_18
REMARK    4  A    between atoms: C_22  and  C_24
REMARK                            x       y       z     vdW  Elec       q    Type
REMARK                         _______ _______ _______ _____ _____    ______ ____
ROOT
ATOM      1  C   UNL     1       3.358  -5.087  -0.240  0.00  0.00    +0.028 C 
ATOM      2  C   UNL     1       2.369  -4.257   0.174  0.00  0.00    +0.078 C 
ATOM      3  C   UNL     1       2.466  -2.920   0.793  0.00  0.00    +0.263 C 
ATOM      4  O   UNL     1       3.542  -2.395   1.007  0.00  0.00    -0.269 OA
ATOM      5  N   UNL     1       1.330  -2.320   1.105  0.00  0.00    -0.215 N 
ATOM      6  C   UNL     1       0.118  -2.937   0.858  0.00  0.00    +0.165 C 
ATOM      7  N   UNL     1      -1.083  -2.494   1.104  0.00  0.00    -0.279 NA
ATOM      8  S   UNL     1       0.598  -4.489   0.116  0.00  0.00    -0.049 S 
ATOM      9  H   UNL     1      -1.221  -1.507   1.569  0.00  0.00    +0.189 HD
ENDROOT
BRANCH   1  12
ATOM     10  C   UNL     1       6.357  -2.886  -0.712  0.00  0.00    +0.003 A 
ATOM     11  C   UNL     1       5.048  -3.320  -0.695  0.00  0.00    +0.008 A 
ATOM     12  C   UNL     1       4.751  -4.616  -0.262  0.00  0.00    -0.022 A 
ATOM     13  C   UNL     1       5.785  -5.461   0.157  0.00  0.00    +0.040 A 
ATOM     14  C   UNL     1       7.089  -5.014   0.128  0.00  0.00    +0.127 A 
ATOM     15  C   UNL     1       7.375  -3.730  -0.302  0.00  0.00    +0.033 A 
BRANCH  14  16
ATOM     16  N   UNL     1       8.185  -5.907   0.565  0.00  0.00    +0.056 N 
ATOM     17  O   UNL     1       9.337  -5.513   0.545  0.00  0.00    -0.126 OA
ATOM     18  O   UNL     1       7.935  -7.038   0.944  0.00  0.00    -0.126 OA
ENDBRANCH  14  16
ENDBRANCH   1  12
BRANCH   5  19
ATOM     19  C   UNL     1       1.354  -1.049   1.696  0.00  0.00    +0.044 A 
ATOM     20  C   UNL     1       1.894  -0.882   2.964  0.00  0.00    +0.024 A 
ATOM     21  C   UNL     1       1.917   0.371   3.543  0.00  0.00    +0.002 A 
ATOM     22  C   UNL     1       1.403   1.459   2.861  0.00  0.00    +0.012 A 
ATOM     23  C   UNL     1       0.865   1.296   1.598  0.00  0.00    +0.057 A 
ATOM     24  C   UNL     1       0.839   0.045   1.014  0.00  0.00    +0.036 A 
BRANCH  23  25
ATOM     25  C   UNL     1       0.312   2.486   0.856  0.00  0.00    +0.417 C 
ATOM     26  F   UNL     1      -1.047   2.631   1.156  0.00  0.00    -0.166 F 
ATOM     27  F   UNL     1       1.001   3.639   1.245  0.00  0.00    -0.166 F 
ATOM     28  F   UNL     1       0.468   2.290  -0.520  0.00  0.00    -0.166 F 
ENDBRANCH  23  25
ENDBRANCH   5  19
TORSDOF 4
