REMARK  Name = ZINC12240099
REMARK  6 active torsions:
REMARK  status: ('A' for Active; 'I' for Inactive)
REMARK    1  A    between atoms: C_1  and  C_2
REMARK    2  A    between atoms: C_3  and  C_13
REMARK    3  A    between atoms: C_5  and  C_7
REMARK    4  A    between atoms: C_13  and  O_14
REMARK    5  A    between atoms: O_14  and  C_15
REMARK    6  A    between atoms: C_15  and  C_17
REMARK                            x       y       z     vdW  Elec       q    Type
REMARK                         _______ _______ _______ _____ _____    ______ ____
ROOT
ATOM      1  C   UNL     1       3.571   0.694  -0.028  0.00  0.00    +0.088 C 
ATOM      2  C   UNL     1       2.064   0.677  -0.014  0.00  0.00    +0.129 A 
ATOM      3  C   UNL     1       1.279  -0.416  -0.012  0.00  0.00    +0.120 A 
ATOM      4  N   UNL     1       0.002  -0.004   0.002  0.00  0.00    -0.210 NA
ATOM      5  C   UNL     1      -0.016   1.308   0.009  0.00  0.00    +0.228 A 
ATOM      6  O   UNL     1       1.253   1.753  -0.001  0.00  0.00    -0.440 OA
ENDROOT
BRANCH   5   7
ATOM      7  C   UNL     1      -1.227   2.155   0.020  0.00  0.00    +0.037 A 
ATOM      8  C   UNL     1      -2.493   1.567   0.017  0.00  0.00    +0.013 A 
ATOM      9  C   UNL     1      -3.620   2.363   0.032  0.00  0.00    +0.001 A 
ATOM     10  C   UNL     1      -3.497   3.741   0.039  0.00  0.00    +0.000 A 
ATOM     11  C   UNL     1      -2.245   4.330   0.036  0.00  0.00    +0.001 A 
ATOM     12  C   UNL     1      -1.111   3.546   0.027  0.00  0.00    +0.013 A 
ENDBRANCH   5   7
BRANCH   3  13
ATOM     13  C   UNL     1       1.750  -1.847  -0.025  0.00  0.00    +0.291 C 
BRANCH  13  14
ATOM     14  O   UNL     1       1.888  -2.299  -1.398  0.00  0.00    -0.454 OA
BRANCH  14  15
ATOM     15  C   UNL     1       2.304  -3.568  -1.587  0.00  0.00    +0.346 C 
ATOM     16  O   UNL     1       2.545  -4.278  -0.628  0.00  0.00    -0.244 OA
BRANCH  15  17
ATOM     17  C   UNL     1       2.466  -4.092  -2.944  0.00  0.00    +0.097 A 
ATOM     18  C   UNL     1       2.875  -5.346  -3.351  0.00  0.00    +0.026 A 
ATOM     19  C   UNL     1       2.948  -5.604  -4.719  0.00  0.00    -0.036 A 
ATOM     20  C   UNL     1       2.608  -4.584  -5.553  0.00  0.00    -0.006 A 
ATOM     21  S   UNL     1       2.178  -3.279  -4.505  0.00  0.00    -0.086 S 
ATOM     22  C   UNL     1       2.730  -4.977  -6.999  0.00  0.00    +0.043 C 
ATOM     23  C   UNL     1       3.610  -6.246  -6.986  0.00  0.00    +0.010 C 
ATOM     24  C   UNL     1       3.334  -6.811  -5.579  0.00  0.00    +0.036 C 
ENDBRANCH  15  17
ENDBRANCH  14  15
ENDBRANCH  13  14
ENDBRANCH   3  13
TORSDOF 5
