REMARK  Name = ZINC14542571
REMARK  6 active torsions:
REMARK  status: ('A' for Active; 'I' for Inactive)
REMARK    1  A    between atoms: C_1  and  N_2
REMARK    2  A    between atoms: C_5  and  C_7
REMARK    3  A    between atoms: C_17  and  N_56
REMARK    4  A    between atoms: C_21  and  C_22
REMARK    5  A    between atoms: C_21  and  N_56
REMARK    6  A    between atoms: C_22  and  C_23
REMARK                            x       y       z     vdW  Elec       q    Type
REMARK                         _______ _______ _______ _____ _____    ______ ____
ROOT
ATOM      1  C   UNL     1       8.411   2.360   7.405  0.00  0.00    +0.172 C 
ATOM      2  N   UNL     1       8.421   3.096   6.139  0.00  0.00    -0.270 N 
ATOM      3  C   UNL     1       7.899   2.650   4.984  0.00  0.00    +0.043 A 
ATOM      4  C   UNL     1       8.102   3.614   4.053  0.00  0.00    +0.004 A 
ATOM      5  C   UNL     1       8.776   4.654   4.714  0.00  0.00    +0.151 A 
ATOM      6  N   UNL     1       8.931   4.267   5.969  0.00  0.00    -0.166 NA
ATOM      7  C   UNL     1       7.666   3.519   2.616  0.00  0.00    +0.023 C 
ATOM      8  C   UNL     1       6.634   2.390   2.500  0.00  0.00    -0.067 C 
ATOM      9  C   UNL     1       7.174   1.131   3.183  0.00  0.00    -0.009 C 
ATOM     10  C   UNL     1       7.207   1.341   4.702  0.00  0.00    +0.054 C 
ENDROOT
BRANCH   5  11
ATOM     11  C   UNL     1       9.224   5.931   4.123  0.00  0.00    +0.267 C 
ATOM     12  O   UNL     1       8.926   6.209   2.978  0.00  0.00    -0.268 OA
ATOM     13  N   UNL     1       9.963   6.790   4.854  0.00  0.00    -0.296 N 
ATOM     14  C   UNL     1      10.399   6.381   6.170  0.00  0.00    +0.108 C 
ATOM     15  C   UNL     1       9.336   6.769   7.220  0.00  0.00    +0.019 C 
ATOM     16  C   UNL     1       9.316   8.227   7.411  0.00  0.00    +0.002 C 
ATOM     17  C   UNL     1       8.927   9.019   6.167  0.00  0.00    +0.002 C 
ATOM     18  C   UNL     1      10.150   9.242   5.313  0.00  0.00    +0.019 C 
ATOM     19  C   UNL     1      10.288   8.110   4.279  0.00  0.00    +0.108 C 
ENDBRANCH   5  11
BRANCH   8  20
ATOM     20  N   UNL     1       6.384   2.108   1.074  0.00  0.00    +0.381 N 
ATOM     21  H   UNL     1       7.096   1.454   0.728  0.00  0.00    -0.086 HD
ATOM     22  H   UNL     1       6.436   2.984   0.541  0.00  0.00    -0.086 HD
BRANCH  20  23
ATOM     23  C   UNL     1       5.047   1.510   0.897  0.00  0.00    -0.077 C 
BRANCH  23  24
ATOM     24  C   UNL     1       4.816   1.229  -0.589  0.00  0.00    +0.023 C 
BRANCH  24  25
ATOM     25  C   UNL     1       3.452   0.618  -0.779  0.00  0.00    -0.012 A 
ATOM     26  C   UNL     1       2.265   1.233  -1.005  0.00  0.00    +0.011 A 
ATOM     27  C   UNL     1       1.127   0.461  -1.150  0.00  0.00    +0.008 A 
ATOM     28  C   UNL     1       1.232  -0.887  -1.063  0.00  0.00    +0.045 A 
ATOM     29  S   UNL     1       2.979  -1.103  -0.767  0.00  0.00    -0.102 S 
ENDBRANCH  24  25
ENDBRANCH  23  24
ENDBRANCH  20  23
ENDBRANCH   8  20
TORSDOF 5
