REMARK  Name = ZINC42979391
REMARK  12 active torsions:
REMARK  status: ('A' for Active; 'I' for Inactive)
REMARK    1  A    between atoms: C_1  and  C_2
REMARK    2  A    between atoms: C_5  and  N_9
REMARK    3  A    between atoms: C_6  and  C_8
REMARK    4  A    between atoms: C_10  and  C_12
REMARK    5  A    between atoms: C_12  and  C_14
REMARK    6  A    between atoms: C_12  and  S_17
REMARK    7  A    between atoms: C_14  and  C_15
REMARK    8  A    between atoms: C_14  and  C_16
REMARK    9  A    between atoms: S_17  and  C_18
REMARK   10  A    between atoms: C_21  and  C_24
REMARK   11  A    between atoms: N_22  and  C_23
REMARK   12  A    between atoms: C_28  and  C_29
REMARK                            x       y       z     vdW  Elec       q    Type
REMARK                         _______ _______ _______ _____ _____    ______ ____
ROOT
ATOM      1  C   UNL     1      -0.134  -6.339  -1.198  0.00  0.00    +0.143 C 
ENDROOT
BRANCH   1   3
ATOM      2  N   UNL     1       0.053  -4.159  -0.044  0.00  0.00    -0.284 N 
ATOM      3  C   UNL     1      -0.033  -4.835  -1.207  0.00  0.00    +0.231 C 
ATOM      4  O   UNL     1      -0.030  -4.234  -2.260  0.00  0.00    -0.274 OA
ATOM      5  H   UNL     1       0.110  -4.642   0.795  0.00  0.00    +0.155 HD
BRANCH   2  10
ATOM      6  C   UNL     1       0.082   1.514  -0.061  0.00  0.00    +0.044 C 
ATOM      7  C   UNL     1       0.074   0.007  -0.056  0.00  0.00    -0.050 A 
ATOM      8  C   UNL     1       0.679  -0.689  -1.087  0.00  0.00    +0.005 A 
ATOM      9  C   UNL     1       0.674  -2.070  -1.086  0.00  0.00    +0.024 A 
ATOM     10  C   UNL     1       0.061  -2.759  -0.048  0.00  0.00    +0.036 A 
ATOM     11  C   UNL     1      -0.546  -2.058   0.985  0.00  0.00    -0.029 A 
ATOM     12  C   UNL     1      -0.533  -0.676   0.981  0.00  0.00    +0.008 A 
ATOM     13  C   UNL     1      -1.213  -2.802   2.113  0.00  0.00    +0.045 C 
ENDBRANCH   2  10
ENDBRANCH   1   3
BRANCH   1  14
ATOM     14  C   UNL     1       1.257  -6.942  -0.994  0.00  0.00    +0.005 C 
ATOM     15  C   UNL     1       2.209  -6.401  -2.063  0.00  0.00    +0.009 C 
ATOM     16  C   UNL     1       1.780  -6.563   0.393  0.00  0.00    +0.009 C 
ENDBRANCH   1  14
BRANCH   1  17
ATOM     17  S   UNL     1      -0.815  -6.909  -2.780  0.00  0.00    -0.073 S 
BRANCH  17  18
ATOM     18  C   UNL     1      -1.008  -8.646  -2.560  0.00  0.00    +0.192 A 
ATOM     19  N   UNL     1      -0.718  -9.331  -1.478  0.00  0.00    -0.122 NA
ATOM     20  N   UNL     1      -0.981 -10.576  -1.659  0.00  0.00    -0.128 NA
ATOM     21  C   UNL     1      -1.455 -10.762  -2.869  0.00  0.00    +0.168 A 
ATOM     22  N   UNL     1      -1.492  -9.532  -3.482  0.00  0.00    -0.305 N 
ATOM     23  C   UNL     1      -1.952  -9.233  -4.840  0.00  0.00    +0.153 C 
BRANCH  21  24
ATOM     24  C   UNL     1      -1.876 -12.052  -3.459  0.00  0.00    +0.060 A 
ATOM     25  C   UNL     1      -1.484 -12.599  -4.764  0.00  0.00    +0.053 A 
ATOM     26  C   UNL     1      -2.106 -13.784  -4.871  0.00  0.00    +0.196 A 
ATOM     27  O   UNL     1      -2.829 -14.001  -3.762  0.00  0.00    -0.467 OA
ATOM     28  C   UNL     1      -2.700 -12.980  -2.903  0.00  0.00    +0.112 A 
ATOM     29  C   UNL     1      -3.360 -12.876  -1.552  0.00  0.00    +0.087 C 
ENDBRANCH  21  24
ENDBRANCH  17  18
ENDBRANCH   1  17
TORSDOF 6
