REMARK  Name = ZINC67471693
REMARK  11 active torsions:
REMARK  status: ('A' for Active; 'I' for Inactive)
REMARK    1  A    between atoms: C_1  and  C_2
REMARK    2  A    between atoms: C_2  and  C_3
REMARK    3  A    between atoms: C_3  and  C_5
REMARK    4  A    between atoms: C_3  and  N_17
REMARK    5  A    between atoms: C_9  and  C_11
REMARK    6  A    between atoms: N_20  and  C_21
REMARK    7  A    between atoms: C_21  and  C_22
REMARK    8  A    between atoms: C_23  and  C_31
REMARK    9  A    between atoms: C_25  and  C_30
REMARK   10  A    between atoms: C_27  and  O_28
REMARK   11  A    between atoms: O_28  and  C_29
REMARK                            x       y       z     vdW  Elec       q    Type
REMARK                         _______ _______ _______ _____ _____    ______ ____
ROOT
ATOM      1  N   UNL     1      -0.055  -0.114  -2.441  0.00  0.00    -0.290 N 
ATOM      2  C   UNL     1       0.107   1.109  -2.984  0.00  0.00    +0.300 C 
ATOM      3  O   UNL     1       0.895   1.893  -2.492  0.00  0.00    -0.253 OA
ATOM      4  N   UNL     1      -0.604   1.462  -4.073  0.00  0.00    -0.295 N 
ATOM      5  H   UNL     1      -0.683  -0.740  -2.833  0.00  0.00    +0.151 HD
ATOM      6  H   UNL     1      -1.233   0.836  -4.466  0.00  0.00    +0.151 HD
ENDROOT
BRANCH   1   7
ATOM      7  C   UNL     1       0.718  -0.497  -1.257  0.00  0.00    +0.140 C 
BRANCH   7   8
ATOM      8  C   UNL     1       0.847  -1.998  -1.206  0.00  0.00    +0.128 A 
ATOM      9  N   UNL     1       0.420  -2.855  -2.159  0.00  0.00    -0.346 N 
ATOM     10  H   UNL     1      -0.020  -2.617  -2.990  0.00  0.00    +0.167 HD
ATOM     11  C   UNL     1       0.722  -4.120  -1.737  0.00  0.00    +0.112 A 
ATOM     12  C   UNL     1       1.330  -3.994  -0.528  0.00  0.00    +0.089 A 
ATOM     13  N   UNL     1       1.394  -2.678  -0.238  0.00  0.00    -0.231 NA
BRANCH  12  14
ATOM     14  C   UNL     1       1.837  -5.103   0.316  0.00  0.00    +0.002 A 
ATOM     15  C   UNL     1       1.714  -6.422  -0.115  0.00  0.00    +0.010 A 
ATOM     16  C   UNL     1       2.188  -7.450   0.675  0.00  0.00    +0.001 A 
ATOM     17  C   UNL     1       2.783  -7.173   1.893  0.00  0.00    +0.000 A 
ATOM     18  C   UNL     1       2.906  -5.865   2.326  0.00  0.00    +0.001 A 
ATOM     19  C   UNL     1       2.443  -4.829   1.541  0.00  0.00    +0.010 A 
ENDBRANCH  12  14
ENDBRANCH   7   8
BRANCH   7  21
ATOM     20  C   UNL     1      -0.019   1.526   0.010  0.00  0.00    +0.006 C 
ATOM     21  C   UNL     1       0.002  -0.004   0.002  0.00  0.00    +0.027 C 
ENDBRANCH   7  21
ENDBRANCH   1   7
BRANCH   4  22
ATOM     22  C   UNL     1      -0.428   2.791  -4.664  0.00  0.00    +0.146 C 
BRANCH  22  23
ATOM     23  C   UNL     1      -1.332   2.932  -5.861  0.00  0.00    +0.034 A 
ATOM     24  C   UNL     1      -0.890   2.565  -7.121  0.00  0.00    -0.039 A 
ATOM     25  C   UNL     1      -1.757   2.712  -8.195  0.00  0.00    +0.027 A 
ATOM     26  C   UNL     1      -3.024   3.216  -7.977  0.00  0.00    +0.042 A 
ATOM     27  N   UNL     1      -3.416   3.558  -6.764  0.00  0.00    -0.218 NA
ATOM     28  C   UNL     1      -2.622   3.426  -5.715  0.00  0.00    +0.220 A 
ATOM     29  C   UNL     1      -3.970   3.379  -9.139  0.00  0.00    +0.066 C 
ATOM     30  C   UNL     1       0.500   2.019  -7.321  0.00  0.00    +0.044 C 
BRANCH  28  31
ATOM     31  O   UNL     1      -3.069   3.784  -4.485  0.00  0.00    -0.479 OA
ATOM     32  C   UNL     1      -4.404   4.285  -4.400  0.00  0.00    +0.279 C 
ENDBRANCH  28  31
ENDBRANCH  22  23
ENDBRANCH   4  22
TORSDOF 7
