REMARK  Name = ZINC54621026
REMARK  8 active torsions:
REMARK  status: ('A' for Active; 'I' for Inactive)
REMARK    1  A    between atoms: C_1  and  C_2
REMARK    2  A    between atoms: C_4  and  C_28
REMARK    3  A    between atoms: C_5  and  N_9
REMARK    4  A    between atoms: C_6  and  C_8
REMARK    5  A    between atoms: N_9  and  C_10
REMARK    6  A    between atoms: C_10  and  C_12
REMARK    7  A    between atoms: C_10  and  C_23
REMARK    8  A    between atoms: C_21  and  O_22
REMARK                            x       y       z     vdW  Elec       q    Type
REMARK                         _______ _______ _______ _____ _____    ______ ____
ROOT
ATOM      1  C   UNL     1       1.188  -3.279   1.674  0.00  0.00    +0.141 C 
ENDROOT
BRANCH   1   2
ATOM      2  C   UNL     1       0.787  -4.731   1.693  0.00  0.00    +0.021 A 
ATOM      3  C   UNL     1      -0.070  -5.219   0.710  0.00  0.00    +0.010 A 
ATOM      4  C   UNL     1      -0.451  -6.526   0.699  0.00  0.00    +0.010 A 
ATOM      5  C   UNL     1       0.025  -7.399   1.691  0.00  0.00    +0.004 A 
ATOM      6  C   UNL     1      -0.346  -8.757   1.712  0.00  0.00    +0.011 A 
ATOM      7  C   UNL     1       0.156  -9.546   2.707  0.00  0.00    +0.020 A 
ATOM      8  C   UNL     1       1.010  -9.001   3.663  0.00  0.00    +0.111 A 
ATOM      9  N   UNL     1       1.353  -7.736   3.640  0.00  0.00    -0.251 NA
ATOM     10  C   UNL     1       0.897  -6.910   2.694  0.00  0.00    +0.113 A 
ATOM     11  C   UNL     1       1.274  -5.551   2.671  0.00  0.00    +0.148 A 
BRANCH  11  12
ATOM     12  O   UNL     1       2.114  -5.059   3.618  0.00  0.00    -0.504 OA
ATOM     13  H   UNL     1       1.664  -4.718   4.404  0.00  0.00    +0.292 HD
ENDBRANCH  11  12
ENDBRANCH   1   2
BRANCH   1  14
ATOM     14  C   UNL     1       0.264  -2.491   2.567  0.00  0.00    +0.014 A 
ATOM     15  C   UNL     1       0.504  -1.967   3.794  0.00  0.00    +0.013 A 
ATOM     16  C   UNL     1      -0.504  -1.273   4.436  0.00  0.00    +0.008 A 
ATOM     17  C   UNL     1      -1.704  -1.137   3.819  0.00  0.00    +0.045 A 
ATOM     18  S   UNL     1      -1.429  -2.000   2.281  0.00  0.00    -0.099 S 
ENDBRANCH   1  14
BRANCH   1  19
ATOM     19  N   UNL     1       1.098  -2.765   0.305  0.00  0.00    -0.332 N 
ATOM     20  H   UNL     1       0.623  -1.938   0.127  0.00  0.00    +0.147 HD
BRANCH  19  25
ATOM     21  C   UNL     1       3.530  -5.612  -3.954  0.00  0.00    +0.044 C 
ATOM     22  C   UNL     1       2.883  -4.855  -2.822  0.00  0.00    -0.050 A 
ATOM     23  C   UNL     1       3.503  -4.800  -1.588  0.00  0.00    +0.008 A 
ATOM     24  C   UNL     1       2.914  -4.107  -0.548  0.00  0.00    -0.029 A 
ATOM     25  C   UNL     1       1.697  -3.466  -0.744  0.00  0.00    +0.034 A 
ATOM     26  C   UNL     1       1.077  -3.524  -1.986  0.00  0.00    -0.029 A 
ATOM     27  C   UNL     1       1.675  -4.213  -3.023  0.00  0.00    +0.008 A 
ATOM     28  C   UNL     1      -0.243  -2.830  -2.203  0.00  0.00    +0.045 C 
ATOM     29  C   UNL     1       3.590  -4.047   0.798  0.00  0.00    +0.045 C 
ENDBRANCH  19  25
ENDBRANCH   1  19
TORSDOF 5
