REMARK  Name = ZINC22744493
REMARK  10 active torsions:
REMARK  status: ('A' for Active; 'I' for Inactive)
REMARK    1  A    between atoms: C_1  and  C_2
REMARK    2  A    between atoms: C_5  and  C_9
REMARK    3  A    between atoms: C_7  and  C_8
REMARK    4  A    between atoms: C_11  and  C_19
REMARK    5  A    between atoms: N_21  and  N_22
REMARK    6  A    between atoms: C_23  and  C_24
REMARK    7  A    between atoms: C_23  and  C_25
REMARK    8  A    between atoms: C_28  and  N_31
REMARK    9  A    between atoms: N_31  and  S_32
REMARK   10  A    between atoms: S_32  and  C_35
REMARK                            x       y       z     vdW  Elec       q    Type
REMARK                         _______ _______ _______ _____ _____    ______ ____
ROOT
ATOM      1  C   UNL     1      -6.229   2.884  -2.988  0.00  0.00    +0.264 C 
ATOM      2  O   UNL     1      -7.041   3.713  -3.352  0.00  0.00    -0.268 OA
ATOM      3  N   UNL     1      -5.269   3.223  -2.105  0.00  0.00    -0.203 N 
ATOM      4  H   UNL     1      -4.535   2.473  -1.776  0.00  0.00    +0.178 HD
ENDROOT
BRANCH   1   7
ATOM      5  C   UNL     1      -5.545  -0.785  -3.574  0.00  0.00    +0.072 A 
ATOM      6  C   UNL     1      -5.445   0.512  -3.048  0.00  0.00    +0.042 A 
ATOM      7  C   UNL     1      -6.295   1.504  -3.515  0.00  0.00    +0.050 A 
ATOM      8  C   UNL     1      -7.255   1.132  -4.555  0.00  0.00    +0.013 A 
ATOM      9  C   UNL     1      -8.148   2.064  -5.093  0.00  0.00    +0.011 A 
ATOM     10  C   UNL     1      -9.027   1.675  -6.060  0.00  0.00    +0.001 A 
ATOM     11  C   UNL     1      -9.045   0.360  -6.521  0.00  0.00    +0.002 A 
ATOM     12  C   UNL     1      -8.189  -0.572  -6.019  0.00  0.00    +0.028 A 
ATOM     13  C   UNL     1      -7.268  -0.207  -5.019  0.00  0.00    +0.072 A 
ATOM     14  N   UNL     1      -6.417  -1.099  -4.509  0.00  0.00    -0.247 NA
BRANCH   5  19
ATOM     15  C   UNL     1      -2.011  -4.873  -1.585  0.00  0.00    +0.044 C 
ATOM     16  C   UNL     1      -2.936  -3.803  -2.106  0.00  0.00    -0.047 A 
ATOM     17  C   UNL     1      -2.929  -2.546  -1.528  0.00  0.00    +0.004 A 
ATOM     18  C   UNL     1      -3.774  -1.562  -2.001  0.00  0.00    +0.010 A 
ATOM     19  C   UNL     1      -4.635  -1.838  -3.062  0.00  0.00    +0.001 A 
ATOM     20  C   UNL     1      -4.641  -3.107  -3.637  0.00  0.00    +0.013 A 
ATOM     21  C   UNL     1      -3.788  -4.082  -3.159  0.00  0.00    -0.047 A 
ATOM     22  C   UNL     1      -3.789  -5.454  -3.783  0.00  0.00    +0.044 C 
ENDBRANCH   5  19
ENDBRANCH   1   7
BRANCH   3  23
ATOM     23  N   UNL     1      -5.206   4.530  -1.605  0.00  0.00    -0.184 NA
ATOM     24  C   UNL     1      -4.261   4.865  -0.781  0.00  0.00    +0.063 C 
ATOM     25  C   UNL     1      -4.090   6.307  -0.376  0.00  0.00    +0.068 C 
BRANCH  24  26
ATOM     26  C   UNL     1      -3.354   3.837  -0.241  0.00  0.00    -0.002 A 
ATOM     27  C   UNL     1      -1.995   4.117  -0.077  0.00  0.00    +0.011 A 
ATOM     28  C   UNL     1      -1.151   3.152   0.427  0.00  0.00    +0.025 A 
ATOM     29  C   UNL     1      -1.649   1.901   0.773  0.00  0.00    +0.048 A 
ATOM     30  C   UNL     1      -3.001   1.617   0.607  0.00  0.00    +0.025 A 
ATOM     31  C   UNL     1      -3.852   2.578   0.108  0.00  0.00    +0.011 A 
BRANCH  29  32
ATOM     32  N   UNL     1      -0.791   0.927   1.284  0.00  0.00    -0.221 N 
ATOM     33  H   UNL     1       0.190   0.759   0.816  0.00  0.00    +0.173 HD
BRANCH  32  34
ATOM     34  S   UNL     1      -1.250   0.024   2.594  0.00  0.00    +0.040 S 
ATOM     35  O   UNL     1      -2.485  -0.567   2.212  0.00  0.00    -0.155 OA
ATOM     36  O   UNL     1      -0.120  -0.785   2.890  0.00  0.00    -0.155 OA
ATOM     37  C   UNL     1      -1.519   1.231   3.921  0.00  0.00    +0.218 C 
ENDBRANCH  32  34
ENDBRANCH  29  32
ENDBRANCH  24  26
ENDBRANCH   3  23
TORSDOF 6
