REMARK  Name = ZINC02329037
REMARK  9 active torsions:
REMARK  status: ('A' for Active; 'I' for Inactive)
REMARK    1  A    between atoms: C_1  and  C_2
REMARK    2  A    between atoms: C_5  and  C_8
REMARK    3  A    between atoms: C_10  and  C_33
REMARK    4  A    between atoms: C_11  and  S_20
REMARK    5  A    between atoms: S_20  and  C_21
REMARK    6  A    between atoms: C_21  and  C_22
REMARK    7  A    between atoms: N_24  and  C_25
REMARK    8  A    between atoms: C_28  and  C_32
REMARK    9  A    between atoms: C_29  and  C_31
REMARK                            x       y       z     vdW  Elec       q    Type
REMARK                         _______ _______ _______ _____ _____    ______ ____
ROOT
ATOM      1  C   UNL     1       0.059  -4.258  -0.009  0.00  0.00    +0.097 C 
ATOM      2  C   UNL     1       1.354  -4.727   0.630  0.00  0.00    +0.073 C 
ATOM      3  C   UNL     1       1.252  -5.546   1.742  0.00  0.00    +0.112 C 
ATOM      4  N   UNL     1       0.075  -5.919   2.248  0.00  0.00    -0.244 NA
ATOM      5  C   UNL     1      -1.099  -5.575   1.780  0.00  0.00    +0.050 C 
ATOM      6  C   UNL     1      -1.216  -4.745   0.655  0.00  0.00    +0.029 C 
ATOM      7  C   UNL     1      -2.410  -4.381   0.161  0.00  0.00    +0.162 C 
ATOM      8  C   UNL     1      -3.694  -4.845   0.796  0.00  0.00    +0.080 C 
ATOM      9  C   UNL     1      -3.468  -6.209   1.455  0.00  0.00    +0.014 C 
ATOM     10  C   UNL     1      -2.344  -6.082   2.470  0.00  0.00    +0.056 C 
ATOM     11  O   UNL     1      -2.461  -3.584  -0.925  0.00  0.00    -0.292 OA
ENDROOT
BRANCH   1  16
ATOM     12  C   UNL     1       0.015   1.520   0.022  0.00  0.00    +0.044 C 
ATOM     13  C   UNL     1       0.027   0.013   0.014  0.00  0.00    -0.050 A 
ATOM     14  C   UNL     1       0.021  -0.672  -1.187  0.00  0.00    +0.003 A 
ATOM     15  C   UNL     1       0.031  -2.054  -1.194  0.00  0.00    +0.005 A 
ATOM     16  C   UNL     1       0.048  -2.751  -0.001  0.00  0.00    -0.035 A 
ATOM     17  C   UNL     1       0.055  -2.067   1.200  0.00  0.00    +0.005 A 
ATOM     18  C   UNL     1       0.049  -0.684   1.208  0.00  0.00    +0.003 A 
ENDBRANCH   1  16
BRANCH   2  19
ATOM     19  C   UNL     1       2.628  -4.339   0.104  0.00  0.00    +0.098 C 
ATOM     20  N   UNL     1       3.638  -4.032  -0.314  0.00  0.00    -0.191 NA
ENDBRANCH   2  19
BRANCH   3  21
ATOM     21  S   UNL     1       2.729  -6.115   2.516  0.00  0.00    -0.096 S 
BRANCH  21  22
ATOM     22  C   UNL     1       2.137  -7.131   3.897  0.00  0.00    +0.172 C 
BRANCH  22  23
ATOM     23  C   UNL     1       3.316  -7.688   4.653  0.00  0.00    +0.227 C 
ATOM     24  O   UNL     1       4.445  -7.424   4.295  0.00  0.00    -0.275 OA
ATOM     25  N   UNL     1       3.116  -8.478   5.726  0.00  0.00    -0.285 N 
ATOM     26  H   UNL     1       2.216  -8.634   6.053  0.00  0.00    +0.155 HD
BRANCH  25  27
ATOM     27  C   UNL     1       4.207  -9.073   6.370  0.00  0.00    +0.034 A 
ATOM     28  C   UNL     1       4.085 -10.345   6.914  0.00  0.00    +0.023 A 
ATOM     29  C   UNL     1       5.164 -10.929   7.548  0.00  0.00    +0.005 A 
ATOM     30  C   UNL     1       6.364 -10.248   7.643  0.00  0.00    -0.047 A 
ATOM     31  C   UNL     1       6.488  -8.982   7.104  0.00  0.00    -0.046 A 
ATOM     32  C   UNL     1       5.415  -8.394   6.462  0.00  0.00    +0.027 A 
ATOM     33  C   UNL     1       7.798  -8.243   7.210  0.00  0.00    +0.044 C 
ATOM     34  C   UNL     1       7.538 -10.889   8.337  0.00  0.00    +0.044 C 
ENDBRANCH  25  27
ENDBRANCH  22  23
ENDBRANCH  21  22
ENDBRANCH   3  21
TORSDOF 6
