REMARK  Name = ZINC48096366
REMARK  5 active torsions:
REMARK  status: ('A' for Active; 'I' for Inactive)
REMARK    1  A    between atoms: C_1  and  C_2
REMARK    2  A    between atoms: C_7  and  N_8
REMARK    3  A    between atoms: N_11  and  C_12
REMARK    4  A    between atoms: C_12  and  C_13
REMARK    5  A    between atoms: C_12  and  C_16
REMARK                            x       y       z     vdW  Elec       q    Type
REMARK                         _______ _______ _______ _____ _____    ______ ____
ROOT
ATOM      1  N   UNL     1       0.025  -0.013   2.417  0.00  0.00    -0.268 N 
ATOM      2  C   UNL     1      -0.355  -0.639   3.549  0.00  0.00    +0.304 C 
ATOM      3  O   UNL     1      -0.612  -1.827   3.529  0.00  0.00    -0.253 OA
ATOM      4  N   UNL     1      -0.450   0.052   4.702  0.00  0.00    -0.296 N 
ATOM      5  H   UNL     1       0.300   0.917   2.447  0.00  0.00    +0.156 HD
ATOM      6  H   UNL     1      -0.245   1.000   4.718  0.00  0.00    +0.151 HD
ENDROOT
BRANCH   1  13
ATOM      7  C   UNL     1       2.419  -1.323   1.612  0.00  0.00    +0.046 C 
ATOM      8  C   UNL     1       1.170  -1.358   0.769  0.00  0.00    -0.027 A 
ATOM      9  C   UNL     1       1.164  -2.045  -0.430  0.00  0.00    +0.020 A 
ATOM     10  C   UNL     1       0.018  -2.077  -1.204  0.00  0.00    +0.020 A 
ATOM     11  C   UNL     1      -1.125  -1.423  -0.781  0.00  0.00    +0.037 A 
ATOM     12  C   UNL     1      -1.125  -0.735   0.418  0.00  0.00    +0.063 A 
ATOM     13  C   UNL     1       0.023  -0.705   1.200  0.00  0.00    +0.056 A 
ATOM     14 CL   UNL     1      -2.560   0.087   0.948  0.00  0.00    -0.082 Cl
ATOM     15 BR   UNL     1       0.014  -3.018  -2.845  0.00  0.00    -0.050 Br
ENDBRANCH   1  13
BRANCH   4  16
ATOM     16  C   UNL     1      -0.863  -0.629   5.932  0.00  0.00    +0.081 C 
BRANCH  16  17
ATOM     17  C   UNL     1       0.357  -1.276   6.591  0.00  0.00    +0.010 C 
ATOM     18  C   UNL     1       1.733  -0.944   6.010  0.00  0.00    +0.006 C 
ATOM     19  C   UNL     1       1.121  -2.328   5.784  0.00  0.00    +0.006 C 
ENDBRANCH  16  17
BRANCH  16  20
ATOM     20  C   UNL     1      -1.483   0.387   6.893  0.00  0.00    +0.010 C 
ATOM     21  C   UNL     1      -2.856   0.057   7.481  0.00  0.00    +0.006 C 
ATOM     22  C   UNL     1      -2.722   1.147   6.416  0.00  0.00    +0.006 C 
ENDBRANCH  16  20
ENDBRANCH   4  16
TORSDOF 4
