REMARK  Name = ZINC24955711
REMARK  8 active torsions:
REMARK  status: ('A' for Active; 'I' for Inactive)
REMARK    1  A    between atoms: C_1  and  C_2
REMARK    2  A    between atoms: C_4  and  C_28
REMARK    3  A    between atoms: C_5  and  C_9
REMARK    4  A    between atoms: C_6  and  C_8
REMARK    5  A    between atoms: C_15  and  C_17
REMARK    6  A    between atoms: C_17  and  N_18
REMARK    7  A    between atoms: C_21  and  C_24
REMARK    8  A    between atoms: N_26  and  C_27
REMARK                            x       y       z     vdW  Elec       q    Type
REMARK                         _______ _______ _______ _____ _____    ______ ____
ROOT
ATOM      1  C   UNL     1      -5.207  -9.787   1.891  0.00  0.00    +0.081 A 
ATOM      2  C   UNL     1      -6.084  -8.919   1.304  0.00  0.00    +0.076 A 
ATOM      3  S   UNL     1      -4.997  -7.548   0.935  0.00  0.00    -0.060 S 
ATOM      4  C   UNL     1      -3.497  -8.272   1.585  0.00  0.00    +0.165 A 
ATOM      5  N   UNL     1      -3.934  -9.440   2.015  0.00  0.00    -0.225 NA
ATOM      6  N   UNL     1      -2.213  -7.742   1.629  0.00  0.00    -0.266 N 
ATOM      7  C   UNL     1      -1.973  -6.514   1.129  0.00  0.00    +0.202 C 
ATOM      8  O   UNL     1      -2.877  -5.872   0.639  0.00  0.00    -0.277 OA
ATOM      9  H   UNL     1      -1.393  -8.325   2.074  0.00  0.00    +0.157 HD
ENDROOT
BRANCH   1  14
ATOM     10  C   UNL     1      -7.022 -14.909   3.799  0.00  0.00    +0.044 C 
ATOM     11  C   UNL     1      -6.547 -13.568   3.300  0.00  0.00    -0.050 A 
ATOM     12  C   UNL     1      -5.460 -13.497   2.446  0.00  0.00    +0.007 A 
ATOM     13  C   UNL     1      -5.021 -12.272   1.986  0.00  0.00    -0.041 A 
ATOM     14  C   UNL     1      -5.674 -11.106   2.382  0.00  0.00    +0.007 A 
ATOM     15  C   UNL     1      -6.765 -11.184   3.246  0.00  0.00    -0.041 A 
ATOM     16  C   UNL     1      -7.199 -12.415   3.696  0.00  0.00    +0.007 A 
ATOM     17  C   UNL     1      -7.473  -9.928   3.684  0.00  0.00    +0.044 C 
ATOM     18  C   UNL     1      -3.838 -12.196   1.056  0.00  0.00    +0.044 C 
ENDBRANCH   1  14
BRANCH   7  19
ATOM     19  C   UNL     1      -0.580  -5.940   1.177  0.00  0.00    +0.019 C 
BRANCH  19  20
ATOM     20  N   UNL     1      -0.610  -4.545   0.720  0.00  0.00    +0.385 N 
ATOM     21  C   UNL     1      -1.359  -3.699   1.658  0.00  0.00    -0.077 C 
ATOM     22  C   UNL     1      -1.494  -2.289   1.080  0.00  0.00    -0.006 C 
ATOM     23  C   UNL     1      -0.099  -1.705   0.841  0.00  0.00    +0.071 C 
ATOM     24  C   UNL     1       0.678  -2.629  -0.101  0.00  0.00    -0.006 C 
ATOM     25  C   UNL     1       0.750  -4.030   0.512  0.00  0.00    -0.077 C 
ATOM     26  H   UNL     1      -1.131  -4.515  -0.248  0.00  0.00    -0.081 HD
BRANCH  23  27
ATOM     27  C   UNL     1      -0.224  -0.340   0.216  0.00  0.00    +0.216 C 
ATOM     28  O   UNL     1      -1.321   0.123  -0.016  0.00  0.00    -0.276 OA
ATOM     29  N   UNL     1       0.883   0.368  -0.085  0.00  0.00    -0.318 N 
ATOM     30  C   UNL     1       0.761   1.696  -0.692  0.00  0.00    +0.128 C 
ATOM     31  H   UNL     1       1.878  -0.051   0.126  0.00  0.00    +0.148 HD
ENDBRANCH  23  27
ENDBRANCH  19  20
ENDBRANCH   7  19
TORSDOF 4
