REMARK  Name = ZINC44442039
REMARK  5 active torsions:
REMARK  status: ('A' for Active; 'I' for Inactive)
REMARK    1  A    between atoms: C_4  and  C_7
REMARK    2  A    between atoms: C_9  and  C_13
REMARK    3  A    between atoms: N_15  and  C_16
REMARK    4  A    between atoms: C_16  and  C_17
REMARK    5  A    between atoms: C_20  and  C_23
REMARK                            x       y       z     vdW  Elec       q    Type
REMARK                         _______ _______ _______ _____ _____    ______ ____
ROOT
ATOM      1  C   UNL     1       7.993  -4.894  -0.113  0.00  0.00    +0.108 C 
ENDROOT
BRANCH   1   2
ATOM      2  C   UNL     1       9.504  -4.652  -0.122  0.00  0.00    +0.006 C 
ATOM      3  C   UNL     1       9.900  -3.957  -1.427  0.00  0.00    +0.006 C 
ATOM      4  C   UNL     1       9.518  -4.843  -2.614  0.00  0.00    +0.011 C 
ATOM      5  C   UNL     1      10.250  -6.183  -2.507  0.00  0.00    +0.055 C 
ATOM      6  C   UNL     1       9.853  -6.878  -1.203  0.00  0.00    +0.011 C 
ATOM      7  C   UNL     1      10.236  -5.991  -0.016  0.00  0.00    +0.006 C 
BRANCH   5   8
ATOM      8  C   UNL     1       9.873  -7.055  -3.676  0.00  0.00    +0.111 A 
ATOM      9  N   UNL     1       8.770  -7.849  -3.733  0.00  0.00    -0.342 N 
ATOM     10  H   UNL     1       8.099  -7.951  -3.040  0.00  0.00    +0.167 HD
ATOM     11  C   UNL     1       8.783  -8.483  -4.959  0.00  0.00    +0.066 A 
ATOM     12  C   UNL     1       7.942  -9.393  -5.586  0.00  0.00    +0.028 A 
ATOM     13  C   UNL     1       8.247  -9.845  -6.852  0.00  0.00    +0.002 A 
ATOM     14  C   UNL     1       9.388  -9.396  -7.503  0.00  0.00    +0.002 A 
ATOM     15  C   UNL     1      10.226  -8.500  -6.902  0.00  0.00    +0.030 A 
ATOM     16  C   UNL     1       9.937  -8.028  -5.619  0.00  0.00    +0.089 A 
ATOM     17  N   UNL     1      10.553  -7.155  -4.781  0.00  0.00    -0.232 NA
ENDBRANCH   5   8
ENDBRANCH   1   2
BRANCH   1  20
ATOM     18  C   UNL     1       5.945  -3.575  -0.083  0.00  0.00    +0.262 C 
ATOM     19  O   UNL     1       5.311  -4.613  -0.088  0.00  0.00    -0.269 OA
ATOM     20  N   UNL     1       7.292  -3.608  -0.095  0.00  0.00    -0.310 N 
ATOM     21  H   UNL     1       7.798  -2.780  -0.091  0.00  0.00    +0.149 HD
BRANCH  18  24
ATOM     22  C   UNL     1       3.699  -0.689  -0.037  0.00  0.00    +0.093 A 
ATOM     23  C   UNL     1       3.873  -2.085  -0.052  0.00  0.00    +0.062 A 
ATOM     24  C   UNL     1       5.241  -2.282  -0.065  0.00  0.00    +0.121 A 
ATOM     25  N   UNL     1       5.811  -1.040  -0.058  0.00  0.00    -0.272 N 
ATOM     26  H   UNL     1       6.765  -0.865  -0.064  0.00  0.00    +0.189 HD
ATOM     27  N   UNL     1       4.895  -0.140  -0.047  0.00  0.00    -0.173 NA
BRANCH  22  31
ATOM     28  C   UNL     1      -0.017   1.379   0.010  0.00  0.00    +0.000 A 
ATOM     29  C   UNL     1       1.169   2.092   0.002  0.00  0.00    +0.001 A 
ATOM     30  C   UNL     1       2.377   1.425  -0.013  0.00  0.00    +0.010 A 
ATOM     31  C   UNL     1       2.402   0.033  -0.021  0.00  0.00    +0.002 A 
ATOM     32  C   UNL     1       1.205  -0.680  -0.013  0.00  0.00    +0.010 A 
ATOM     33  C   UNL     1       0.002  -0.004   0.002  0.00  0.00    +0.001 A 
ENDBRANCH  22  31
ENDBRANCH  18  24
ENDBRANCH   1  20
TORSDOF 5
