REMARK  Name = ZINC04027214
REMARK  5 active torsions:
REMARK  status: ('A' for Active; 'I' for Inactive)
REMARK    1  A    between atoms: C_1  and  C_2
REMARK    2  A    between atoms: C_2  and  C_4
REMARK    3  A    between atoms: C_2  and  O_7
REMARK    4  A    between atoms: C_4  and  C_6
REMARK    5  A    between atoms: O_7  and  C_8
REMARK                            x       y       z     vdW  Elec       q    Type
REMARK                         _______ _______ _______ _____ _____    ______ ____
ROOT
ATOM      1  C   UNL     1      -4.554   3.502   3.883  0.00  0.00    +0.125 A 
ATOM      2  C   UNL     1      -4.923   3.618   2.544  0.00  0.00    +0.046 A 
ATOM      3  C   UNL     1      -4.114   3.130   1.560  0.00  0.00    +0.015 A 
ATOM      4  C   UNL     1      -2.905   2.509   1.897  0.00  0.00    +0.021 A 
ATOM      5  C   UNL     1      -2.529   2.388   3.247  0.00  0.00    +0.143 A 
ATOM      6  C   UNL     1      -3.362   2.890   4.235  0.00  0.00    +0.092 A 
ATOM      7  O   UNL     1      -1.363   1.786   3.566  0.00  0.00    -0.422 OA
ATOM      8  C   UNL     1      -0.546   1.296   2.622  0.00  0.00    +0.341 A 
ATOM      9  O   UNL     1       0.494   0.760   2.959  0.00  0.00    -0.245 OA
ATOM     10  C   UNL     1      -0.857   1.383   1.248  0.00  0.00    +0.041 A 
ATOM     11  C   UNL     1      -2.017   1.977   0.861  0.00  0.00    -0.027 A 
ATOM     12  C   UNL     1      -2.142   1.958  -0.645  0.00  0.00    +0.036 C 
ATOM     13  C   UNL     1      -0.716   1.663  -1.161  0.00  0.00    +0.010 C 
ATOM     14  C   UNL     1      -0.093   0.906   0.031  0.00  0.00    +0.043 C 
ENDROOT
BRANCH   1  15
ATOM     15  O   UNL     1      -5.370   3.993   4.851  0.00  0.00    -0.482 OA
BRANCH  15  17
ATOM     16  C   UNL     1      -5.179   2.579   6.802  0.00  0.00    +0.060 C 
ATOM     17  C   UNL     1      -4.882   3.951   6.194  0.00  0.00    +0.236 C 
BRANCH  17  18
ATOM     18  C   UNL     1      -5.562   5.020   7.009  0.00  0.00    +0.170 C 
ATOM     19  O   UNL     1      -6.607   5.495   6.631  0.00  0.00    -0.294 OA
ATOM     20  C   UNL     1      -4.939   5.497   8.296  0.00  0.00    +0.090 C 
ENDBRANCH  17  18
ENDBRANCH  15  17
ENDBRANCH   1  15
TORSDOF 3
