REMARK  Name = ZINC12042926
REMARK  13 active torsions:
REMARK  status: ('A' for Active; 'I' for Inactive)
REMARK    1  A    between atoms: C_1  and  C_2
REMARK    2  A    between atoms: C_2  and  C_3
REMARK    3  A    between atoms: C_3  and  C_5
REMARK    4  A    between atoms: C_3  and  C_6
REMARK    5  A    between atoms: C_6  and  N_67
REMARK    6  A    between atoms: C_9  and  C_12
REMARK    7  A    between atoms: C_12  and  C_29
REMARK    8  A    between atoms: N_15  and  C_19
REMARK    9  A    between atoms: C_19  and  C_20
REMARK   10  A    between atoms: C_20  and  C_21
REMARK   11  A    between atoms: C_24  and  O_27
REMARK   12  A    between atoms: O_27  and  C_28
REMARK   13  A    between atoms: C_29  and  C_30
REMARK                            x       y       z     vdW  Elec       q    Type
REMARK                         _______ _______ _______ _____ _____    ______ ____
ROOT
ATOM      1  C   UNL     1       2.165   0.655  -0.015  0.00  0.00    +0.115 C 
ATOM      2  C   UNL     1       1.230   1.848   0.000  0.00  0.00    +0.247 C 
ATOM      3  O   UNL     1       1.538   3.020   0.003  0.00  0.00    -0.273 OA
ATOM      4  N   UNL     1      -0.016   1.334   0.009  0.00  0.00    -0.224 N 
ATOM      5  C   UNL     1       0.002  -0.004   0.002  0.00  0.00    +0.309 C 
ATOM      6  O   UNL     1      -0.999  -0.693   0.008  0.00  0.00    -0.252 OA
ATOM      7  N   UNL     1       1.252  -0.501  -0.013  0.00  0.00    -0.285 N 
ATOM      8  H   UNL     1       1.503  -1.438  -0.019  0.00  0.00    +0.151 HD
ENDROOT
BRANCH   1  11
ATOM      9  C   UNL     1       3.049   0.628   3.732  0.00  0.00    -0.078 C 
ATOM     10  C   UNL     1       2.164   0.697   2.485  0.00  0.00    -0.013 C 
ATOM     11  C   UNL     1       3.047   0.647   1.235  0.00  0.00    +0.018 C 
ATOM     12  C   UNL     1       3.884  -0.635   1.262  0.00  0.00    -0.013 C 
ATOM     13  C   UNL     1       4.719  -0.666   2.544  0.00  0.00    -0.078 C 
ATOM     14  N   UNL     1       3.810  -0.640   3.710  0.00  0.00    +0.380 N 
ATOM     15  H   UNL     1       3.150  -1.423   3.635  0.00  0.00    -0.082 HD
BRANCH  14  16
ATOM     16  C   UNL     1       4.586  -0.784   4.958  0.00  0.00    -0.076 C 
BRANCH  16  17
ATOM     17  C   UNL     1       5.182  -2.192   5.008  0.00  0.00    -0.031 C 
ATOM     18  C   UNL     1       4.053  -3.222   5.079  0.00  0.00    +0.005 C 
BRANCH  17  20
ATOM     19  C   UNL     1       6.766  -3.690   6.229  0.00  0.00    +0.004 C 
ATOM     20  C   UNL     1       6.072  -2.326   6.245  0.00  0.00    -0.002 C 
ENDBRANCH  17  20
ENDBRANCH  16  17
ENDBRANCH  14  16
ENDBRANCH   1  11
BRANCH   1  21
ATOM     21  C   UNL     1       3.026   0.658  -1.280  0.00  0.00    +0.032 C 
ATOM     22  C   UNL     1       2.122   0.720  -2.512  0.00  0.00    +0.006 C 
ENDBRANCH   1  21
BRANCH   4  23
ATOM     23  C   UNL     1      -1.239   2.140   0.020  0.00  0.00    +0.122 C 
BRANCH  23  24
ATOM     24  C   UNL     1      -1.657   2.413   1.466  0.00  0.00    +0.054 C 
BRANCH  24  25
ATOM     25  C   UNL     1      -2.916   3.243   1.476  0.00  0.00    -0.046 A 
ATOM     26  C   UNL     1      -2.832   4.623   1.489  0.00  0.00    +0.007 A 
ATOM     27  C   UNL     1      -3.984   5.386   1.493  0.00  0.00    +0.046 A 
ATOM     28  C   UNL     1      -5.225   4.766   1.496  0.00  0.00    +0.120 A 
ATOM     29  C   UNL     1      -5.306   3.381   1.489  0.00  0.00    +0.046 A 
ATOM     30  C   UNL     1      -4.151   2.623   1.480  0.00  0.00    +0.007 A 
BRANCH  28  31
ATOM     31  O   UNL     1      -6.360   5.514   1.505  0.00  0.00    -0.495 OA
ATOM     32  C   UNL     1      -6.200   6.934   1.512  0.00  0.00    +0.277 C 
ENDBRANCH  28  31
ENDBRANCH  24  25
ENDBRANCH  23  24
ENDBRANCH   4  23
TORSDOF 9
