REMARK  Name = ZINC14476925
REMARK  3 active torsions:
REMARK  status: ('A' for Active; 'I' for Inactive)
REMARK    1  A    between atoms: C_1  and  C_2
REMARK    2  A    between atoms: C_3  and  N_26
REMARK    3  A    between atoms: C_9  and  C_18
REMARK                            x       y       z     vdW  Elec       q    Type
REMARK                         _______ _______ _______ _____ _____    ______ ____
ROOT
ATOM      1  C   UNL     1      -4.690  -0.070  -0.314  0.00  0.00    +0.048 C 
ATOM      2  C   UNL     1      -3.806   0.222   0.871  0.00  0.00    +0.001 A 
ATOM      3  C   UNL     1      -4.332   0.162   2.143  0.00  0.00    +0.131 A 
ATOM      4  C   UNL     1      -3.534   0.428   3.240  0.00  0.00    +0.033 A 
ATOM      5  C   UNL     1      -2.205   0.761   3.054  0.00  0.00    +0.008 A 
ATOM      6  C   UNL     1      -1.672   0.828   1.784  0.00  0.00    -0.019 A 
ATOM      7  C   UNL     1      -2.465   0.548   0.667  0.00  0.00    +0.037 A 
ATOM      8  N   UNL     1      -1.995   0.552  -0.644  0.00  0.00    -0.336 N 
ATOM      9  C   UNL     1      -0.595   0.956  -0.861  0.00  0.00    +0.106 C 
ATOM     10  C   UNL     1       0.211   0.400   0.294  0.00  0.00    +0.029 C 
ATOM     11  C   UNL     1      -0.258   1.196   1.552  0.00  0.00    +0.049 C 
ATOM     12  C   UNL     1       0.812   0.922   2.542  0.00  0.00    -0.023 C 
ATOM     13  C   UNL     1       1.945   0.694   1.886  0.00  0.00    -0.030 C 
ATOM     14  C   UNL     1       1.698   0.765   0.377  0.00  0.00    +0.033 C 
ATOM     15  H   UNL     1      -2.620   1.062  -1.251  0.00  0.00    +0.147 HD
ENDROOT
BRANCH   9  16
ATOM     16  C   UNL     1      -0.530   2.462  -0.855  0.00  0.00    -0.007 A 
ATOM     17  C   UNL     1      -1.530   3.194  -0.243  0.00  0.00    +0.007 A 
ATOM     18  C   UNL     1      -1.472   4.575  -0.237  0.00  0.00    +0.002 A 
ATOM     19  C   UNL     1      -0.414   5.226  -0.844  0.00  0.00    +0.021 A 
ATOM     20  C   UNL     1       0.588   4.495  -1.457  0.00  0.00    +0.060 A 
ATOM     21  C   UNL     1       0.533   3.111  -1.457  0.00  0.00    +0.064 A 
ATOM     22 CL   UNL     1       1.793   2.192  -2.219  0.00  0.00    -0.082 Cl
ATOM     23 CL   UNL     1       1.917   5.311  -2.218  0.00  0.00    -0.082 Cl
ENDBRANCH   9  16
BRANCH   3  24
ATOM     24  N   UNL     1      -5.758  -0.188   2.335  0.00  0.00    +0.057 N 
ATOM     25  O   UNL     1      -6.594   0.207   1.543  0.00  0.00    -0.126 OA
ATOM     26  O   UNL     1      -6.094  -0.872   3.285  0.00  0.00    -0.126 OA
ENDBRANCH   3  24
TORSDOF 2
