REMARK  Name = ZINC43615923
REMARK  12 active torsions:
REMARK  status: ('A' for Active; 'I' for Inactive)
REMARK    1  A    between atoms: C_1  and  C_2
REMARK    2  A    between atoms: C_2  and  O_3
REMARK    3  A    between atoms: O_3  and  C_4
REMARK    4  A    between atoms: C_4  and  C_6
REMARK    5  A    between atoms: C_6  and  C_8
REMARK    6  A    between atoms: C_6  and  C_9
REMARK    7  A    between atoms: C_9  and  S_10
REMARK    8  A    between atoms: S_10  and  C_12
REMARK    9  A    between atoms: C_15  and  C_18
REMARK   10  A    between atoms: C_18  and  C_19
REMARK   11  A    between atoms: C_18  and  C_20
REMARK   12  A    between atoms: C_18  and  C_21
REMARK                            x       y       z     vdW  Elec       q    Type
REMARK                         _______ _______ _______ _____ _____    ______ ____
ROOT
ATOM      1  S   UNL     1       2.226  -4.600   3.933  0.00  0.00    +0.055 S 
ATOM      2  O   UNL     1       1.359  -4.356   5.032  0.00  0.00    -0.252 OA
ENDROOT
BRANCH   1   3
ATOM      3  C   UNL     1       2.131  -6.343   3.693  0.00  0.00    +0.039 A 
ATOM      4  C   UNL     1       1.011  -7.038   4.110  0.00  0.00    +0.017 A 
ATOM      5  C   UNL     1       0.936  -8.405   3.921  0.00  0.00    +0.005 A 
ATOM      6  C   UNL     1       1.981  -9.078   3.316  0.00  0.00    -0.042 A 
ATOM      7  C   UNL     1       3.100  -8.383   2.898  0.00  0.00    +0.005 A 
ATOM      8  C   UNL     1       3.173  -7.015   3.082  0.00  0.00    +0.017 A 
BRANCH   6   9
ATOM      9  C   UNL     1       1.899 -10.569   3.111  0.00  0.00    -0.013 C 
ATOM     10  C   UNL     1       0.690 -10.898   2.234  0.00  0.00    +0.015 C 
ATOM     11  C   UNL     1       3.176 -11.059   2.425  0.00  0.00    +0.015 C 
ATOM     12  C   UNL     1       1.750 -11.262   4.467  0.00  0.00    +0.015 C 
ENDBRANCH   6   9
ENDBRANCH   1   3
BRANCH   1  13
ATOM     13  C   UNL     1       1.496  -3.909   2.423  0.00  0.00    +0.123 C 
BRANCH  13  14
ATOM     14  C   UNL     1       1.516  -2.381   2.500  0.00  0.00    +0.107 C 
ATOM     15  C   UNL     1       2.965  -1.889   2.511  0.00  0.00    +0.020 C 
BRANCH  14  16
ATOM     16  C   UNL     1       0.801  -1.808   1.304  0.00  0.00    +0.311 C 
ATOM     17  O   UNL     1       0.324  -2.546   0.475  0.00  0.00    -0.251 OA
BRANCH  16  18
ATOM     18  O   UNL     1       0.693  -0.477   1.160  0.00  0.00    -0.465 OA
BRANCH  18  20
ATOM     19  C   UNL     1      -0.019   1.526   0.010  0.00  0.00    +0.048 C 
ATOM     20  C   UNL     1       0.002  -0.004   0.002  0.00  0.00    +0.229 C 
ENDBRANCH  18  20
ENDBRANCH  16  18
ENDBRANCH  14  16
ENDBRANCH  13  14
ENDBRANCH   1  13
TORSDOF 7
