REMARK  Name = ZINC02095584
REMARK  5 active torsions:
REMARK  status: ('A' for Active; 'I' for Inactive)
REMARK    1  A    between atoms: C_1  and  C_2
REMARK    2  A    between atoms: C_3  and  C_14
REMARK    3  A    between atoms: C_4  and  C_7
REMARK    4  A    between atoms: N_16  and  C_17
REMARK    5  A    between atoms: C_18  and  C_28
REMARK                            x       y       z     vdW  Elec       q    Type
REMARK                         _______ _______ _______ _____ _____    ______ ____
ROOT
ATOM      1  C   UNL     1      -3.868   0.926   4.697  0.00  0.00    +0.254 C 
ATOM      2  O   UNL     1      -3.705   0.119   3.802  0.00  0.00    -0.270 OA
ATOM      3  N   UNL     1      -3.126   2.050   4.735  0.00  0.00    -0.275 N 
ATOM      4  H   UNL     1      -3.256   2.694   5.449  0.00  0.00    +0.156 HD
ENDROOT
BRANCH   3   5
ATOM      5  C   UNL     1      -2.175   2.286   3.753  0.00  0.00    +0.090 A 
ATOM      6  C   UNL     1      -1.330   3.368   3.618  0.00  0.00    +0.084 A 
ATOM      7  C   UNL     1      -0.384   3.377   2.496  0.00  0.00    -0.018 A 
ATOM      8  C   UNL     1      -0.514   2.330   1.665  0.00  0.00    -0.004 A 
ATOM      9  S   UNL     1      -1.762   1.299   2.393  0.00  0.00    -0.077 S 
ATOM     10  C   UNL     1       0.210   2.055   0.377  0.00  0.00    +0.043 C 
ATOM     11  C   UNL     1      -0.481   2.900  -0.709  0.00  0.00    +0.005 C 
ATOM     12  C   UNL     1      -0.516   4.358  -0.234  0.00  0.00    +0.000 C 
ATOM     13  C   UNL     1       0.934   4.771  -0.096  0.00  0.00    +0.000 C 
ATOM     14  C   UNL     1       1.574   4.357   1.218  0.00  0.00    +0.005 C 
ATOM     15  C   UNL     1       0.632   4.517   2.405  0.00  0.00    +0.037 C 
BRANCH   6  16
ATOM     16  C   UNL     1      -1.370   4.451   4.554  0.00  0.00    +0.102 C 
ATOM     17  N   UNL     1      -1.401   5.310   5.296  0.00  0.00    -0.191 NA
ENDBRANCH   6  16
ENDBRANCH   3   5
BRANCH   1  20
ATOM     18  C   UNL     1      -6.987   1.597   4.587  0.00  0.00    +0.090 C 
ATOM     19  C   UNL     1      -6.221   0.955   5.714  0.00  0.00    +0.147 A 
ATOM     20  C   UNL     1      -4.878   0.675   5.739  0.00  0.00    +0.106 A 
ATOM     21  C   UNL     1      -4.694   0.067   7.073  0.00  0.00    +0.127 A 
ATOM     22  N   UNL     1      -5.885   0.066   7.616  0.00  0.00    -0.077 NA
ATOM     23  O   UNL     1      -6.717   0.543   6.884  0.00  0.00    -0.359 OA
BRANCH  21  24
ATOM     24  C   UNL     1      -3.432  -0.436   7.669  0.00  0.00    +0.023 A 
ATOM     25  C   UNL     1      -2.586  -1.257   6.926  0.00  0.00    +0.011 A 
ATOM     26  C   UNL     1      -1.413  -1.722   7.485  0.00  0.00    +0.001 A 
ATOM     27  C   UNL     1      -1.075  -1.373   8.781  0.00  0.00    +0.001 A 
ATOM     28  C   UNL     1      -1.910  -0.559   9.524  0.00  0.00    +0.020 A 
ATOM     29  C   UNL     1      -3.084  -0.083   8.973  0.00  0.00    +0.050 A 
ATOM     30 CL   UNL     1      -4.128   0.945   9.904  0.00  0.00    -0.083 Cl
ENDBRANCH  21  24
ENDBRANCH   1  20
TORSDOF 4
