REMARK  Name = ZINC09425123
REMARK  13 active torsions:
REMARK  status: ('A' for Active; 'I' for Inactive)
REMARK    1  A    between atoms: C_1  and  C_2
REMARK    2  A    between atoms: C_2  and  N_64
REMARK    3  A    between atoms: C_3  and  C_4
REMARK    4  A    between atoms: C_3  and  N_64
REMARK    5  A    between atoms: C_5  and  C_6
REMARK    6  A    between atoms: C_5  and  N_64
REMARK    7  A    between atoms: C_6  and  C_7
REMARK    8  A    between atoms: C_7  and  N_8
REMARK    9  A    between atoms: C_9  and  C_28
REMARK   10  A    between atoms: C_11  and  C_16
REMARK   11  A    between atoms: C_12  and  O_15
REMARK   12  A    between atoms: C_16  and  C_18
REMARK   13  A    between atoms: C_32  and  O_34
REMARK                            x       y       z     vdW  Elec       q    Type
REMARK                         _______ _______ _______ _____ _____    ______ ____
ROOT
ATOM      1  N   UNL     1       6.356   2.224  -0.057  0.00  0.00    -0.284 N 
ATOM      2  C   UNL     1       4.962   1.766  -0.022  0.00  0.00    +0.145 C 
ATOM      3  C   UNL     1       5.013   0.257  -0.068  0.00  0.00    +0.071 C 
ATOM      4  C   UNL     1       6.320  -0.088  -0.132  0.00  0.00    +0.188 C 
ATOM      5  C   UNL     1       7.146   1.137  -0.124  0.00  0.00    +0.282 C 
ATOM      6  O   UNL     1       8.360   1.159  -0.172  0.00  0.00    -0.267 OA
ENDROOT
BRANCH   2   7
ATOM      7  C   UNL     1       4.210   2.295  -1.216  0.00  0.00    -0.019 A 
ATOM      8  C   UNL     1       4.759   2.190  -2.481  0.00  0.00    +0.006 A 
ATOM      9  C   UNL     1       4.069   2.669  -3.579  0.00  0.00    +0.004 A 
ATOM     10  C   UNL     1       2.833   3.266  -3.413  0.00  0.00    +0.045 A 
ATOM     11  C   UNL     1       2.283   3.378  -2.145  0.00  0.00    +0.117 A 
ATOM     12  C   UNL     1       2.975   2.891  -1.045  0.00  0.00    +0.051 A 
BRANCH  11  13
ATOM     13  O   UNL     1       1.069   3.965  -1.979  0.00  0.00    -0.507 OA
ATOM     14  H   UNL     1       1.110   4.920  -1.831  0.00  0.00    +0.292 HD
ENDBRANCH  11  13
ENDBRANCH   2   7
BRANCH   4  15
ATOM     15  O   UNL     1       6.795  -1.354  -0.191  0.00  0.00    -0.502 OA
ATOM     16  H   UNL     1       7.793  -1.334  -0.231  0.00  0.00    +0.292 HD
ENDBRANCH   4  15
BRANCH   3  17
ATOM     17  C   UNL     1       3.866  -0.658  -0.053  0.00  0.00    +0.195 C 
ATOM     18  O   UNL     1       3.654  -1.383  -1.007  0.00  0.00    -0.287 OA
BRANCH  17  19
ATOM     19  C   UNL     1       2.970  -0.699   1.119  0.00  0.00    +0.026 A 
ATOM     20  C   UNL     1       3.253   0.080   2.245  0.00  0.00    +0.015 A 
ATOM     21  C   UNL     1       2.415   0.039   3.337  0.00  0.00    +0.050 A 
ATOM     22  C   UNL     1       1.287  -0.775   3.325  0.00  0.00    +0.162 A 
ATOM     23  C   UNL     1       0.999  -1.551   2.205  0.00  0.00    +0.163 A 
ATOM     24  C   UNL     1       1.836  -1.515   1.106  0.00  0.00    +0.061 A 
ATOM     25  O   UNL     1      -0.106  -2.347   2.175  0.00  0.00    -0.485 OA
ATOM     26  C   UNL     1      -0.718  -2.644   3.435  0.00  0.00    +0.270 C 
ATOM     27  C   UNL     1      -0.837  -1.337   4.231  0.00  0.00    +0.270 C 
ATOM     28  O   UNL     1       0.479  -0.805   4.418  0.00  0.00    -0.485 OA
ENDBRANCH  17  19
ENDBRANCH   3  17
BRANCH   1  29
ATOM     29  C   UNL     1       6.807   3.617  -0.030  0.00  0.00    +0.107 C 
BRANCH  29  30
ATOM     30  C   UNL     1       6.906   4.149  -1.462  0.00  0.00    +0.000 C 
BRANCH  30  31
ATOM     31  C   UNL     1       7.377   5.604  -1.433  0.00  0.00    -0.077 C 
BRANCH  31  32
ATOM     32  N   UNL     1       7.489   6.096  -2.823  0.00  0.00    +0.379 N 
ATOM     33  H   UNL     1       8.058   5.436  -3.365  0.00  0.00    -0.082 HD
BRANCH  32  35
ATOM     34  C   UNL     1       5.282   7.203  -2.684  0.00  0.00    -0.017 C 
ATOM     35  C   UNL     1       6.146   6.188  -3.435  0.00  0.00    -0.082 C 
ENDBRANCH  32  35
BRANCH  32  36
ATOM     36  C   UNL     1       8.143   7.421  -2.838  0.00  0.00    -0.082 C 
ATOM     37  C   UNL     1       8.562   7.745  -4.274  0.00  0.00    -0.017 C 
ENDBRANCH  32  36
ENDBRANCH  31  32
ENDBRANCH  30  31
ENDBRANCH  29  30
ENDBRANCH   1  29
TORSDOF 11
