REMARK  Name = ZINC15016650
REMARK  6 active torsions:
REMARK  status: ('A' for Active; 'I' for Inactive)
REMARK    1  A    between atoms: C_1  and  C_2
REMARK    2  A    between atoms: N_7  and  C_8
REMARK    3  A    between atoms: C_8  and  C_10
REMARK    4  A    between atoms: C_8  and  C_22
REMARK    5  A    between atoms: C_16  and  C_21
REMARK    6  A    between atoms: C_19  and  O_20
REMARK                            x       y       z     vdW  Elec       q    Type
REMARK                         _______ _______ _______ _____ _____    ______ ____
ROOT
ATOM      1  C   UNL     1      -0.013   1.086   0.008  0.00  0.00    +0.140 C 
ENDROOT
BRANCH   1   2
ATOM      2  C   UNL     1       1.422   1.543   0.064  0.00  0.00    +0.021 A 
ATOM      3  C   UNL     1       1.819   2.649  -0.684  0.00  0.00    +0.010 A 
ATOM      4  C   UNL     1       3.107   3.090  -0.652  0.00  0.00    +0.010 A 
ATOM      5  C   UNL     1       4.054   2.417   0.137  0.00  0.00    +0.004 A 
ATOM      6  C   UNL     1       5.396   2.840   0.192  0.00  0.00    +0.012 A 
ATOM      7  C   UNL     1       6.261   2.137   0.980  0.00  0.00    +0.023 A 
ATOM      8  C   UNL     1       5.806   1.035   1.702  0.00  0.00    +0.039 A 
ATOM      9  N   UNL     1       4.556   0.644   1.648  0.00  0.00    -0.248 NA
ATOM     10  C   UNL     1       3.659   1.288   0.896  0.00  0.00    +0.113 A 
ATOM     11  C   UNL     1       2.315   0.863   0.842  0.00  0.00    +0.148 A 
ATOM     12  C   UNL     1       6.777   0.273   2.566  0.00  0.00    +0.065 C 
BRANCH  11  13
ATOM     13  O   UNL     1       1.911  -0.216   1.561  0.00  0.00    -0.504 OA
ATOM     14  H   UNL     1       1.987  -1.056   1.087  0.00  0.00    +0.292 HD
ENDBRANCH  11  13
ENDBRANCH   1   2
BRANCH   1  21
ATOM     15  C   UNL     1      -4.089  -1.901  -0.843  0.00  0.00    +0.044 C 
ATOM     16  C   UNL     1      -3.464  -0.724  -1.546  0.00  0.00    -0.046 A 
ATOM     17  C   UNL     1      -4.018  -0.221  -2.716  0.00  0.00    +0.021 A 
ATOM     18  C   UNL     1      -3.421   0.859  -3.337  0.00  0.00    +0.084 A 
ATOM     19  C   UNL     1      -1.778   0.964  -1.719  0.00  0.00    +0.097 A 
ATOM     20  C   UNL     1      -2.326  -0.121  -1.042  0.00  0.00    +0.045 A 
ATOM     21  N   UNL     1      -0.635   1.579  -1.223  0.00  0.00    -0.319 N 
ATOM     22  H   UNL     1      -0.249   2.336  -1.692  0.00  0.00    +0.148 HD
ATOM     23  N   UNL     1      -2.307   1.480  -2.866  0.00  0.00    -0.350 N 
ATOM     24  H   UNL     1      -1.890   2.287  -3.344  0.00  0.00    +0.166 HD
ENDBRANCH   1  21
BRANCH   1  25
ATOM     25  C   UNL     1      -0.759   1.627   1.200  0.00  0.00    +0.031 A 
ATOM     26  C   UNL     1      -1.083   0.789   2.254  0.00  0.00    +0.130 A 
ATOM     27  C   UNL     1      -1.768   1.287   3.348  0.00  0.00    +0.039 A 
ATOM     28  C   UNL     1      -2.129   2.621   3.389  0.00  0.00    +0.004 A 
ATOM     29  C   UNL     1      -1.807   3.457   2.337  0.00  0.00    +0.020 A 
ATOM     30  C   UNL     1      -1.116   2.962   1.245  0.00  0.00    +0.049 A 
ATOM     31 CL   UNL     1      -0.705   4.016  -0.072  0.00  0.00    -0.083 Cl
ATOM     32  F   UNL     1      -0.730  -0.515   2.213  0.00  0.00    -0.205 F 
ENDBRANCH   1  25
TORSDOF 4
