REMARK  Name = ZINC15865821
REMARK  5 active torsions:
REMARK  status: ('A' for Active; 'I' for Inactive)
REMARK    1  A    between atoms: C_1  and  C_2
REMARK    2  A    between atoms: C_10  and  C_13
REMARK    3  A    between atoms: N_15  and  C_16
REMARK    4  A    between atoms: C_16  and  C_17
REMARK    5  A    between atoms: C_17  and  C_18
REMARK                            x       y       z     vdW  Elec       q    Type
REMARK                         _______ _______ _______ _____ _____    ______ ____
ROOT
ATOM      1  C   UNL     1       2.508  -2.828  -0.065  0.00  0.00    +0.047 C 
ATOM      2  C   UNL     1       1.202  -2.076  -0.030  0.00  0.00    -0.008 A 
ATOM      3  C   UNL     1       0.019  -2.756  -0.008  0.00  0.00    +0.008 A 
ATOM      4  C   UNL     1      -1.186  -2.043   0.025  0.00  0.00    +0.019 A 
ATOM      5  C   UNL     1      -1.173  -0.690   0.036  0.00  0.00    +0.096 A 
ATOM      6  N   UNL     1       0.003  -0.004   0.013  0.00  0.00    -0.267 N 
ATOM      7  C   UNL     1       1.194  -0.672  -0.020  0.00  0.00    +0.143 A 
ATOM      8  N   UNL     1       2.356  -0.013  -0.042  0.00  0.00    -0.236 NA
ATOM      9  C   UNL     1       2.405   1.303  -0.033  0.00  0.00    +0.131 A 
ATOM     10  C   UNL     1       1.216   2.045  -0.001  0.00  0.00    +0.119 A 
ATOM     11  C   UNL     1      -0.016   1.346   0.023  0.00  0.00    +0.271 A 
ATOM     12  O   UNL     1      -1.073   1.952   0.048  0.00  0.00    -0.266 OA
ENDROOT
BRANCH  10  13
ATOM     13  C   UNL     1       1.246   3.512   0.009  0.00  0.00    +0.251 C 
ATOM     14  O   UNL     1       2.309   4.098   0.096  0.00  0.00    -0.270 OA
ATOM     15  N   UNL     1       0.097   4.210  -0.078  0.00  0.00    -0.311 N 
ATOM     16  H   UNL     1      -0.755   3.746  -0.072  0.00  0.00    +0.149 HD
BRANCH  15  17
ATOM     17  C   UNL     1       0.134   5.671  -0.180  0.00  0.00    +0.109 C 
BRANCH  17  18
ATOM     18  C   UNL     1      -1.295   6.213  -0.265  0.00  0.00    +0.049 C 
BRANCH  18  19
ATOM     19  C   UNL     1      -1.257   7.716  -0.371  0.00  0.00    -0.072 C 
ATOM     20  C   UNL     1      -1.305   8.242  -1.552  0.00  0.00    -0.028 C 
ATOM     21  C   UNL     1      -1.266   9.719  -1.817  0.00  0.00    +0.027 C 
ATOM     22  C   UNL     1      -1.590  10.492  -0.537  0.00  0.00    +0.004 C 
ATOM     23  C   UNL     1      -0.718   9.940   0.598  0.00  0.00    +0.005 C 
ATOM     24  C   UNL     1      -1.173   8.509   0.900  0.00  0.00    +0.030 C 
ENDBRANCH  18  19
ENDBRANCH  17  18
ENDBRANCH  15  17
ENDBRANCH  10  13
TORSDOF 4
