REMARK  Name = ZINC40014493
REMARK  18 active torsions:
REMARK  status: ('A' for Active; 'I' for Inactive)
REMARK    1  A    between atoms: C_1  and  C_2
REMARK    2  A    between atoms: C_2  and  N_3
REMARK    3  A    between atoms: N_3  and  C_4
REMARK    4  A    between atoms: N_3  and  C_6
REMARK    5  A    between atoms: C_4  and  C_5
REMARK    6  A    between atoms: C_6  and  C_7
REMARK    7  A    between atoms: C_7  and  C_8
REMARK    8  A    between atoms: C_8  and  N_9
REMARK    9  A    between atoms: C_10  and  C_26
REMARK   10  A    between atoms: C_29  and  O_35
REMARK   11  A    between atoms: C_30  and  O_32
REMARK   12  A    between atoms: O_32  and  C_33
REMARK   13  A    between atoms: C_33  and  C_34
REMARK   14  A    between atoms: O_35  and  C_36
REMARK   15  A    between atoms: C_36  and  C_37
REMARK   16  A    between atoms: C_37  and  C_38
REMARK   17  A    between atoms: C_38  and  C_39
REMARK   18  A    between atoms: C_38  and  C_40
REMARK                            x       y       z     vdW  Elec       q    Type
REMARK                         _______ _______ _______ _____ _____    ______ ____
ROOT
ATOM      1  N   UNL     1      -4.288  -4.606   0.107  0.00  0.00    -0.284 N 
ATOM      2  C   UNL     1      -5.243  -4.759   1.217  0.00  0.00    +0.145 C 
ATOM      3  C   UNL     1      -6.497  -5.293   0.604  0.00  0.00    +0.072 A 
ATOM      4  C   UNL     1      -7.786  -5.654   1.202  0.00  0.00    +0.199 A 
ATOM      5  O   UNL     1      -8.084  -5.394   2.354  0.00  0.00    -0.287 OA
ATOM      6  C   UNL     1      -8.694  -6.367   0.269  0.00  0.00    +0.067 A 
ATOM      7  C   UNL     1      -9.871  -6.952   0.738  0.00  0.00    +0.053 A 
ATOM      8  C   UNL     1     -10.700  -7.615  -0.142  0.00  0.00    +0.124 A 
ATOM      9  C   UNL     1     -10.362  -7.699  -1.488  0.00  0.00    +0.042 A 
ATOM     10  C   UNL     1      -9.204  -7.124  -1.960  0.00  0.00    +0.050 A 
ATOM     11  C   UNL     1      -8.351  -6.446  -1.091  0.00  0.00    +0.140 A 
ATOM     12  O   UNL     1      -7.224  -5.882  -1.585  0.00  0.00    -0.450 OA
ATOM     13  C   UNL     1      -6.280  -5.427  -0.738  0.00  0.00    +0.199 A 
ATOM     14  C   UNL     1      -4.903  -4.992  -1.029  0.00  0.00    +0.283 C 
ATOM     15  O   UNL     1      -4.394  -4.986  -2.132  0.00  0.00    -0.267 OA
ATOM     16  F   UNL     1     -11.842  -8.183   0.304  0.00  0.00    -0.205 F 
ENDROOT
BRANCH   2  17
ATOM     17  C   UNL     1      -4.705  -5.731   2.235  0.00  0.00    -0.019 A 
ATOM     18  C   UNL     1      -4.041  -6.870   1.817  0.00  0.00    +0.009 A 
ATOM     19  C   UNL     1      -3.546  -7.765   2.747  0.00  0.00    +0.050 A 
ATOM     20  C   UNL     1      -3.715  -7.522   4.101  0.00  0.00    +0.162 A 
ATOM     21  C   UNL     1      -4.383  -6.376   4.521  0.00  0.00    +0.162 A 
ATOM     22  C   UNL     1      -4.873  -5.481   3.584  0.00  0.00    +0.055 A 
BRANCH  21  23
ATOM     23  O   UNL     1      -4.552  -6.133   5.848  0.00  0.00    -0.489 OA
BRANCH  23  24
ATOM     24  C   UNL     1      -5.248  -4.938   6.206  0.00  0.00    +0.226 C 
ATOM     25  C   UNL     1      -5.339  -4.837   7.730  0.00  0.00    +0.048 C 
ENDBRANCH  23  24
ENDBRANCH  21  23
BRANCH  20  26
ATOM     26  O   UNL     1      -3.229  -8.402   5.017  0.00  0.00    -0.488 OA
BRANCH  26  27
ATOM     27  C   UNL     1      -2.554  -9.556   4.514  0.00  0.00    +0.229 C 
BRANCH  27  28
ATOM     28  C   UNL     1      -2.082 -10.422   5.684  0.00  0.00    +0.044 C 
BRANCH  28  29
ATOM     29  C   UNL     1      -1.359 -11.658   5.144  0.00  0.00    -0.014 C 
ATOM     30  C   UNL     1      -0.779 -12.459   6.311  0.00  0.00    +0.007 C 
ATOM     31  C   UNL     1      -2.349 -12.530   4.369  0.00  0.00    +0.007 C 
ENDBRANCH  28  29
ENDBRANCH  27  28
ENDBRANCH  26  27
ENDBRANCH  20  26
ENDBRANCH   2  17
BRANCH   1  32
ATOM     32  C   UNL     1      -2.913  -4.113   0.217  0.00  0.00    +0.107 C 
BRANCH  32  33
ATOM     33  C   UNL     1      -2.901  -2.592   0.048  0.00  0.00    +0.000 C 
BRANCH  33  34
ATOM     34  C   UNL     1      -1.464  -2.078   0.163  0.00  0.00    -0.077 C 
BRANCH  34  35
ATOM     35  N   UNL     1      -1.438  -0.634  -0.108  0.00  0.00    +0.379 N 
ATOM     36  H   UNL     1      -1.863  -0.453  -1.004  0.00  0.00    -0.082 HD
BRANCH  35  38
ATOM     37  C   UNL     1      -2.263   1.562   0.594  0.00  0.00    -0.017 C 
ATOM     38  C   UNL     1      -2.184   0.074   0.941  0.00  0.00    -0.082 C 
ENDBRANCH  35  38
BRANCH  35  39
ATOM     39  C   UNL     1      -0.046  -0.164  -0.121  0.00  0.00    -0.082 C 
ATOM     40  C   UNL     1       0.689  -0.780  -1.313  0.00  0.00    -0.017 C 
ENDBRANCH  35  39
ENDBRANCH  34  35
ENDBRANCH  33  34
ENDBRANCH  32  33
ENDBRANCH   1  32
TORSDOF 13
