REMARK  Name = ZINC49216935
REMARK  9 active torsions:
REMARK  status: ('A' for Active; 'I' for Inactive)
REMARK    1  A    between atoms: C_1  and  C_2
REMARK    2  A    between atoms: C_2  and  C_3
REMARK    3  A    between atoms: C_3  and  C_4
REMARK    4  A    between atoms: C_4  and  C_5
REMARK    5  A    between atoms: C_5  and  C_6
REMARK    6  A    between atoms: C_6  and  C_7
REMARK    7  A    between atoms: C_7  and  C_9
REMARK    8  A    between atoms: C_7  and  N_10
REMARK    9  A    between atoms: C_11  and  N_19
REMARK                            x       y       z     vdW  Elec       q    Type
REMARK                         _______ _______ _______ _____ _____    ______ ____
ROOT
ATOM      1  N   UNL     1      -4.960  -4.309  -1.226  0.00  0.00    -0.279 N 
ATOM      2  C   UNL     1      -6.117  -3.569  -1.175  0.00  0.00    +0.105 A 
ATOM      3  C   UNL     1      -6.712  -3.172  -2.340  0.00  0.00    +0.111 A 
ATOM      4  C   UNL     1      -6.123  -3.532  -3.563  0.00  0.00    +0.256 A 
ATOM      5  O   UNL     1      -6.636  -3.189  -4.615  0.00  0.00    -0.268 OA
ATOM      6  N   UNL     1      -4.988  -4.258  -3.567  0.00  0.00    -0.275 N 
ATOM      7  H   UNL     1      -4.580  -4.508  -4.411  0.00  0.00    +0.173 HD
ATOM      8  C   UNL     1      -4.413  -4.636  -2.411  0.00  0.00    +0.331 A 
ATOM      9  O   UNL     1      -3.386  -5.287  -2.437  0.00  0.00    -0.246 OA
ENDROOT
BRANCH   2  10
ATOM     10  N   UNL     1      -6.670  -3.232   0.034  0.00  0.00    -0.344 N 
ATOM     11  H   UNL     1      -6.192  -3.423   0.856  0.00  0.00    +0.144 HD
ATOM     12  H   UNL     1      -7.540  -2.804   0.067  0.00  0.00    +0.144 HD
ENDBRANCH   2  10
BRANCH   1  13
ATOM     13  C   UNL     1      -4.316  -4.739   0.018  0.00  0.00    +0.090 C 
ATOM     14  C   UNL     1      -4.218  -6.266   0.040  0.00  0.00    +0.031 C 
BRANCH  13  15
ATOM     15  C   UNL     1      -2.912  -4.137   0.099  0.00  0.00    +0.025 C 
BRANCH  15  16
ATOM     16  C   UNL     1      -3.015  -2.614   0.203  0.00  0.00    +0.002 C 
BRANCH  16  17
ATOM     17  C   UNL     1      -1.611  -2.011   0.284  0.00  0.00    +0.000 C 
BRANCH  17  18
ATOM     18  C   UNL     1      -1.715  -0.488   0.388  0.00  0.00    -0.000 C 
BRANCH  18  20
ATOM     19  C   UNL     1      -0.415   1.637   0.573  0.00  0.00    +0.004 C 
ATOM     20  C   UNL     1      -0.311   0.114   0.469  0.00  0.00    -0.003 C 
ENDBRANCH  18  20
ENDBRANCH  17  18
ENDBRANCH  16  17
ENDBRANCH  15  16
ENDBRANCH  13  15
ENDBRANCH   1  13
TORSDOF 7
