REMARK  Name = ZINC13409736
REMARK  9 active torsions:
REMARK  status: ('A' for Active; 'I' for Inactive)
REMARK    1  A    between atoms: C_1  and  C_2
REMARK    2  A    between atoms: C_2  and  C_3
REMARK    3  A    between atoms: C_5  and  C_28
REMARK    4  A    between atoms: C_8  and  C_21
REMARK    5  A    between atoms: C_8  and  O_27
REMARK    6  A    between atoms: C_9  and  C_19
REMARK    7  A    between atoms: C_11  and  C_12
REMARK    8  A    between atoms: C_11  and  O_18
REMARK    9  A    between atoms: C_19  and  C_20
REMARK                            x       y       z     vdW  Elec       q    Type
REMARK                         _______ _______ _______ _____ _____    ______ ____
ROOT
ATOM      1  C   UNL     1      -0.113  -0.054   2.392  0.00  0.00    +0.059 C 
ATOM      2  C   UNL     1      -0.951   1.124   1.889  0.00  0.00    +0.158 C 
ATOM      3  O   UNL     1      -0.084   2.143   1.387  0.00  0.00    -0.336 OA
ATOM      4  C   UNL     1       0.813   2.678   2.362  0.00  0.00    +0.201 C 
ATOM      5  C   UNL     1       1.722   1.562   2.885  0.00  0.00    +0.089 C 
ATOM      6  C   UNL     1       0.856   0.442   3.469  0.00  0.00    +0.104 C 
ENDROOT
BRANCH   6   7
ATOM      7  C   UNL     1       1.737  -0.697   3.917  0.00  0.00    -0.015 A 
ATOM      8  C   UNL     1       1.274  -1.997   3.847  0.00  0.00    +0.006 A 
ATOM      9  C   UNL     1       2.083  -3.041   4.255  0.00  0.00    +0.000 A 
ATOM     10  C   UNL     1       3.352  -2.784   4.740  0.00  0.00    +0.000 A 
ATOM     11  C   UNL     1       3.813  -1.483   4.814  0.00  0.00    +0.000 A 
ATOM     12  C   UNL     1       3.005  -0.439   4.404  0.00  0.00    +0.006 A 
ENDBRANCH   6   7
BRANCH   4  13
ATOM     13  C   UNL     1       1.655   3.758   1.733  0.00  0.00    +0.011 A 
ATOM     14  C   UNL     1       2.217   4.745   2.521  0.00  0.00    +0.009 A 
ATOM     15  C   UNL     1       2.993   5.733   1.944  0.00  0.00    +0.000 A 
ATOM     16  C   UNL     1       3.199   5.739   0.577  0.00  0.00    +0.000 A 
ATOM     17  C   UNL     1       2.633   4.755  -0.212  0.00  0.00    +0.000 A 
ATOM     18  C   UNL     1       1.861   3.765   0.366  0.00  0.00    +0.009 A 
ENDBRANCH   4  13
BRANCH   2  19
ATOM     19  C   UNL     1      -1.773   1.678   3.024  0.00  0.00    -0.018 A 
ATOM     20  C   UNL     1      -2.158   0.853   4.064  0.00  0.00    +0.006 A 
ATOM     21  C   UNL     1      -2.908   1.362   5.108  0.00  0.00    +0.000 A 
ATOM     22  C   UNL     1      -3.281   2.693   5.107  0.00  0.00    +0.000 A 
ATOM     23  C   UNL     1      -2.901   3.516   4.063  0.00  0.00    +0.000 A 
ATOM     24  C   UNL     1      -2.146   3.009   3.022  0.00  0.00    +0.006 A 
ENDBRANCH   2  19
BRANCH   1  26
ATOM     25  C   UNL     1      -0.258  -1.482   0.346  0.00  0.00    +0.004 C 
ATOM     26  C   UNL     1       0.679  -0.653   1.228  0.00  0.00    +0.006 C 
ENDBRANCH   1  26
BRANCH   6  27
ATOM     27  O   UNL     1       0.116   0.941   4.585  0.00  0.00    -0.383 OA
ATOM     28  H   UNL     1      -0.460   0.285   5.000  0.00  0.00    +0.211 HD
ENDBRANCH   6  27
BRANCH   5  29
ATOM     29  C   UNL     1       2.567   1.009   1.736  0.00  0.00    +0.009 C 
ATOM     30  C   UNL     1       3.946   1.671   1.752  0.00  0.00    +0.004 C 
ENDBRANCH   5  29
BRANCH   4  31
ATOM     31  O   UNL     1       0.064   3.230   3.447  0.00  0.00    -0.361 OA
ATOM     32  H   UNL     1      -0.336   4.088   3.252  0.00  0.00    +0.213 HD
ENDBRANCH   4  31
TORSDOF 7
