REMARK  Name = ZINC63886485
REMARK  17 active torsions:
REMARK  status: ('A' for Active; 'I' for Inactive)
REMARK    1  A    between atoms: C_1  and  C_2
REMARK    2  A    between atoms: C_2  and  C_41
REMARK    3  A    between atoms: C_7  and  C_11
REMARK    4  A    between atoms: C_11  and  O_12
REMARK    5  A    between atoms: O_12  and  C_13
REMARK    6  A    between atoms: C_13  and  C_14
REMARK    7  A    between atoms: C_14  and  C_16
REMARK    8  A    between atoms: C_14  and  O_40
REMARK    9  A    between atoms: C_16  and  N_17
REMARK   10  A    between atoms: N_17  and  C_18
REMARK   11  A    between atoms: C_18  and  C_19
REMARK   12  A    between atoms: C_19  and  C_21
REMARK   13  A    between atoms: C_19  and  C_31
REMARK   14  A    between atoms: C_25  and  O_29
REMARK   15  A    between atoms: C_26  and  O_27
REMARK   16  A    between atoms: O_27  and  C_28
REMARK   17  A    between atoms: O_29  and  C_30
REMARK                            x       y       z     vdW  Elec       q    Type
REMARK                         _______ _______ _______ _____ _____    ______ ____
ROOT
ATOM      1  C   UNL     1      -1.136 -10.957   4.954  0.00  0.00    +0.034 C 
ENDROOT
BRANCH   1   2
ATOM      2  C   UNL     1      -1.484 -11.752   6.187  0.00  0.00    -0.036 C 
ATOM      3  C   UNL     1      -2.555 -12.560   6.358  0.00  0.00    -0.001 A 
ATOM      4  C   UNL     1      -3.674 -12.927   5.481  0.00  0.00    +0.010 A 
ATOM      5  C   UNL     1      -4.616 -13.780   5.943  0.00  0.00    +0.001 A 
ATOM      6  C   UNL     1      -4.552 -14.320   7.235  0.00  0.00    +0.002 A 
ATOM      7  C   UNL     1      -3.556 -14.030   8.098  0.00  0.00    +0.026 A 
ATOM      8  C   UNL     1      -2.510 -13.144   7.717  0.00  0.00    +0.043 A 
ATOM      9  N   UNL     1      -1.453 -12.714   8.362  0.00  0.00    -0.380 N 
ATOM     10  C   UNL     1      -0.703 -11.811   7.481  0.00  0.00    +0.145 C 
ATOM     11  H   UNL     1      -1.205 -12.954   9.268  0.00  0.00    +0.160 HD
ENDBRANCH   1   2
BRANCH   1  12
ATOM     12  C   UNL     1       0.207 -11.399   4.434  0.00  0.00    +0.003 A 
ATOM     13  C   UNL     1       1.329 -11.290   5.236  0.00  0.00    +0.008 A 
ATOM     14  C   UNL     1       2.563 -11.695   4.761  0.00  0.00    +0.004 A 
ATOM     15  C   UNL     1       2.681 -12.210   3.484  0.00  0.00    +0.049 A 
ATOM     16  C   UNL     1       1.561 -12.322   2.676  0.00  0.00    +0.162 A 
ATOM     17  C   UNL     1       0.318 -11.920   3.155  0.00  0.00    +0.165 A 
BRANCH  17  18
ATOM     18  O   UNL     1      -0.786 -12.034   2.368  0.00  0.00    -0.491 OA
ATOM     19  C   UNL     1      -1.105 -10.918   1.534  0.00  0.00    +0.277 C 
ENDBRANCH  17  18
BRANCH  16  20
ATOM     20  O   UNL     1       1.675 -12.829   1.419  0.00  0.00    -0.491 OA
ATOM     21  C   UNL     1       2.981 -13.226   0.996  0.00  0.00    +0.277 C 
ENDBRANCH  16  20
ENDBRANCH   1  12
BRANCH   1  22
ATOM     22  C   UNL     1      -1.083  -9.469   5.305  0.00  0.00    -0.070 C 
BRANCH  22  23
ATOM     23  N   UNL     1      -0.862  -8.685   4.083  0.00  0.00    +0.381 N 
ATOM     24  H   UNL     1      -1.618  -8.851   3.436  0.00  0.00    -0.086 HD
ATOM     25  H   UNL     1       0.010  -8.962   3.658  0.00  0.00    -0.086 HD
BRANCH  23  26
ATOM     26  C   UNL     1      -0.810  -7.256   4.420  0.00  0.00    -0.049 C 
BRANCH  26  27
ATOM     27  C   UNL     1      -0.581  -6.440   3.146  0.00  0.00    +0.123 C 
BRANCH  27  28
ATOM     28  O   UNL     1      -1.707  -6.583   2.279  0.00  0.00    -0.391 OA
ATOM     29  H   UNL     1      -2.542  -6.282   2.664  0.00  0.00    +0.210 HD
ENDBRANCH  27  28
BRANCH  27  30
ATOM     30  C   UNL     1      -0.403  -4.965   3.511  0.00  0.00    +0.189 C 
BRANCH  30  31
ATOM     31  O   UNL     1      -0.073  -4.220   2.337  0.00  0.00    -0.373 OA
BRANCH  31  32
ATOM     32  C   UNL     1       0.116  -2.822   2.569  0.00  0.00    +0.190 C 
BRANCH  32  38
ATOM     33  C   UNL     1      -0.019   1.526   0.010  0.00  0.00    +0.012 C 
ATOM     34  C   UNL     1       0.002  -0.004   0.002  0.00  0.00    -0.025 C 
ATOM     35  C   UNL     1       1.147  -0.608  -0.837  0.00  0.00    -0.000 C 
ATOM     36  C   UNL     1       0.881  -2.091  -1.135  0.00  0.00    +0.031 C 
ATOM     37  C   UNL     1       0.545  -2.814   0.146  0.00  0.00    -0.025 C 
ATOM     38  C   UNL     1       0.457  -2.139   1.270  0.00  0.00    -0.045 C 
ATOM     39  C   UNL     1       0.726  -0.624   1.211  0.00  0.00    +0.023 C 
ATOM     40  C   UNL     1       2.024  -0.376   0.405  0.00  0.00    +0.013 C 
ATOM     41  C   UNL     1      -1.369  -0.620  -0.281  0.00  0.00    +0.012 C 
ENDBRANCH  32  38
ENDBRANCH  31  32
ENDBRANCH  30  31
ENDBRANCH  27  30
ENDBRANCH  26  27
ENDBRANCH  23  26
ENDBRANCH  22  23
ENDBRANCH   1  22
TORSDOF 13
