REMARK  Name = ZINC16572715
REMARK  10 active torsions:
REMARK  status: ('A' for Active; 'I' for Inactive)
REMARK    1  A    between atoms: C_1  and  C_2
REMARK    2  A    between atoms: C_2  and  C_3
REMARK    3  A    between atoms: C_8  and  N_9
REMARK    4  A    between atoms: N_12  and  C_13
REMARK    5  A    between atoms: C_13  and  C_15
REMARK    6  A    between atoms: C_13  and  C_20
REMARK    7  A    between atoms: C_15  and  C_17
REMARK    8  A    between atoms: C_15  and  C_18
REMARK    9  A    between atoms: C_18  and  C_19
REMARK   10  A    between atoms: C_26  and  C_28
REMARK                            x       y       z     vdW  Elec       q    Type
REMARK                         _______ _______ _______ _____ _____    ______ ____
ROOT
ATOM      1  C   UNL     1      -0.210   1.305   0.092  0.00  0.00    +0.163 C 
ENDROOT
BRANCH   1   2
ATOM      2  C   UNL     1      -1.100   1.573  -1.095  0.00  0.00    +0.239 C 
ATOM      3  O   UNL     1      -2.139   2.180  -0.949  0.00  0.00    -0.273 OA
ATOM      4  N   UNL     1      -0.740   1.137  -2.318  0.00  0.00    -0.262 N 
ATOM      5  C   UNL     1      -1.506   1.472  -3.429  0.00  0.00    +0.188 A 
ATOM      6  N   UNL     1      -2.612   2.195  -3.501  0.00  0.00    -0.125 NA
ATOM      7  N   UNL     1      -3.195   2.416  -4.599  0.00  0.00    -0.140 NA
ATOM      8  C   UNL     1      -2.712   1.913  -5.728  0.00  0.00    +0.134 A 
ATOM      9  S   UNL     1      -1.275   1.052  -5.100  0.00  0.00    -0.030 S 
ATOM     10  H   UNL     1       0.053   0.589  -2.424  0.00  0.00    +0.157 HD
BRANCH   8  11
ATOM     11  C   UNL     1      -3.218   2.030  -7.112  0.00  0.00    +0.010 A 
ATOM     12  C   UNL     1      -4.377   2.763  -7.375  0.00  0.00    +0.011 A 
ATOM     13  C   UNL     1      -4.844   2.869  -8.668  0.00  0.00    +0.002 A 
ATOM     14  C   UNL     1      -4.168   2.251  -9.705  0.00  0.00    +0.020 A 
ATOM     15  C   UNL     1      -3.018   1.522  -9.452  0.00  0.00    +0.042 A 
ATOM     16  C   UNL     1      -2.537   1.413  -8.162  0.00  0.00    +0.030 A 
ATOM     17 CL   UNL     1      -2.176   0.750 -10.759  0.00  0.00    -0.084 Cl
ENDBRANCH   8  11
ENDBRANCH   1   2
BRANCH   1  21
ATOM     18  N   UNL     1      -1.215   1.475   3.625  0.00  0.00    -0.269 N 
ATOM     19  C   UNL     1      -0.574   1.118   2.494  0.00  0.00    +0.304 C 
ATOM     20  O   UNL     1       0.304   0.278   2.532  0.00  0.00    -0.252 OA
ATOM     21  N   UNL     1      -0.907   1.693   1.321  0.00  0.00    -0.288 N 
ATOM     22  H   UNL     1      -1.956   2.098   3.586  0.00  0.00    +0.156 HD
ATOM     23  H   UNL     1      -1.607   2.363   1.291  0.00  0.00    +0.151 HD
BRANCH  18  29
ATOM     24  C   UNL     1      -1.029   1.658   6.026  0.00  0.00    -0.026 A 
ATOM     25  C   UNL     1      -0.628   1.132   7.239  0.00  0.00    +0.005 A 
ATOM     26  C   UNL     1      -0.010  -0.104   7.288  0.00  0.00    +0.000 A 
ATOM     27  C   UNL     1       0.209  -0.817   6.123  0.00  0.00    +0.002 A 
ATOM     28  C   UNL     1      -0.193  -0.299   4.908  0.00  0.00    +0.023 A 
ATOM     29  C   UNL     1      -0.810   0.945   4.855  0.00  0.00    +0.038 A 
BRANCH  24  31
ATOM     30  C   UNL     1      -3.221   2.816   5.979  0.00  0.00    +0.009 C 
ATOM     31  C   UNL     1      -1.703   3.005   5.973  0.00  0.00    +0.033 C 
ENDBRANCH  24  31
ENDBRANCH  18  29
ENDBRANCH   1  21
BRANCH   1  32
ATOM     32  C   UNL     1       1.078   2.120  -0.043  0.00  0.00    +0.015 C 
ATOM     33  C   UNL     1       0.753   3.611   0.068  0.00  0.00    +0.010 C 
BRANCH  32  34
ATOM     34  C   UNL     1       2.049   1.725   1.072  0.00  0.00    +0.002 C 
ATOM     35  C   UNL     1       2.449   0.258   0.904  0.00  0.00    +0.004 C 
ENDBRANCH  32  34
ENDBRANCH   1  32
TORSDOF 7
