REMARK  Name = ZINC39659419
REMARK  9 active torsions:
REMARK  status: ('A' for Active; 'I' for Inactive)
REMARK    1  A    between atoms: C_1  and  C_2
REMARK    2  A    between atoms: C_2  and  C_34
REMARK    3  A    between atoms: C_5  and  C_8
REMARK    4  A    between atoms: C_8  and  N_9
REMARK    5  A    between atoms: C_10  and  C_12
REMARK    6  A    between atoms: C_23  and  C_25
REMARK    7  A    between atoms: C_29  and  N_31
REMARK    8  A    between atoms: N_31  and  C_32
REMARK    9  A    between atoms: N_31  and  C_33
REMARK                            x       y       z     vdW  Elec       q    Type
REMARK                         _______ _______ _______ _____ _____    ______ ____
ROOT
ATOM      1  C   UNL     1       3.280  -2.889   4.706  0.00  0.00    +0.100 C 
ATOM      2  C   UNL     1       4.393  -1.841   4.476  0.00  0.00    +0.121 C 
ATOM      3  N   UNL     1       5.511  -2.287   5.340  0.00  0.00    -0.296 N 
ATOM      4  C   UNL     1       5.511  -3.764   5.211  0.00  0.00    +0.115 C 
ATOM      5  C   UNL     1       4.018  -4.149   5.188  0.00  0.00    -0.004 C 
ATOM      6  C   UNL     1       3.786  -5.301   4.214  0.00  0.00    -0.010 C 
ATOM      7  C   UNL     1       4.481  -6.559   4.744  0.00  0.00    -0.082 C 
ATOM      8  N   UNL     1       3.944  -6.895   6.069  0.00  0.00    +0.379 N 
ATOM      9  C   UNL     1       4.254  -5.822   7.021  0.00  0.00    -0.082 C 
ATOM     10  C   UNL     1       3.550  -4.533   6.588  0.00  0.00    -0.010 C 
ATOM     11  C   UNL     1       6.341  -1.523   6.077  0.00  0.00    +0.247 C 
ATOM     12  O   UNL     1       6.135  -0.330   6.184  0.00  0.00    -0.270 OA
ATOM     13  H   UNL     1       2.944  -7.009   6.006  0.00  0.00    -0.086 HD
ATOM     14  H   UNL     1       4.359  -7.757   6.389  0.00  0.00    -0.086 HD
ENDROOT
BRANCH  11  15
ATOM     15  C   UNL     1       7.503  -2.135   6.756  0.00  0.00    +0.039 A 
ATOM     16  C   UNL     1       7.996  -3.368   6.325  0.00  0.00    +0.013 A 
ATOM     17  C   UNL     1       9.080  -3.938   6.961  0.00  0.00    +0.003 A 
ATOM     18  C   UNL     1       9.682  -3.293   8.025  0.00  0.00    +0.023 A 
ATOM     19  C   UNL     1       9.198  -2.065   8.462  0.00  0.00    +0.030 A 
ATOM     20  C   UNL     1       8.113  -1.481   7.826  0.00  0.00    +0.036 A 
BRANCH  19  21
ATOM     21  N   UNL     1       9.809  -1.417   9.538  0.00  0.00    -0.336 N 
ATOM     22  C   UNL     1      10.866  -2.092  10.296  0.00  0.00    +0.129 C 
ATOM     23  C   UNL     1       9.393  -0.062   9.909  0.00  0.00    +0.129 C 
ENDBRANCH  19  21
ENDBRANCH  11  15
BRANCH   1  25
ATOM     24  N   UNL     1       1.299  -3.672   3.449  0.00  0.00    -0.312 N 
ATOM     25  C   UNL     1       2.549  -3.168   3.419  0.00  0.00    +0.218 C 
ATOM     26  O   UNL     1       3.084  -2.940   2.355  0.00  0.00    -0.275 OA
ATOM     27  H   UNL     1       0.871  -3.854   4.300  0.00  0.00    +0.149 HD
BRANCH  24  28
ATOM     28  C   UNL     1       0.588  -3.944   2.198  0.00  0.00    +0.138 C 
BRANCH  28  33
ATOM     29  C   UNL     1      -3.981  -3.914   3.592  0.00  0.00    +0.074 C 
ATOM     30  C   UNL     1      -2.959  -3.668   2.481  0.00  0.00    +0.165 C 
ATOM     31  O   UNL     1      -2.919  -4.804   1.601  0.00  0.00    -0.347 OA
ATOM     32  C   UNL     1      -1.530  -4.921   1.210  0.00  0.00    +0.196 C 
ATOM     33  C   UNL     1      -0.800  -4.506   2.512  0.00  0.00    +0.164 C 
ATOM     34  O   UNL     1      -1.658  -3.482   3.055  0.00  0.00    -0.342 OA
ATOM     35  C   UNL     1      -3.353  -2.421   1.687  0.00  0.00    +0.074 C 
ENDBRANCH  28  33
ENDBRANCH  24  28
ENDBRANCH   1  25
TORSDOF 5
