REMARK  Name = ZINC08559751
REMARK  3 active torsions:
REMARK  status: ('A' for Active; 'I' for Inactive)
REMARK    1  A    between atoms: C_1  and  C_2
REMARK    2  A    between atoms: C_7  and  C_24
REMARK    3  A    between atoms: C_13  and  C_18
REMARK                            x       y       z     vdW  Elec       q    Type
REMARK                         _______ _______ _______ _____ _____    ______ ____
ROOT
ATOM      1  C   UNL     1       0.002  -0.004   0.002  0.00  0.00    +0.090 C 
ATOM      2  C   UNL     1      -0.018   1.503   0.010  0.00  0.00    +0.150 A 
ATOM      3  N   UNL     1      -1.118   2.262   0.019  0.00  0.00    -0.198 NA
ATOM      4  C   UNL     1      -0.779   3.522   0.030  0.00  0.00    +0.219 A 
ATOM      5  N   UNL     1       0.576   3.591   0.014  0.00  0.00    -0.221 N 
ATOM      6  N   UNL     1       1.039   2.276   0.004  0.00  0.00    -0.153 NA
ATOM      7  C   UNL     1       1.315   4.847   0.006  0.00  0.00    +0.175 C 
ATOM      8  C   UNL     1       0.391   5.993   0.356  0.00  0.00    +0.041 C 
ATOM      9  C   UNL     1      -0.952   5.860   0.353  0.00  0.00    +0.020 C 
ATOM     10  N   UNL     1      -1.561   4.665   0.051  0.00  0.00    -0.287 N 
ATOM     11  C   UNL     1      -1.849   7.028   0.691  0.00  0.00    +0.060 C 
ATOM     12  C   UNL     1      -1.145   7.943   1.695  0.00  0.00    +0.032 C 
ATOM     13  C   UNL     1       0.172   8.419   1.073  0.00  0.00    +0.088 C 
ATOM     14  C   UNL     1       0.994   7.220   0.691  0.00  0.00    +0.164 C 
ATOM     15  O   UNL     1       2.205   7.312   0.672  0.00  0.00    -0.292 OA
ATOM     16  H   UNL     1      -2.511   4.624  -0.142  0.00  0.00    +0.155 HD
ENDROOT
BRANCH   7  17
ATOM     17  C   UNL     1       1.898   5.075  -1.365  0.00  0.00    -0.018 A 
ATOM     18  C   UNL     1       1.064   5.164  -2.464  0.00  0.00    +0.007 A 
ATOM     19  C   UNL     1       1.598   5.379  -3.721  0.00  0.00    +0.020 A 
ATOM     20  C   UNL     1       2.967   5.495  -3.880  0.00  0.00    +0.041 A 
ATOM     21  C   UNL     1       3.801   5.400  -2.780  0.00  0.00    +0.020 A 
ATOM     22  C   UNL     1       3.266   5.190  -1.523  0.00  0.00    +0.007 A 
ATOM     23 CL   UNL     1       3.639   5.757  -5.459  0.00  0.00    -0.084 Cl
ENDBRANCH   7  17
BRANCH  12  24
ATOM     24  C   UNL     1      -2.021   9.131   2.000  0.00  0.00    -0.044 A 
ATOM     25  C   UNL     1      -2.418   9.977   0.982  0.00  0.00    +0.004 A 
ATOM     26  C   UNL     1      -3.225  11.064   1.261  0.00  0.00    +0.000 A 
ATOM     27  C   UNL     1      -3.627  11.310   2.561  0.00  0.00    +0.000 A 
ATOM     28  C   UNL     1      -3.227  10.467   3.580  0.00  0.00    +0.000 A 
ATOM     29  C   UNL     1      -2.423   9.377   3.300  0.00  0.00    +0.004 A 
ENDBRANCH  12  24
TORSDOF 2
