REMARK  Name = ZINC09935901
REMARK  8 active torsions:
REMARK  status: ('A' for Active; 'I' for Inactive)
REMARK    1  A    between atoms: C_1  and  C_2
REMARK    2  A    between atoms: C_2  and  C_3
REMARK    3  A    between atoms: C_8  and  N_9
REMARK    4  A    between atoms: C_10  and  C_12
REMARK    5  A    between atoms: C_12  and  N_13
REMARK    6  A    between atoms: N_16  and  C_17
REMARK    7  A    between atoms: C_17  and  C_19
REMARK    8  A    between atoms: C_17  and  C_25
REMARK                            x       y       z     vdW  Elec       q    Type
REMARK                         _______ _______ _______ _____ _____    ______ ____
ROOT
ATOM      1  N   UNL     1       4.517   4.947  -2.294  0.00  0.00    -0.291 N 
ATOM      2  C   UNL     1       4.636   3.870  -1.492  0.00  0.00    +0.300 C 
ATOM      3  O   UNL     1       5.732   3.389  -1.279  0.00  0.00    -0.253 OA
ATOM      4  N   UNL     1       3.540   3.328  -0.926  0.00  0.00    -0.292 N 
ATOM      5  H   UNL     1       3.643   5.331  -2.464  0.00  0.00    +0.151 HD
ATOM      6  H   UNL     1       2.666   3.711  -1.096  0.00  0.00    +0.151 HD
ENDROOT
BRANCH   1   7
ATOM      7  C   UNL     1       5.708   5.537  -2.910  0.00  0.00    +0.202 C 
BRANCH   7   9
ATOM      8  N   UNL     1       6.242   7.423  -4.419  0.00  0.00    -0.284 N 
ATOM      9  C   UNL     1       5.305   6.719  -3.753  0.00  0.00    +0.234 C 
ATOM     10  O   UNL     1       4.137   7.037  -3.832  0.00  0.00    -0.274 OA
ATOM     11  H   UNL     1       7.182   7.219  -4.293  0.00  0.00    +0.155 HD
BRANCH   8  17
ATOM     12  C   UNL     1       6.738   9.481  -5.580  0.00  0.00    -0.026 A 
ATOM     13  C   UNL     1       6.357  10.491  -6.443  0.00  0.00    +0.005 A 
ATOM     14  C   UNL     1       5.100  10.472  -7.019  0.00  0.00    +0.000 A 
ATOM     15  C   UNL     1       4.221   9.442  -6.734  0.00  0.00    +0.002 A 
ATOM     16  C   UNL     1       4.598   8.428  -5.876  0.00  0.00    +0.023 A 
ATOM     17  C   UNL     1       5.858   8.447  -5.292  0.00  0.00    +0.037 A 
BRANCH  12  19
ATOM     18  C   UNL     1       9.066   8.651  -5.791  0.00  0.00    +0.009 C 
ATOM     19  C   UNL     1       8.109   9.502  -4.954  0.00  0.00    +0.033 C 
ENDBRANCH  12  19
ENDBRANCH   8  17
ENDBRANCH   7   9
ENDBRANCH   1   7
BRANCH   4  20
ATOM     20  C   UNL     1       3.669   2.157  -0.054  0.00  0.00    +0.108 C 
BRANCH  20  21
ATOM     21  C   UNL     1       2.373   1.390  -0.048  0.00  0.00    -0.027 A 
ATOM     22  C   UNL     1       1.168   2.068  -0.023  0.00  0.00    +0.005 A 
ATOM     23  C   UNL     1      -0.021   1.363  -0.017  0.00  0.00    +0.000 A 
ATOM     24  C   UNL     1      -0.006  -0.019  -0.035  0.00  0.00    +0.000 A 
ATOM     25  C   UNL     1       1.198  -0.697  -0.058  0.00  0.00    +0.000 A 
ATOM     26  C   UNL     1       2.388   0.007  -0.065  0.00  0.00    +0.005 A 
ENDBRANCH  20  21
BRANCH  20  27
ATOM     27  C   UNL     1       3.998   2.615   1.369  0.00  0.00    +0.014 C 
ATOM     28  C   UNL     1       3.924   4.115   1.663  0.00  0.00    +0.006 C 
ATOM     29  C   UNL     1       5.284   3.418   1.573  0.00  0.00    +0.006 C 
ENDBRANCH  20  27
ENDBRANCH   4  20
TORSDOF 7
