REMARK  Name = ZINC05343562
REMARK  7 active torsions:
REMARK  status: ('A' for Active; 'I' for Inactive)
REMARK    1  A    between atoms: C_1  and  C_2
REMARK    2  A    between atoms: C_5  and  C_10
REMARK    3  A    between atoms: C_6  and  O_9
REMARK    4  A    between atoms: C_7  and  C_8
REMARK    5  A    between atoms: C_12  and  C_16
REMARK    6  A    between atoms: N_18  and  C_19
REMARK    7  A    between atoms: C_24  and  C_25
REMARK                            x       y       z     vdW  Elec       q    Type
REMARK                         _______ _______ _______ _____ _____    ______ ____
ROOT
ATOM      1  C   UNL     1       0.037  -4.256  -0.013  0.00  0.00    +0.070 A 
ATOM      2  C   UNL     1      -0.650  -5.073  -0.868  0.00  0.00    +0.062 A 
ATOM      3  C   UNL     1      -0.301  -6.389  -0.492  0.00  0.00    +0.148 A 
ATOM      4  N   UNL     1       0.538  -6.298   0.521  0.00  0.00    -0.169 NA
ATOM      5  N   UNL     1       0.754  -5.067   0.816  0.00  0.00    -0.276 N 
ATOM      6  H   UNL     1       1.340  -4.760   1.526  0.00  0.00    +0.189 HD
ENDROOT
BRANCH   1  11
ATOM      7  C   UNL     1      -0.065   1.502   0.052  0.00  0.00    +0.044 C 
ATOM      8  C   UNL     1      -0.038  -0.005   0.038  0.00  0.00    -0.044 A 
ATOM      9  C   UNL     1      -0.025  -0.682  -1.169  0.00  0.00    +0.004 A 
ATOM     10  C   UNL     1      -0.000  -2.062  -1.192  0.00  0.00    +0.014 A 
ATOM     11  C   UNL     1       0.011  -2.777   0.005  0.00  0.00    +0.041 A 
ATOM     12  C   UNL     1      -0.003  -2.089   1.224  0.00  0.00    +0.129 A 
ATOM     13  C   UNL     1      -0.021  -0.704   1.230  0.00  0.00    -0.005 A 
ATOM     14  C   UNL     1      -0.030   0.043   2.540  0.00  0.00    +0.048 C 
BRANCH  12  15
ATOM     15  O   UNL     1       0.008  -2.776   2.395  0.00  0.00    -0.506 OA
ATOM     16  H   UNL     1       0.894  -2.960   2.735  0.00  0.00    +0.292 HD
ENDBRANCH  12  15
ENDBRANCH   1  11
BRANCH   3  17
ATOM     17  C   UNL     1      -0.786  -7.635  -1.119  0.00  0.00    +0.268 C 
ATOM     18  O   UNL     1      -1.563  -7.584  -2.053  0.00  0.00    -0.268 OA
ATOM     19  N   UNL     1      -0.367  -8.830  -0.655  0.00  0.00    -0.280 N 
ATOM     20  H   UNL     1       0.312  -8.870   0.036  0.00  0.00    +0.155 HD
BRANCH  19  21
ATOM     21  C   UNL     1      -0.913 -10.010  -1.169  0.00  0.00    +0.038 A 
ATOM     22  C   UNL     1      -2.181 -10.001  -1.736  0.00  0.00    +0.023 A 
ATOM     23  C   UNL     1      -2.718 -11.168  -2.244  0.00  0.00    +0.003 A 
ATOM     24  C   UNL     1      -1.995 -12.345  -2.188  0.00  0.00    +0.020 A 
ATOM     25  C   UNL     1      -0.731 -12.358  -1.624  0.00  0.00    +0.046 A 
ATOM     26  C   UNL     1      -0.186 -11.192  -1.120  0.00  0.00    -0.011 A 
ATOM     27  C   UNL     1       1.193 -11.205  -0.512  0.00  0.00    +0.047 C 
ATOM     28 CL   UNL     1       0.173 -13.838  -1.556  0.00  0.00    -0.083 Cl
ENDBRANCH  19  21
ENDBRANCH   3  17
TORSDOF 4
