REMARK  Name = ZINC39500601
REMARK  14 active torsions:
REMARK  status: ('A' for Active; 'I' for Inactive)
REMARK    1  A    between atoms: C_1  and  C_2
REMARK    2  A    between atoms: C_2  and  O_3
REMARK    3  A    between atoms: O_3  and  C_4
REMARK    4  A    between atoms: C_4  and  C_6
REMARK    5  A    between atoms: N_10  and  C_31
REMARK    6  A    between atoms: C_11  and  C_13
REMARK    7  A    between atoms: C_13  and  N_14
REMARK    8  A    between atoms: N_14  and  C_15
REMARK    9  A    between atoms: N_14  and  C_16
REMARK   10  A    between atoms: C_16  and  C_18
REMARK   11  A    between atoms: C_16  and  C_19
REMARK   12  A    between atoms: C_22  and  C_25
REMARK   13  A    between atoms: C_34  and  C_38
REMARK   14  A    between atoms: C_36  and  C_37
REMARK                            x       y       z     vdW  Elec       q    Type
REMARK                         _______ _______ _______ _____ _____    ______ ____
ROOT
ATOM      1  C   UNL     1       1.680  -2.776  -3.111  0.00  0.00    +0.072 C 
ATOM      2  H   UNL     1       2.955  -4.662  -5.305  0.00  0.00    +0.169 HD
ATOM      3  C   UNL     1       1.966  -3.992  -3.617  0.00  0.00    +0.100 C 
ATOM      4  N   UNL     1       2.655  -3.901  -4.783  0.00  0.00    -0.270 N 
ATOM      5  N   UNL     1       2.876  -2.563  -5.133  0.00  0.00    -0.248 N 
ATOM      6  C   UNL     1       2.251  -1.755  -4.072  0.00  0.00    +0.116 C 
ENDROOT
BRANCH   5   7
ATOM      7  C   UNL     1       3.547  -2.090  -6.262  0.00  0.00    +0.051 A 
ATOM      8  C   UNL     1       2.923  -1.192  -7.119  0.00  0.00    +0.025 A 
ATOM      9  C   UNL     1       3.590  -0.726  -8.234  0.00  0.00    +0.005 A 
ATOM     10  C   UNL     1       4.879  -1.153  -8.500  0.00  0.00    -0.050 A 
ATOM     11  C   UNL     1       5.503  -2.048  -7.650  0.00  0.00    +0.008 A 
ATOM     12  C   UNL     1       4.843  -2.513  -6.529  0.00  0.00    -0.028 A 
ATOM     13  C   UNL     1       5.527  -3.482  -5.599  0.00  0.00    +0.046 C 
ATOM     14  C   UNL     1       5.604  -0.644  -9.719  0.00  0.00    +0.044 C 
ENDBRANCH   5   7
BRANCH   1  15
ATOM     15  C   UNL     1       0.977  -2.506  -1.917  0.00  0.00    +0.338 C 
ATOM     16  O   UNL     1       0.568  -3.424  -1.231  0.00  0.00    -0.245 OA
BRANCH  15  17
ATOM     17  O   UNL     1       0.759  -1.229  -1.536  0.00  0.00    -0.462 OA
BRANCH  17  19
ATOM     18  C   UNL     1      -0.108   0.470  -0.052  0.00  0.00    +0.048 C 
ATOM     19  C   UNL     1       0.041  -1.030  -0.317  0.00  0.00    +0.229 C 
ENDBRANCH  17  19
ENDBRANCH  15  17
ENDBRANCH   1  15
BRANCH   6  20
ATOM     20  C   UNL     1       3.303  -0.891  -3.372  0.00  0.00    -0.049 C 
BRANCH  20  21
ATOM     21  N   UNL     1       3.951  -0.015  -4.356  0.00  0.00    +0.383 N 
ATOM     22  C   UNL     1       2.965   0.932  -4.893  0.00  0.00    -0.096 C 
ATOM     23  H   UNL     1       4.325  -0.574  -5.109  0.00  0.00    -0.082 HD
BRANCH  21  24
ATOM     24  C   UNL     1       5.041   0.727  -3.709  0.00  0.00    -0.041 C 
ATOM     25  C   UNL     1       4.488   1.507  -2.514  0.00  0.00    -0.011 C 
BRANCH  24  26
ATOM     26  C   UNL     1       6.110  -0.255  -3.225  0.00  0.00    +0.139 C 
ATOM     27  C   UNL     1       7.353   0.487  -2.768  0.00  0.00    +0.030 C 
ATOM     28  C   UNL     1       8.317   0.044  -3.598  0.00  0.00    +0.091 C 
ATOM     29  N   UNL     1       7.808  -0.857  -4.478  0.00  0.00    -0.154 NA
ATOM     30  N   UNL     1       6.600  -1.081  -4.342  0.00  0.00    -0.181 NA
BRANCH  28  31
ATOM     31  C   UNL     1       9.735   0.479  -3.556  0.00  0.00    +0.002 A 
ATOM     32  C   UNL     1      10.155   1.408  -2.606  0.00  0.00    +0.010 A 
ATOM     33  C   UNL     1      11.475   1.808  -2.572  0.00  0.00    +0.001 A 
ATOM     34  C   UNL     1      12.381   1.289  -3.479  0.00  0.00    +0.000 A 
ATOM     35  C   UNL     1      11.971   0.367  -4.424  0.00  0.00    +0.001 A 
ATOM     36  C   UNL     1      10.654  -0.044  -4.464  0.00  0.00    +0.010 A 
ENDBRANCH  28  31
ENDBRANCH  24  26
ENDBRANCH  21  24
ENDBRANCH  20  21
ENDBRANCH   6  20
TORSDOF 9
