REMARK  Name = ZINC57134927
REMARK  6 active torsions:
REMARK  status: ('A' for Active; 'I' for Inactive)
REMARK    1  A    between atoms: C_1  and  C_2
REMARK    2  A    between atoms: C_3  and  C_22
REMARK    3  A    between atoms: N_14  and  C_17
REMARK    4  A    between atoms: C_17  and  C_18
REMARK    5  A    between atoms: C_18  and  C_19
REMARK    6  A    between atoms: C_19  and  O_20
REMARK                            x       y       z     vdW  Elec       q    Type
REMARK                         _______ _______ _______ _____ _____    ______ ____
ROOT
ATOM      1  C   UNL     1      -0.018   1.503   0.010  0.00  0.00    +0.045 C 
ATOM      2  C   UNL     1       0.002  -0.004   0.002  0.00  0.00    -0.030 A 
ATOM      3  C   UNL     1       0.006  -0.696  -1.167  0.00  0.00    +0.037 A 
ATOM      4  C   UNL     1       0.026  -2.105  -1.148  0.00  0.00    +0.340 A 
ATOM      5  O   UNL     1       0.029  -2.713  -2.204  0.00  0.00    -0.245 OA
ATOM      6  O   UNL     1       0.043  -2.795   0.003  0.00  0.00    -0.422 OA
ATOM      7  C   UNL     1       0.038  -2.169   1.200  0.00  0.00    +0.147 A 
ATOM      8  C   UNL     1       0.024  -0.763   1.254  0.00  0.00    +0.023 A 
ATOM      9  C   UNL     1       0.027  -0.112   2.493  0.00  0.00    +0.035 A 
ATOM     10  C   UNL     1       0.047  -0.845   3.643  0.00  0.00    +0.084 A 
ATOM     11  C   UNL     1       0.065  -2.241   3.597  0.00  0.00    +0.149 A 
ATOM     12  C   UNL     1       0.049  -2.900   2.380  0.00  0.00    +0.053 A 
ATOM     13  C   UNL     1       0.059  -4.406   2.316  0.00  0.00    +0.130 C 
ATOM     14  N   UNL     1       0.481  -4.952   3.613  0.00  0.00    -0.266 NA
ATOM     15  C   UNL     1      -0.286  -4.323   4.701  0.00  0.00    +0.318 C 
ATOM     16  O   UNL     1       0.087  -2.938   4.763  0.00  0.00    -0.475 OA
ATOM     17 CL   UNL     1       0.052  -0.036   5.179  0.00  0.00    -0.080 Cl
ATOM     18  C   UNL     1      -0.011   0.042  -2.481  0.00  0.00    +0.051 C 
ENDROOT
BRANCH  14  19
ATOM     19  C   UNL     1       0.333  -6.413   3.642  0.00  0.00    +0.090 C 
BRANCH  19  20
ATOM     20  C   UNL     1       1.006  -6.970   4.898  0.00  0.00    +0.043 C 
BRANCH  20  21
ATOM     21  C   UNL     1       0.853  -8.492   4.928  0.00  0.00    +0.157 C 
BRANCH  21  22
ATOM     22  O   UNL     1       1.482  -9.011   6.101  0.00  0.00    -0.395 OA
ATOM     23  H   UNL     1       1.423  -9.972   6.186  0.00  0.00    +0.209 HD
ENDBRANCH  21  22
ENDBRANCH  20  21
ENDBRANCH  19  20
ENDBRANCH  14  19
TORSDOF 4
