REMARK  Name = ZINC03179903
REMARK  8 active torsions:
REMARK  status: ('A' for Active; 'I' for Inactive)
REMARK    1  A    between atoms: C_1  and  C_2
REMARK    2  A    between atoms: C_2  and  C_3
REMARK    3  A    between atoms: C_2  and  N_4
REMARK    4  A    between atoms: N_4  and  S_29
REMARK    5  A    between atoms: C_8  and  C_10
REMARK    6  A    between atoms: C_11  and  N_23
REMARK    7  A    between atoms: C_13  and  C_14
REMARK    8  A    between atoms: S_29  and  C_32
REMARK                            x       y       z     vdW  Elec       q    Type
REMARK                         _______ _______ _______ _____ _____    ______ ____
ROOT
ATOM      1  C   UNL     1      -1.737   0.961   0.761  0.00  0.00    +0.036 C 
ATOM      2  C   UNL     1      -0.608   0.508   1.403  0.00  0.00    +0.041 C 
ATOM      3  C   UNL     1      -0.300  -0.927   1.421  0.00  0.00    -0.025 C 
ATOM      4  C   UNL     1       0.904  -1.378   1.831  0.00  0.00    +0.013 C 
ATOM      5  C   UNL     1      -1.381  -1.885   0.965  0.00  0.00    +0.037 C 
ATOM      6  C   UNL     1      -2.029  -1.285  -0.290  0.00  0.00    +0.010 C 
ATOM      7  C   UNL     1      -2.700   0.038   0.073  0.00  0.00    +0.042 C 
ENDROOT
BRANCH   1  12
ATOM      8  N   UNL     1      -4.565   4.590  -0.279  0.00  0.00    -0.157 N 
ATOM      9  C   UNL     1      -3.383   4.132   0.179  0.00  0.00    +0.328 C 
ATOM     10  O   UNL     1      -2.542   4.913   0.579  0.00  0.00    -0.251 OA
ATOM     11  N   UNL     1      -3.135   2.807   0.195  0.00  0.00    -0.235 N 
ATOM     12  C   UNL     1      -1.996   2.341   0.745  0.00  0.00    +0.249 C 
ATOM     13  O   UNL     1      -1.191   3.118   1.229  0.00  0.00    -0.270 OA
ATOM     14  H   UNL     1      -3.776   2.189  -0.190  0.00  0.00    +0.159 HD
BRANCH   8  15
ATOM     15  S   UNL     1      -4.825   6.220  -0.411  0.00  0.00    +0.046 S 
ATOM     16  O   UNL     1      -6.234   6.372  -0.310  0.00  0.00    -0.155 OA
ATOM     17  O   UNL     1      -3.962   6.805   0.555  0.00  0.00    -0.155 OA
ATOM     18  C   UNL     1      -4.269   6.647  -2.085  0.00  0.00    +0.219 C 
ENDBRANCH   8  15
BRANCH   8  20
ATOM     19  C   UNL     1      -5.157   2.826  -1.865  0.00  0.00    +0.030 C 
ATOM     20  C   UNL     1      -5.619   3.647  -0.660  0.00  0.00    +0.096 C 
ATOM     21  C   UNL     1      -5.913   2.710   0.513  0.00  0.00    +0.030 C 
ENDBRANCH   8  20
ENDBRANCH   1  12
BRANCH   4  22
ATOM     22  C   UNL     1       1.134  -2.823   1.990  0.00  0.00    -0.025 A 
ATOM     23  C   UNL     1       0.085  -3.663   2.377  0.00  0.00    +0.008 A 
ATOM     24  C   UNL     1       0.307  -5.016   2.519  0.00  0.00    +0.001 A 
ATOM     25  C   UNL     1       1.567  -5.542   2.290  0.00  0.00    +0.000 A 
ATOM     26  C   UNL     1       2.611  -4.716   1.912  0.00  0.00    +0.001 A 
ATOM     27  C   UNL     1       2.404  -3.361   1.761  0.00  0.00    +0.008 A 
ENDBRANCH   4  22
BRANCH   2  28
ATOM     28  N   UNL     1       0.235   1.402   2.028  0.00  0.00    -0.325 N 
ATOM     29  C   UNL     1       0.003   1.814   3.422  0.00  0.00    +0.133 C 
ATOM     30  C   UNL     1       1.317   1.638   4.199  0.00  0.00    +0.178 C 
ATOM     31  O   UNL     1       2.367   2.314   3.503  0.00  0.00    -0.377 OA
ATOM     32  C   UNL     1       2.633   1.796   2.197  0.00  0.00    +0.178 C 
ATOM     33  C   UNL     1       1.389   1.976   1.320  0.00  0.00    +0.133 C 
ENDBRANCH   2  28
TORSDOF 5
