REMARK  Name = ZINC23876184
REMARK  11 active torsions:
REMARK  status: ('A' for Active; 'I' for Inactive)
REMARK    1  A    between atoms: C_1  and  C_2
REMARK    2  A    between atoms: C_2  and  C_4
REMARK    3  A    between atoms: C_2  and  S_15
REMARK    4  A    between atoms: N_6  and  C_7
REMARK    5  A    between atoms: N_11  and  C_12
REMARK    6  A    between atoms: C_12  and  C_13
REMARK    7  A    between atoms: C_12  and  C_14
REMARK    8  A    between atoms: S_15  and  C_16
REMARK    9  A    between atoms: C_19  and  C_24
REMARK   10  A    between atoms: N_20  and  C_21
REMARK   11  A    between atoms: C_21  and  C_22
REMARK                            x       y       z     vdW  Elec       q    Type
REMARK                         _______ _______ _______ _____ _____    ______ ____
ROOT
ATOM      1  S   UNL     1      -1.552  -0.620  -0.223  0.00  0.00    -0.073 S 
ENDROOT
BRANCH   1   2
ATOM      2  C   UNL     1      -2.349  -0.041  -1.684  0.00  0.00    +0.193 A 
ATOM      3  N   UNL     1      -1.986   0.990  -2.414  0.00  0.00    -0.122 NA
ATOM      4  N   UNL     1      -2.788   1.131  -3.409  0.00  0.00    -0.128 NA
ATOM      5  C   UNL     1      -3.711   0.199  -3.375  0.00  0.00    +0.165 A 
ATOM      6  N   UNL     1      -3.456  -0.584  -2.272  0.00  0.00    -0.298 N 
BRANCH   5   7
ATOM      7  C   UNL     1      -4.815   0.020  -4.342  0.00  0.00    +0.019 A 
ATOM      8  C   UNL     1      -6.050  -0.469  -3.913  0.00  0.00    +0.013 A 
ATOM      9  C   UNL     1      -7.076  -0.633  -4.821  0.00  0.00    +0.021 A 
ATOM     10  C   UNL     1      -6.882  -0.315  -6.154  0.00  0.00    +0.041 A 
ATOM     11  C   UNL     1      -5.659   0.169  -6.586  0.00  0.00    +0.021 A 
ATOM     12  C   UNL     1      -4.627   0.344  -5.687  0.00  0.00    +0.013 A 
ATOM     13 CL   UNL     1      -8.178  -0.525  -7.290  0.00  0.00    -0.084 Cl
ENDBRANCH   5   7
BRANCH   6  14
ATOM     14  C   UNL     1      -4.214  -1.753  -1.821  0.00  0.00    +0.152 C 
BRANCH  14  15
ATOM     15  C   UNL     1      -5.201  -1.334  -0.762  0.00  0.00    -0.013 C 
ATOM     16  C   UNL     1      -6.468  -1.640  -0.889  0.00  0.00    +0.005 C 
ENDBRANCH  14  15
ENDBRANCH   6  14
ENDBRANCH   1   2
BRANCH   1  18
ATOM     17  C   UNL     1      -0.712   1.931   0.294  0.00  0.00    +0.029 C 
ATOM     18  C   UNL     1      -0.168   0.530   0.007  0.00  0.00    +0.137 C 
BRANCH  18  19
ATOM     19  C   UNL     1       0.679   0.073   1.166  0.00  0.00    +0.231 C 
ATOM     20  O   UNL     1       0.216  -0.685   1.993  0.00  0.00    -0.274 OA
ATOM     21  N   UNL     1       1.950   0.505   1.285  0.00  0.00    -0.270 N 
ATOM     22  H   UNL     1       2.319   1.111   0.624  0.00  0.00    +0.156 HD
BRANCH  21  23
ATOM     23  C   UNL     1       2.733   0.081   2.358  0.00  0.00    +0.123 A 
ATOM     24  C   UNL     1       2.347  -0.767   3.350  0.00  0.00    +0.065 A 
ATOM     25  C   UNL     1       3.429  -0.928   4.220  0.00  0.00    +0.136 A 
ATOM     26  N   UNL     1       4.426  -0.208   3.775  0.00  0.00    -0.178 NA
ATOM     27  N   UNL     1       4.016   0.434   2.599  0.00  0.00    -0.248 N 
BRANCH  27  28
ATOM     28  C   UNL     1       4.832   1.332   1.778  0.00  0.00    +0.103 C 
ATOM     29  C   UNL     1       5.275   2.531   2.620  0.00  0.00    +0.032 C 
ATOM     30  C   UNL     1       6.065   0.581   1.272  0.00  0.00    +0.032 C 
ENDBRANCH  27  28
ENDBRANCH  21  23
ENDBRANCH  18  19
ENDBRANCH   1  18
TORSDOF 8
