REMARK  Name = ZINC63376056
REMARK  4 active torsions:
REMARK  status: ('A' for Active; 'I' for Inactive)
REMARK    1  A    between atoms: C_5  and  C_7
REMARK    2  A    between atoms: C_7  and  C_8
REMARK    3  A    between atoms: C_8  and  N_9
REMARK    4  A    between atoms: C_10  and  C_12
REMARK                            x       y       z     vdW  Elec       q    Type
REMARK                         _______ _______ _______ _____ _____    ______ ____
ROOT
ATOM      1  C   UNL     1       1.536  -6.353   2.551  0.00  0.00    +0.167 C 
ATOM      2  C   UNL     1       0.170  -6.889   2.081  0.00  0.00    +0.065 C 
ATOM      3  C   UNL     1      -0.358  -7.775   3.182  0.00  0.00    -0.034 C 
ATOM      4  C   UNL     1      -1.536  -7.775   3.799  0.00  0.00    -0.001 A 
ATOM      5  C   UNL     1      -2.761  -6.992   3.568  0.00  0.00    +0.010 A 
ATOM      6  C   UNL     1      -3.798  -7.238   4.412  0.00  0.00    +0.001 A 
ATOM      7  C   UNL     1      -3.739  -8.172   5.451  0.00  0.00    +0.002 A 
ATOM      8  C   UNL     1      -2.656  -8.941   5.731  0.00  0.00    +0.026 A 
ATOM      9  C   UNL     1      -1.506  -8.779   4.906  0.00  0.00    +0.043 A 
ATOM     10  N   UNL     1      -0.358  -9.388   4.933  0.00  0.00    -0.375 N 
ATOM     11  C   UNL     1       0.455  -8.891   3.822  0.00  0.00    +0.131 C 
ATOM     12  C   UNL     1       1.769  -8.278   4.303  0.00  0.00    +0.134 C 
ATOM     13  N   UNL     1       1.780  -6.854   3.910  0.00  0.00    -0.276 N 
ATOM     14  C   UNL     1       2.031  -6.110   5.004  0.00  0.00    +0.248 C 
ATOM     15  O   UNL     1       2.221  -4.909   5.001  0.00  0.00    -0.270 OA
ATOM     16  C   UNL     1       2.039  -6.958   6.197  0.00  0.00    +0.042 A 
ATOM     17  C   UNL     1       1.878  -8.309   5.792  0.00  0.00    -0.013 A 
ATOM     18  C   UNL     1       1.845  -9.348   6.695  0.00  0.00    +0.006 A 
ATOM     19  C   UNL     1       1.984  -9.021   8.040  0.00  0.00    +0.000 A 
ATOM     20  C   UNL     1       2.152  -7.715   8.458  0.00  0.00    +0.001 A 
ATOM     21  C   UNL     1       2.183  -6.632   7.548  0.00  0.00    +0.013 A 
ATOM     22  H   UNL     1      -0.086 -10.058   5.580  0.00  0.00    +0.160 HD
ENDROOT
BRANCH   1  24
ATOM     23  N   UNL     1       2.281  -4.157   1.691  0.00  0.00    -0.313 N 
ATOM     24  C   UNL     1       1.516  -4.847   2.560  0.00  0.00    +0.234 C 
ATOM     25  O   UNL     1       0.811  -4.254   3.349  0.00  0.00    -0.274 OA
ATOM     26  H   UNL     1       2.845  -4.631   1.059  0.00  0.00    +0.149 HD
BRANCH  23  27
ATOM     27  C   UNL     1       2.262  -2.692   1.699  0.00  0.00    +0.109 C 
BRANCH  27  28
ATOM     28  C   UNL     1       3.212  -2.163   0.623  0.00  0.00    +0.056 C 
BRANCH  28  33
ATOM     29  C   UNL     1       2.342   1.411  -0.226  0.00  0.00    +0.000 A 
ATOM     30  C   UNL     1       3.155   2.109   0.647  0.00  0.00    +0.003 A 
ATOM     31  C   UNL     1       3.988   1.426   1.513  0.00  0.00    +0.038 A 
ATOM     32  C   UNL     1       4.007   0.042   1.506  0.00  0.00    +0.127 A 
ATOM     33  C   UNL     1       3.192  -0.657   0.632  0.00  0.00    -0.011 A 
ATOM     34  C   UNL     1       2.360   0.029  -0.234  0.00  0.00    +0.006 A 
ATOM     35  F   UNL     1       4.821  -0.627   2.352  0.00  0.00    -0.205 F 
ENDBRANCH  28  33
ENDBRANCH  27  28
ENDBRANCH  23  27
ENDBRANCH   1  24
TORSDOF 4
