REMARK  Name = ZINC17080537
REMARK  8 active torsions:
REMARK  status: ('A' for Active; 'I' for Inactive)
REMARK    1  A    between atoms: C_1  and  C_2
REMARK    2  A    between atoms: C_2  and  N_3
REMARK    3  A    between atoms: C_9  and  C_14
REMARK    4  A    between atoms: C_17  and  O_29
REMARK    5  A    between atoms: C_18  and  C_20
REMARK    6  A    between atoms: C_20  and  O_21
REMARK    7  A    between atoms: O_21  and  C_22
REMARK    8  A    between atoms: O_29  and  C_30
REMARK                            x       y       z     vdW  Elec       q    Type
REMARK                         _______ _______ _______ _____ _____    ______ ____
ROOT
ATOM      1  C   UNL     1       5.861  -1.745  -2.677  0.00  0.00    +0.018 A 
ATOM      2  C   UNL     1       6.955  -1.659  -1.813  0.00  0.00    +0.015 A 
ATOM      3  C   UNL     1       8.213  -1.995  -2.263  0.00  0.00    +0.047 A 
ATOM      4  C   UNL     1       8.394  -2.418  -3.574  0.00  0.00    +0.127 A 
ATOM      5  C   UNL     1       7.309  -2.505  -4.436  0.00  0.00    +0.032 A 
ATOM      6  C   UNL     1       6.046  -2.177  -3.992  0.00  0.00    +0.022 A 
ENDROOT
BRANCH   1  13
ATOM      7  N   UNL     1       0.688  -0.476  -1.203  0.00  0.00    -0.257 N 
ATOM      8  C   UNL     1       2.027  -0.726  -1.321  0.00  0.00    +0.151 A 
ATOM      9  C   UNL     1       2.248  -1.157  -2.636  0.00  0.00    +0.116 A 
ATOM     10  C   UNL     1       0.997  -1.153  -3.285  0.00  0.00    +0.163 A 
ATOM     11  N   UNL     1       0.086  -0.758  -2.437  0.00  0.00    -0.177 NA
ATOM     12  N   UNL     1       3.498  -1.474  -3.028  0.00  0.00    -0.226 NA
ATOM     13  C   UNL     1       4.510  -1.386  -2.199  0.00  0.00    +0.142 A 
ATOM     14  N   UNL     1       4.353  -0.971  -0.904  0.00  0.00    -0.305 N 
ATOM     15  H   UNL     1       5.123  -0.917  -0.318  0.00  0.00    +0.170 HD
ATOM     16  C   UNL     1       3.129  -0.636  -0.440  0.00  0.00    +0.278 A 
ATOM     17  O   UNL     1       2.978  -0.265   0.712  0.00  0.00    -0.265 OA
BRANCH   7  19
ATOM     18  C   UNL     1      -0.019   1.526   0.010  0.00  0.00    +0.029 C 
ATOM     19  C   UNL     1       0.002  -0.004   0.002  0.00  0.00    +0.141 C 
ENDBRANCH   7  19
ENDBRANCH   1  13
BRANCH   4  20
ATOM     20  O   UNL     1       9.636  -2.748  -4.013  0.00  0.00    -0.495 OA
ATOM     21  C   UNL     1      10.707  -2.636  -3.075  0.00  0.00    +0.277 C 
ENDBRANCH   4  20
BRANCH   5  22
ATOM     22  C   UNL     1       7.511  -2.965  -5.857  0.00  0.00    +0.268 C 
BRANCH  22  23
ATOM     23  O   UNL     1       6.255  -2.970  -6.539  0.00  0.00    -0.487 OA
BRANCH  23  24
ATOM     24  C   UNL     1       6.261  -3.363  -7.841  0.00  0.00    +0.121 A 
ATOM     25  C   UNL     1       7.452  -3.730  -8.449  0.00  0.00    +0.048 A 
ATOM     26  C   UNL     1       7.457  -4.135  -9.770  0.00  0.00    +0.042 A 
ATOM     27  C   UNL     1       6.274  -4.164 -10.490  0.00  0.00    +0.124 A 
ATOM     28  C   UNL     1       5.085  -3.792  -9.885  0.00  0.00    +0.042 A 
ATOM     29  C   UNL     1       5.077  -3.392  -8.563  0.00  0.00    +0.048 A 
ATOM     30  F   UNL     1       6.280  -4.555 -11.783  0.00  0.00    -0.205 F 
ENDBRANCH  23  24
ENDBRANCH  22  23
ENDBRANCH   5  22
TORSDOF 6
