REMARK  Name = ZINC29576153
REMARK  15 active torsions:
REMARK  status: ('A' for Active; 'I' for Inactive)
REMARK    1  A    between atoms: C_1  and  C_2
REMARK    2  A    between atoms: C_5  and  N_9
REMARK    3  A    between atoms: C_6  and  C_8
REMARK    4  A    between atoms: C_13  and  C_15
REMARK    5  A    between atoms: C_15  and  C_17
REMARK    6  A    between atoms: C_15  and  S_18
REMARK    7  A    between atoms: S_18  and  C_19
REMARK    8  A    between atoms: C_22  and  C_29
REMARK    9  A    between atoms: N_23  and  C_24
REMARK   10  A    between atoms: C_24  and  C_25
REMARK   11  A    between atoms: C_25  and  C_26
REMARK   12  A    between atoms: C_26  and  C_27
REMARK   13  A    between atoms: C_26  and  C_28
REMARK   14  A    between atoms: C_29  and  O_30
REMARK   15  A    between atoms: O_30  and  C_31
REMARK                            x       y       z     vdW  Elec       q    Type
REMARK                         _______ _______ _______ _____ _____    ______ ____
ROOT
ATOM      1  S   UNL     1       8.879  -2.849   1.467  0.00  0.00    -0.074 S 
ENDROOT
BRANCH   1   2
ATOM      2  C   UNL     1       7.696  -1.950   0.521  0.00  0.00    +0.192 A 
ATOM      3  N   UNL     1       7.625  -1.891  -0.788  0.00  0.00    -0.122 NA
ATOM      4  N   UNL     1       6.640  -1.144  -1.140  0.00  0.00    -0.130 NA
ATOM      5  C   UNL     1       6.028  -0.686  -0.085  0.00  0.00    +0.172 A 
ATOM      6  N   UNL     1       6.681  -1.179   1.011  0.00  0.00    -0.303 N 
BRANCH   6   7
ATOM      7  C   UNL     1       6.358  -0.932   2.419  0.00  0.00    +0.126 C 
BRANCH   7   8
ATOM      8  C   UNL     1       5.375  -1.997   2.910  0.00  0.00    +0.024 C 
BRANCH   8   9
ATOM      9  C   UNL     1       5.038  -1.740   4.380  0.00  0.00    -0.016 C 
ATOM     10  C   UNL     1       4.291  -0.411   4.507  0.00  0.00    +0.007 C 
ATOM     11  C   UNL     1       4.155  -2.874   4.907  0.00  0.00    +0.007 C 
ENDBRANCH   8   9
ENDBRANCH   7   8
ENDBRANCH   6   7
BRANCH   5  12
ATOM     12  C   UNL     1       4.826   0.223  -0.074  0.00  0.00    +0.305 C 
BRANCH  12  13
ATOM     13  O   UNL     1       3.633  -0.564  -0.075  0.00  0.00    -0.484 OA
BRANCH  13  14
ATOM     14  C   UNL     1       2.451   0.107  -0.066  0.00  0.00    +0.121 A 
ATOM     15  C   UNL     1       1.254  -0.594  -0.067  0.00  0.00    +0.045 A 
ATOM     16  C   UNL     1       0.054   0.091  -0.057  0.00  0.00    +0.004 A 
ATOM     17  C   UNL     1       0.046   1.473  -0.047  0.00  0.00    +0.000 A 
ATOM     18  C   UNL     1       1.238   2.174  -0.046  0.00  0.00    +0.004 A 
ATOM     19  C   UNL     1       2.440   1.495  -0.056  0.00  0.00    +0.045 A 
ENDBRANCH  13  14
ENDBRANCH  12  13
ENDBRANCH   5  12
ENDBRANCH   1   2
BRANCH   1  20
ATOM     20  C   UNL     1       9.857  -3.583   0.132  0.00  0.00    +0.137 C 
ATOM     21  C   UNL     1      10.563  -2.474  -0.651  0.00  0.00    +0.029 C 
BRANCH  20  26
ATOM     22  N   UNL     1      12.929  -7.255  -0.303  0.00  0.00    -0.269 N 
ATOM     23  C   UNL     1      12.366  -6.304   0.469  0.00  0.00    +0.310 C 
ATOM     24  O   UNL     1      12.687  -6.200   1.636  0.00  0.00    -0.252 OA
ATOM     25  N   UNL     1      11.447  -5.468  -0.054  0.00  0.00    -0.239 N 
ATOM     26  C   UNL     1      10.884  -4.517   0.717  0.00  0.00    +0.234 C 
ATOM     27  O   UNL     1      11.204  -4.414   1.882  0.00  0.00    -0.274 OA
ATOM     28  H   UNL     1      12.573  -7.409  -1.333  0.00  0.00    +0.156 HD
ATOM     29  H   UNL     1      11.157  -5.562  -1.111  0.00  0.00    +0.159 HD
BRANCH  22  34
ATOM     30  C   UNL     1      17.132 -10.459   1.758  0.00  0.00    +0.044 C 
ATOM     31  C   UNL     1      16.016  -9.608   1.210  0.00  0.00    -0.050 A 
ATOM     32  C   UNL     1      15.782  -8.352   1.740  0.00  0.00    +0.005 A 
ATOM     33  C   UNL     1      14.760  -7.570   1.241  0.00  0.00    +0.024 A 
ATOM     34  C   UNL     1      13.966  -8.045   0.205  0.00  0.00    +0.038 A 
ATOM     35  C   UNL     1      14.200  -9.308  -0.321  0.00  0.00    -0.029 A 
ATOM     36  C   UNL     1      15.228 -10.084   0.179  0.00  0.00    +0.008 A 
ATOM     37  C   UNL     1      13.337  -9.831  -1.441  0.00  0.00    +0.045 C 
ENDBRANCH  22  34
ENDBRANCH  20  26
ENDBRANCH   1  20
TORSDOF 10
