REMARK  Name = ZINC24716812
REMARK  9 active torsions:
REMARK  status: ('A' for Active; 'I' for Inactive)
REMARK    1  A    between atoms: C_1  and  C_2
REMARK    2  A    between atoms: C_2  and  N_3
REMARK    3  A    between atoms: N_3  and  C_4
REMARK    4  A    between atoms: N_3  and  C_11
REMARK    5  A    between atoms: C_4  and  C_5
REMARK    6  A    between atoms: C_11  and  C_12
REMARK    7  A    between atoms: C_21  and  C_23
REMARK    8  A    between atoms: C_26  and  O_29
REMARK    9  A    between atoms: O_29  and  C_30
REMARK                            x       y       z     vdW  Elec       q    Type
REMARK                         _______ _______ _______ _____ _____    ______ ____
ROOT
ATOM      1  C   UNL     1      -0.196   2.461   1.090  0.00  0.00    +0.094 A 
ATOM      2  N   UNL     1       0.556   2.484   2.222  0.00  0.00    -0.311 N 
ATOM      3  H   UNL     1       1.512   1.941   2.259  0.00  0.00    +0.170 HD
ATOM      4  C   UNL     1       0.117   3.181   3.297  0.00  0.00    +0.266 A 
ATOM      5  O   UNL     1       0.772   3.225   4.325  0.00  0.00    -0.267 OA
ATOM      6  C   UNL     1      -1.107   3.842   3.198  0.00  0.00    +0.102 A 
ATOM      7  C   UNL     1      -1.870   3.797   2.016  0.00  0.00    +0.086 A 
ATOM      8  N   UNL     1      -1.333   3.068   0.982  0.00  0.00    -0.235 NA
ATOM      9  C   UNL     1      -3.077   4.501   2.048  0.00  0.00    +0.044 A 
ATOM     10  C   UNL     1      -3.444   5.171   3.178  0.00  0.00    +0.022 A 
ATOM     11  S   UNL     1      -2.084   4.844   4.287  0.00  0.00    -0.081 S 
ENDROOT
BRANCH  10  12
ATOM     12  C   UNL     1      -4.664   5.969   3.423  0.00  0.00    -0.011 A 
ATOM     13  C   UNL     1      -5.620   6.114   2.416  0.00  0.00    +0.012 A 
ATOM     14  C   UNL     1      -6.758   6.855   2.650  0.00  0.00    +0.046 A 
ATOM     15  C   UNL     1      -6.950   7.466   3.882  0.00  0.00    +0.120 A 
ATOM     16  C   UNL     1      -5.999   7.329   4.885  0.00  0.00    +0.046 A 
ATOM     17  C   UNL     1      -4.861   6.585   4.660  0.00  0.00    +0.012 A 
BRANCH  15  18
ATOM     18  O   UNL     1      -8.070   8.201   4.106  0.00  0.00    -0.495 OA
ATOM     19  C   UNL     1      -9.007   8.301   3.032  0.00  0.00    +0.277 C 
ENDBRANCH  15  18
ENDBRANCH  10  12
BRANCH   1  20
ATOM     20  C   UNL     1       0.317   1.683  -0.095  0.00  0.00    -0.003 C 
BRANCH  20  21
ATOM     21  N   UNL     1      -0.645   1.784  -1.200  0.00  0.00    +0.387 N 
ATOM     22  H   UNL     1      -0.862   2.850  -1.363  0.00  0.00    -0.081 HD
BRANCH  21  24
ATOM     23  C   UNL     1      -1.639  -0.367  -0.581  0.00  0.00    -0.017 C 
ATOM     24  C   UNL     1      -1.907   1.113  -0.862  0.00  0.00    -0.081 C 
ENDBRANCH  21  24
BRANCH  21  25
ATOM     25  C   UNL     1      -0.078   1.244  -2.443  0.00  0.00    -0.035 C 
BRANCH  25  26
ATOM     26  C   UNL     1      -0.917   1.688  -3.613  0.00  0.00    -0.026 A 
ATOM     27  C   UNL     1      -0.856   2.846  -4.315  0.00  0.00    +0.010 A 
ATOM     28  C   UNL     1      -1.736   3.041  -5.364  0.00  0.00    +0.023 A 
ATOM     29  C   UNL     1      -2.634   2.068  -5.658  0.00  0.00    +0.055 A 
ATOM     30  S   UNL     1      -2.243   0.824  -4.439  0.00  0.00    -0.088 S 
ATOM     31 BR   UNL     1      -3.953   2.035  -7.013  0.00  0.00    -0.043 Br
ENDBRANCH  25  26
ENDBRANCH  21  25
ENDBRANCH  20  21
ENDBRANCH   1  20
TORSDOF 7
