REMARK  Name = ZINC63005986
REMARK  6 active torsions:
REMARK  status: ('A' for Active; 'I' for Inactive)
REMARK    1  A    between atoms: C_1  and  C_2
REMARK    2  A    between atoms: C_2  and  C_3
REMARK    3  A    between atoms: C_2  and  C_4
REMARK    4  A    between atoms: C_2  and  N_7
REMARK    5  A    between atoms: N_7  and  C_8
REMARK    6  A    between atoms: C_11  and  C_15
REMARK                            x       y       z     vdW  Elec       q    Type
REMARK                         _______ _______ _______ _____ _____    ______ ____
ROOT
ATOM      1  C   UNL     1       2.083  -0.318  -1.300  0.00  0.00    +0.099 A 
ATOM      2  C   UNL     1       2.846   0.096  -0.211  0.00  0.00    +0.148 A 
ATOM      3  C   UNL     1       4.191   0.349  -0.366  0.00  0.00    +0.055 A 
ATOM      4  C   UNL     1       4.791   0.189  -1.621  0.00  0.00    +0.069 A 
ATOM      5  C   UNL     1       4.021  -0.227  -2.713  0.00  0.00    +0.055 A 
ATOM      6  C   UNL     1       2.678  -0.483  -2.550  0.00  0.00    +0.148 A 
ATOM      7  F   UNL     1       1.935  -0.889  -3.603  0.00  0.00    -0.203 F 
ATOM      8  F   UNL     1       2.267   0.250   1.000  0.00  0.00    -0.203 F 
ENDROOT
BRANCH   4   9
ATOM      9  C   UNL     1       6.228   0.459  -1.791  0.00  0.00    +0.387 C 
ATOM     10  O   UNL     1       6.899   0.823  -0.836  0.00  0.00    -0.241 OA
ATOM     11  O   UNL     1       6.750   0.319  -2.889  0.00  0.00    -0.241 OA
ENDBRANCH   4   9
BRANCH   1  12
ATOM     12  N   UNL     1       0.724  -0.572  -1.139  0.00  0.00    -0.326 N 
ATOM     13  H   UNL     1       0.245  -1.090  -1.805  0.00  0.00    +0.147 HD
BRANCH  12  15
ATOM     14  C   UNL     1      -1.487  -0.290  -0.131  0.00  0.00    +0.041 C 
ATOM     15  C   UNL     1       0.016  -0.058   0.036  0.00  0.00    +0.103 C 
ATOM     16  C   UNL     1       0.288   1.441   0.179  0.00  0.00    +0.041 C 
BRANCH  15  17
ATOM     17  C   UNL     1       0.501  -0.776   1.268  0.00  0.00    +0.233 C 
ATOM     18  O   UNL     1       0.586  -0.183   2.323  0.00  0.00    -0.274 OA
ATOM     19  N   UNL     1       0.841  -2.079   1.199  0.00  0.00    -0.328 N 
ATOM     20  H   UNL     1       0.774  -2.554   0.356  0.00  0.00    +0.145 HD
ATOM     21  H   UNL     1       1.154  -2.541   1.993  0.00  0.00    +0.145 HD
ENDBRANCH  15  17
ENDBRANCH  12  15
ENDBRANCH   1  12
TORSDOF 4
