REMARK  Name = ZINC00875578
REMARK  5 active torsions:
REMARK  status: ('A' for Active; 'I' for Inactive)
REMARK    1  A    between atoms: C_1  and  C_2
REMARK    2  A    between atoms: C_4  and  O_28
REMARK    3  A    between atoms: C_8  and  C_21
REMARK    4  A    between atoms: C_14  and  C_19
REMARK    5  A    between atoms: C_14  and  C_20
REMARK                            x       y       z     vdW  Elec       q    Type
REMARK                         _______ _______ _______ _____ _____    ______ ____
ROOT
ATOM      1  C   UNL     1      -1.980   1.011   2.135  0.00  0.00    +0.044 C 
ATOM      2  C   UNL     1      -0.697   1.748   1.847  0.00  0.00    -0.040 A 
ATOM      3  C   UNL     1      -0.677   3.128   1.873  0.00  0.00    +0.049 A 
ATOM      4  C   UNL     1       0.501   3.809   1.602  0.00  0.00    +0.121 A 
ATOM      5  C   UNL     1       1.655   3.100   1.312  0.00  0.00    +0.091 A 
ATOM      6  C   UNL     1       1.635   1.711   1.292  0.00  0.00    +0.131 A 
ATOM      7  C   UNL     1       0.457   1.036   1.560  0.00  0.00    +0.005 A 
ATOM      8  C   UNL     1       0.392  -0.471   1.543  0.00  0.00    +0.060 C 
ATOM      9  C   UNL     1       1.805  -1.050   1.640  0.00  0.00    +0.082 C 
ATOM     10  C   UNL     1       2.694  -0.321   0.626  0.00  0.00    +0.182 C 
ATOM     11  O   UNL     1       2.789   1.051   1.008  0.00  0.00    -0.468 OA
ATOM     12  C   UNL     1       4.087  -0.954   0.619  0.00  0.00    +0.094 C 
ATOM     13  C   UNL     1       4.921  -0.289  -0.481  0.00  0.00    +0.036 C 
ATOM     14  N   UNL     1       4.212  -0.401  -1.756  0.00  0.00    -0.294 N 
ATOM     15  C   UNL     1       2.873  -0.455  -1.809  0.00  0.00    +0.303 C 
ATOM     16  O   UNL     1       2.333  -0.533  -2.896  0.00  0.00    -0.253 OA
ATOM     17  N   UNL     1       2.105  -0.427  -0.709  0.00  0.00    -0.262 N 
ATOM     18  C   UNL     1       6.278  -0.989  -0.588  0.00  0.00    +0.031 C 
ATOM     19  C   UNL     1       5.132   1.187  -0.140  0.00  0.00    +0.031 C 
ATOM     20  H   UNL     1       4.721  -0.436  -2.581  0.00  0.00    +0.151 HD
ATOM     21  H   UNL     1       1.141  -0.477  -0.801  0.00  0.00    +0.154 HD
ENDROOT
BRANCH   8  22
ATOM     22  C   UNL     1      -0.428  -0.950   2.713  0.00  0.00    -0.021 A 
ATOM     23  C   UNL     1      -0.112  -0.537   3.994  0.00  0.00    +0.005 A 
ATOM     24  C   UNL     1      -0.864  -0.977   5.068  0.00  0.00    +0.000 A 
ATOM     25  C   UNL     1      -1.931  -1.830   4.861  0.00  0.00    +0.001 A 
ATOM     26  C   UNL     1      -2.248  -2.245   3.581  0.00  0.00    +0.020 A 
ATOM     27  C   UNL     1      -1.499  -1.800   2.506  0.00  0.00    +0.045 A 
ATOM     28 CL   UNL     1      -1.901  -2.314   0.897  0.00  0.00    -0.083 Cl
ENDBRANCH   8  22
BRANCH   4  29
ATOM     29  O   UNL     1       0.522   5.167   1.621  0.00  0.00    -0.507 OA
ATOM     30  H   UNL     1       0.322   5.576   0.768  0.00  0.00    +0.292 HD
ENDBRANCH   4  29
TORSDOF 2
