REMARK  Name = ZINC39757634
REMARK  10 active torsions:
REMARK  status: ('A' for Active; 'I' for Inactive)
REMARK    1  A    between atoms: C_1  and  C_2
REMARK    2  A    between atoms: C_5  and  C_30
REMARK    3  A    between atoms: C_6  and  N_8
REMARK    4  A    between atoms: C_9  and  C_11
REMARK    5  A    between atoms: C_11  and  S_12
REMARK    6  A    between atoms: S_12  and  C_13
REMARK    7  A    between atoms: C_16  and  C_21
REMARK    8  A    between atoms: N_17  and  C_18
REMARK    9  A    between atoms: C_18  and  C_19
REMARK   10  A    between atoms: C_18  and  C_20
REMARK                            x       y       z     vdW  Elec       q    Type
REMARK                         _______ _______ _______ _____ _____    ______ ____
ROOT
ATOM      1  C   UNL     1       0.537  -2.770   7.657  0.00  0.00    +0.193 A 
ATOM      2  N   UNL     1       0.562  -4.085   7.663  0.00  0.00    -0.122 NA
ATOM      3  N   UNL     1       0.677  -4.520   8.866  0.00  0.00    -0.125 NA
ATOM      4  C   UNL     1       0.733  -3.508   9.705  0.00  0.00    +0.201 A 
ATOM      5  N   UNL     1       0.650  -2.357   8.954  0.00  0.00    -0.297 N 
ENDROOT
BRANCH   4   6
ATOM      6  C   UNL     1       0.865  -3.591  11.168  0.00  0.00    +0.173 A 
ATOM      7  C   UNL     1       1.241  -4.699  11.857  0.00  0.00    +0.061 A 
ATOM      8  C   UNL     1       1.232  -4.319  13.271  0.00  0.00    +0.021 A 
ATOM      9  C   UNL     1       1.517  -4.992  14.461  0.00  0.00    +0.011 A 
ATOM     10  C   UNL     1       1.410  -4.333  15.654  0.00  0.00    +0.001 A 
ATOM     11  C   UNL     1       1.022  -3.002  15.688  0.00  0.00    +0.004 A 
ATOM     12  C   UNL     1       0.737  -2.320  14.524  0.00  0.00    +0.047 A 
ATOM     13  C   UNL     1       0.838  -2.970  13.300  0.00  0.00    +0.136 A 
ATOM     14  O   UNL     1       0.635  -2.576  12.026  0.00  0.00    -0.452 OA
ENDBRANCH   4   6
BRANCH   5  15
ATOM     15  C   UNL     1       0.675  -0.976   9.444  0.00  0.00    +0.085 C 
ATOM     16  C   UNL     1       1.862  -0.236   8.823  0.00  0.00    +0.030 C 
ATOM     17  C   UNL     1      -0.626  -0.272   9.053  0.00  0.00    +0.030 C 
ENDBRANCH   5  15
BRANCH   1  18
ATOM     18  S   UNL     1       0.391  -1.734   6.239  0.00  0.00    -0.077 S 
BRANCH  18  19
ATOM     19  C   UNL     1       0.280  -2.900   4.854  0.00  0.00    +0.173 C 
BRANCH  19  21
ATOM     20  N   UNL     1       0.052  -2.797   2.393  0.00  0.00    -0.285 N 
ATOM     21  C   UNL     1       0.150  -2.135   3.562  0.00  0.00    +0.227 C 
ATOM     22  O   UNL     1       0.134  -0.922   3.575  0.00  0.00    -0.275 OA
ATOM     23  H   UNL     1      -0.016  -3.765   2.388  0.00  0.00    +0.155 HD
BRANCH  20  29
ATOM     24  C   UNL     1       1.264   1.227  -0.158  0.00  0.00    +0.044 C 
ATOM     25  C   UNL     1       0.628  -0.137  -0.079  0.00  0.00    -0.049 A 
ATOM     26  C   UNL     1       0.039  -0.690  -1.201  0.00  0.00    +0.004 A 
ATOM     27  C   UNL     1      -0.546  -1.941  -1.133  0.00  0.00    +0.005 A 
ATOM     28  C   UNL     1      -0.543  -2.643   0.057  0.00  0.00    -0.029 A 
ATOM     29  C   UNL     1       0.048  -2.090   1.185  0.00  0.00    +0.037 A 
ATOM     30  C   UNL     1       0.639  -0.835   1.112  0.00  0.00    +0.027 A 
ATOM     31  C   UNL     1      -1.181  -4.006   0.131  0.00  0.00    +0.045 C 
ENDBRANCH  20  29
ENDBRANCH  19  21
ENDBRANCH  18  19
ENDBRANCH   1  18
TORSDOF 6
