REMARK  Name = ZINC03104830
REMARK  9 active torsions:
REMARK  status: ('A' for Active; 'I' for Inactive)
REMARK    1  A    between atoms: C_1  and  C_2
REMARK    2  A    between atoms: C_2  and  C_3
REMARK    3  A    between atoms: C_3  and  S_4
REMARK    4  A    between atoms: S_4  and  C_5
REMARK    5  A    between atoms: C_7  and  C_12
REMARK    6  A    between atoms: C_8  and  C_11
REMARK    7  A    between atoms: C_12  and  C_13
REMARK    8  A    between atoms: N_14  and  C_15
REMARK    9  A    between atoms: C_18  and  C_21
REMARK                            x       y       z     vdW  Elec       q    Type
REMARK                         _______ _______ _______ _____ _____    ______ ____
ROOT
ATOM      1  C   UNL     1      -3.112  -2.797   0.017  0.00  0.00    +0.210 A 
ATOM      2  N   UNL     1      -3.453  -4.080   0.019  0.00  0.00    -0.223 NA
ATOM      3  C   UNL     1      -4.734  -4.413   0.029  0.00  0.00    +0.072 A 
ATOM      4  C   UNL     1      -5.688  -3.405   0.038  0.00  0.00    +0.082 A 
ATOM      5  N   UNL     1      -5.295  -2.143   0.035  0.00  0.00    -0.150 NA
ATOM      6  N   UNL     1      -4.042  -1.849   0.031  0.00  0.00    -0.122 NA
ATOM      7  C   UNL     1      -7.156  -3.746   0.049  0.00  0.00    +0.069 C 
ENDROOT
BRANCH   1   8
ATOM      8  S   UNL     1      -1.409  -2.348   0.003  0.00  0.00    -0.084 S 
BRANCH   8   9
ATOM      9  C   UNL     1      -1.433  -0.534   0.013  0.00  0.00    +0.077 C 
BRANCH   9  11
ATOM     10  C   UNL     1      -0.019   1.526   0.010  0.00  0.00    +0.004 C 
ATOM     11  C   UNL     1       0.002  -0.004   0.002  0.00  0.00    +0.008 C 
ENDBRANCH   9  11
ENDBRANCH   8   9
ENDBRANCH   1   8
BRANCH   3  12
ATOM     12  C   UNL     1      -5.150  -5.862   0.031  0.00  0.00    +0.104 C 
BRANCH  12  13
ATOM     13  C   UNL     1      -5.277  -6.346   1.452  0.00  0.00    +0.090 C 
ATOM     14  N   UNL     1      -6.380  -6.882   1.856  0.00  0.00    -0.259 NA
BRANCH  14  15
ATOM     15  C   UNL     1      -6.495  -7.324   3.151  0.00  0.00    +0.064 A 
ATOM     16  C   UNL     1      -5.465  -8.061   3.734  0.00  0.00    +0.028 A 
ATOM     17  C   UNL     1      -5.587  -8.502   5.035  0.00  0.00    +0.005 A 
ATOM     18  C   UNL     1      -6.728  -8.214   5.762  0.00  0.00    -0.050 A 
ATOM     19  C   UNL     1      -7.753  -7.484   5.190  0.00  0.00    +0.005 A 
ATOM     20  C   UNL     1      -7.641  -7.031   3.891  0.00  0.00    +0.028 A 
ATOM     21  C   UNL     1      -6.855  -8.699   7.183  0.00  0.00    +0.044 C 
ENDBRANCH  14  15
ENDBRANCH  12  13
ENDBRANCH   3  12
TORSDOF 6
