REMARK  Name = ZINC19387538
REMARK  3 active torsions:
REMARK  status: ('A' for Active; 'I' for Inactive)
REMARK    1  A    between atoms: N_5  and  C_9
REMARK    2  A    between atoms: C_7  and  N_8
REMARK    3  A    between atoms: C_9  and  C_10
REMARK                            x       y       z     vdW  Elec       q    Type
REMARK                         _______ _______ _______ _____ _____    ______ ____
ROOT
ATOM      1  C   UNL     1      -0.016   1.359   0.009  0.00  0.00    +0.029 A 
ATOM      2  C   UNL     1       0.002  -0.004   0.002  0.00  0.00    +0.072 A 
ATOM      3  C   UNL     1       1.235  -0.677  -0.013  0.00  0.00    +0.252 A 
ATOM      4  O   UNL     1       1.262  -1.898  -0.021  0.00  0.00    -0.268 OA
ATOM      5  N   UNL     1       2.386   0.021  -0.021  0.00  0.00    -0.300 N 
ATOM      6  C   UNL     1       2.376   1.381  -0.013  0.00  0.00    +0.113 A 
ATOM      7  C   UNL     1       1.201   2.063   0.002  0.00  0.00    +0.041 A 
ENDROOT
BRANCH   7   8
ATOM      8  N   UNL     1       1.202   3.466   0.009  0.00  0.00    -0.357 N 
ATOM      9  H   UNL     1       2.155   4.016   0.003  0.00  0.00    +0.142 HD
ATOM     10  H   UNL     1       0.250   4.017   0.020  0.00  0.00    +0.142 HD
ENDBRANCH   7   8
BRANCH   5  11
ATOM     11  C   UNL     1       3.666  -0.693  -0.037  0.00  0.00    +0.243 C 
BRANCH  11  12
ATOM     12  C   UNL     1       4.081  -0.925  -1.430  0.00  0.00    +0.084 C 
ATOM     13  N   UNL     1       4.401  -1.104  -2.505  0.00  0.00    -0.195 NA
ENDBRANCH  11  12
ENDBRANCH   5  11
TORSDOF 3
