REMARK  Name = ZINC43683043
REMARK  8 active torsions:
REMARK  status: ('A' for Active; 'I' for Inactive)
REMARK    1  A    between atoms: C_1  and  C_2
REMARK    2  A    between atoms: C_4  and  O_11
REMARK    3  A    between atoms: C_7  and  N_8
REMARK    4  A    between atoms: O_11  and  C_12
REMARK    5  A    between atoms: C_12  and  C_13
REMARK    6  A    between atoms: C_16  and  C_18
REMARK    7  A    between atoms: C_19  and  C_20
REMARK    8  A    between atoms: C_20  and  O_21
REMARK                            x       y       z     vdW  Elec       q    Type
REMARK                         _______ _______ _______ _____ _____    ______ ____
ROOT
ATOM      1  O   UNL     1      -0.179  -2.750  -2.376  0.00  0.00    -0.487 OA
ENDROOT
BRANCH   1   5
ATOM      2  C   UNL     1      -0.537   1.447   0.089  0.00  0.00    +0.046 C 
ATOM      3  C   UNL     1      -0.246  -0.031   0.040  0.00  0.00    -0.017 A 
ATOM      4  C   UNL     1      -0.348  -0.715  -1.157  0.00  0.00    +0.051 A 
ATOM      5  C   UNL     1      -0.080  -2.075  -1.201  0.00  0.00    +0.121 A 
ATOM      6  C   UNL     1       0.289  -2.745  -0.044  0.00  0.00    +0.048 A 
ATOM      7  C   UNL     1       0.389  -2.057   1.149  0.00  0.00    +0.036 A 
ATOM      8  C   UNL     1       0.127  -0.700   1.190  0.00  0.00    +0.129 A 
BRANCH   8   9
ATOM      9  N   UNL     1       0.241   0.037   2.469  0.00  0.00    +0.057 N 
ATOM     10  O   UNL     1       0.676   1.165   2.480  0.00  0.00    -0.126 OA
ATOM     11  O   UNL     1      -0.100  -0.490   3.502  0.00  0.00    -0.126 OA
ENDBRANCH   8   9
ENDBRANCH   1   5
BRANCH   1  12
ATOM     12  C   UNL     1       0.111  -4.149  -2.348  0.00  0.00    +0.271 C 
BRANCH  12  13
ATOM     13  C   UNL     1      -0.051  -4.724  -3.731  0.00  0.00    +0.028 A 
ATOM     14  C   UNL     1       0.875  -4.848  -4.718  0.00  0.00    +0.016 A 
ATOM     15  C   UNL     1       0.505  -5.411  -5.918  0.00  0.00    +0.025 A 
ATOM     16  C   UNL     1      -0.792  -5.829  -6.077  0.00  0.00    +0.062 A 
ATOM     17  S   UNL     1      -1.506  -5.425  -4.492  0.00  0.00    -0.081 S 
BRANCH  16  18
ATOM     18  C   UNL     1      -1.411  -6.437  -7.217  0.00  0.00    -0.057 C 
ATOM     19  C   UNL     1      -1.918  -6.935  -8.151  0.00  0.00    -0.069 C 
BRANCH  19  20
ATOM     20  C   UNL     1      -2.554  -7.560  -9.322  0.00  0.00    +0.244 C 
BRANCH  20  21
ATOM     21  O   UNL     1      -3.928  -7.827  -9.033  0.00  0.00    -0.383 OA
ATOM     22  H   UNL     1      -4.411  -8.240  -9.762  0.00  0.00    +0.211 HD
ENDBRANCH  20  21
ENDBRANCH  19  20
ENDBRANCH  16  18
ENDBRANCH  12  13
ENDBRANCH   1  12
TORSDOF 7
