REMARK  Name = ZINC65833012
REMARK  5 active torsions:
REMARK  status: ('A' for Active; 'I' for Inactive)
REMARK    1  A    between atoms: C_1  and  C_2
REMARK    2  A    between atoms: C_5  and  S_9
REMARK    3  A    between atoms: S_9  and  N_12
REMARK    4  A    between atoms: N_12  and  N_13
REMARK    5  A    between atoms: N_16  and  C_17
REMARK                            x       y       z     vdW  Elec       q    Type
REMARK                         _______ _______ _______ _____ _____    ______ ____
ROOT
ATOM      1  N   UNL     1       1.558  -5.005   0.505  0.00  0.00    -0.107 NA
ATOM      2  H   UNL     1       2.185  -5.404  -0.117  0.00  0.00    +0.172 HD
ENDROOT
BRANCH   1   3
ATOM      3  N   UNL     1       1.956  -4.724   1.819  0.00  0.00    -0.216 N 
ATOM      4  C   UNL     1       2.464  -5.705   2.593  0.00  0.00    +0.315 C 
ATOM      5  O   UNL     1       2.809  -5.462   3.733  0.00  0.00    -0.251 OA
ATOM      6  N   UNL     1       2.588  -6.954   2.103  0.00  0.00    -0.296 N 
ATOM      7  H   UNL     1       1.866  -3.825   2.172  0.00  0.00    +0.172 HD
ATOM      8  H   UNL     1       2.313  -7.147   1.193  0.00  0.00    +0.151 HD
BRANCH   6   9
ATOM      9  C   UNL     1       3.140  -8.019   2.943  0.00  0.00    +0.074 C 
ATOM     10  C   UNL     1       4.678  -8.049   2.816  0.00  0.00    +0.022 C 
ATOM     11  C   UNL     1       5.033  -9.556   2.861  0.00  0.00    +0.002 C 
ATOM     12  C   UNL     1       3.878 -10.204   2.057  0.00  0.00    +0.002 C 
ATOM     13  C   UNL     1       2.632  -9.389   2.460  0.00  0.00    +0.022 C 
ENDBRANCH   6   9
ENDBRANCH   1   3
BRANCH   1  14
ATOM     14  S   UNL     1       0.016  -4.653   0.015  0.00  0.00    +0.075 S 
ATOM     15  O   UNL     1      -0.859  -5.318   0.917  0.00  0.00    -0.152 OA
ATOM     16  O   UNL     1      -0.025  -4.874  -1.388  0.00  0.00    -0.152 OA
BRANCH  14  21
ATOM     17  C   UNL     1      -0.818   1.264   0.856  0.00  0.00    +0.044 C 
ATOM     18  C   UNL     1      -0.609  -0.214   0.645  0.00  0.00    -0.049 A 
ATOM     19  C   UNL     1      -1.360  -1.127   1.363  0.00  0.00    +0.005 A 
ATOM     20  C   UNL     1      -1.169  -2.482   1.170  0.00  0.00    +0.030 A 
ATOM     21  C   UNL     1      -0.228  -2.925   0.260  0.00  0.00    +0.121 A 
ATOM     22  C   UNL     1       0.523  -2.013  -0.459  0.00  0.00    +0.044 A 
ATOM     23  C   UNL     1       0.328  -0.656  -0.269  0.00  0.00    +0.020 A 
ATOM     24 BR   UNL     1       1.811  -2.618  -1.703  0.00  0.00    -0.048 Br
ENDBRANCH  14  21
ENDBRANCH   1  14
TORSDOF 4
