REMARK  Name = ZINC66272058
REMARK  11 active torsions:
REMARK  status: ('A' for Active; 'I' for Inactive)
REMARK    1  A    between atoms: C_1  and  C_2
REMARK    2  A    between atoms: C_6  and  N_9
REMARK    3  A    between atoms: C_7  and  C_8
REMARK    4  A    between atoms: C_10  and  C_12
REMARK    5  A    between atoms: C_12  and  N_13
REMARK    6  A    between atoms: N_13  and  C_14
REMARK    7  A    between atoms: C_15  and  C_17
REMARK    8  A    between atoms: C_17  and  C_18
REMARK    9  A    between atoms: C_18  and  C_20
REMARK   10  A    between atoms: C_18  and  N_21
REMARK   11  A    between atoms: C_22  and  C_24
REMARK                            x       y       z     vdW  Elec       q    Type
REMARK                         _______ _______ _______ _____ _____    ______ ____
ROOT
ATOM      1  N   UNL     1      -0.207  -6.335   3.410  0.00  0.00    -0.296 N 
ATOM      2  C   UNL     1       1.018  -7.132   3.321  0.00  0.00    +0.132 C 
ATOM      3  C   UNL     1      -1.408  -6.924   3.239  0.00  0.00    +0.217 C 
ATOM      4  O   UNL     1      -2.423  -6.264   3.312  0.00  0.00    -0.276 OA
ENDROOT
BRANCH   1   5
ATOM      5  C   UNL     1      -0.129  -4.898   3.686  0.00  0.00    +0.203 C 
BRANCH   5   7
ATOM      6  N   UNL     1       0.052  -2.797   2.393  0.00  0.00    -0.284 N 
ATOM      7  C   UNL     1      -0.031  -4.143   2.385  0.00  0.00    +0.235 C 
ATOM      8  O   UNL     1      -0.028  -4.745   1.333  0.00  0.00    -0.274 OA
ATOM      9  H   UNL     1       0.130  -2.321   3.234  0.00  0.00    +0.155 HD
BRANCH   6  15
ATOM     10  C   UNL     1       1.206   1.236  -0.172  0.00  0.00    +0.044 C 
ATOM     11  C   UNL     1       0.577  -0.131  -0.084  0.00  0.00    -0.046 A 
ATOM     12  C   UNL     1      -0.027  -0.686  -1.198  0.00  0.00    +0.004 A 
ATOM     13  C   UNL     1      -0.605  -1.940  -1.122  0.00  0.00    +0.002 A 
ATOM     14  C   UNL     1      -0.580  -2.642   0.067  0.00  0.00    +0.023 A 
ATOM     15  C   UNL     1       0.026  -2.088   1.187  0.00  0.00    +0.037 A 
ATOM     16  C   UNL     1       0.610  -0.831   1.106  0.00  0.00    -0.026 A 
ATOM     17  C   UNL     1       1.274  -0.228   2.317  0.00  0.00    +0.046 C 
ENDBRANCH   6  15
ENDBRANCH   5   7
ENDBRANCH   1   5
BRANCH   3  18
ATOM     18  C   UNL     1      -1.489  -8.402   2.956  0.00  0.00    +0.118 C 
BRANCH  18  19
ATOM     19  C   UNL     1      -2.955  -8.812   2.804  0.00  0.00    +0.079 C 
ATOM     20  C   UNL     1      -3.033 -10.284   2.395  0.00  0.00    +0.028 C 
BRANCH  19  21
ATOM     21  N   UNL     1      -3.649  -8.623   4.081  0.00  0.00    -0.312 N 
ATOM     22  C   UNL     1      -4.982  -8.424   4.100  0.00  0.00    +0.216 C 
ATOM     23  O   UNL     1      -5.607  -8.402   3.061  0.00  0.00    -0.276 OA
ATOM     24  H   UNL     1      -3.150  -8.641   4.912  0.00  0.00    +0.149 HD
BRANCH  22  25
ATOM     25  C   UNL     1      -5.696  -8.230   5.413  0.00  0.00    +0.075 C 
ATOM     26  C   UNL     1      -5.494  -9.467   6.291  0.00  0.00    +0.013 C 
ATOM     27  C   UNL     1      -6.219  -9.269   7.624  0.00  0.00    +0.001 C 
ATOM     28  C   UNL     1      -7.714  -9.065   7.366  0.00  0.00    +0.000 C 
ATOM     29  C   UNL     1      -7.915  -7.829   6.488  0.00  0.00    +0.001 C 
ATOM     30  C   UNL     1      -7.191  -8.026   5.155  0.00  0.00    +0.013 C 
ENDBRANCH  22  25
ENDBRANCH  19  21
ENDBRANCH  18  19
ENDBRANCH   3  18
TORSDOF 7
