REMARK  Name = ZINC59948970
REMARK  5 active torsions:
REMARK  status: ('A' for Active; 'I' for Inactive)
REMARK    1  A    between atoms: C_3  and  N_22
REMARK    2  A    between atoms: C_6  and  C_7
REMARK    3  A    between atoms: CA_8  and  C_9
REMARK    4  A    between atoms: CA_8  and  N_12
REMARK    5  A    between atoms: C_13  and  C_15
REMARK                            x       y       z     vdW  Elec       q    Type
REMARK                         _______ _______ _______ _____ _____    ______ ____
ROOT
ATOM      1  C   UNL     1      -1.284  -0.819   0.301  0.00  0.00    +0.038 C 
ATOM      2  CA  UNL     1      -1.239  -2.107  -0.117  0.00  0.00    +0.123 C 
ENDROOT
BRANCH   1   8
ATOM      3  C   UNL     1       1.098  -0.315  -0.211  0.00  0.00    +0.010 A 
ATOM      4  C   UNL     1       2.264   0.371   0.056  0.00  0.00    +0.033 A 
ATOM      5  C   UNL     1       2.316   1.276   1.102  0.00  0.00    +0.126 A 
ATOM      6  C   UNL     1       1.199   1.501   1.888  0.00  0.00    +0.033 A 
ATOM      7  C   UNL     1       0.025   0.823   1.635  0.00  0.00    +0.010 A 
ATOM      8  C   UNL     1      -0.036  -0.093   0.579  0.00  0.00    -0.023 A 
BRANCH   5   9
ATOM      9  N   UNL     1       3.572   2.007   1.382  0.00  0.00    +0.056 N 
ATOM     10  O   UNL     1       4.549   1.813   0.698  0.00  0.00    -0.126 OA
ATOM     11  O   UNL     1       3.620   2.798   2.295  0.00  0.00    -0.126 OA
ENDBRANCH   5   9
ENDBRANCH   1   8
BRANCH   2  12
ATOM     12  N   UNL     1      -2.416  -2.759  -0.503  0.00  0.00    -0.276 N 
ATOM     13  C   UNL     1      -2.361  -4.009  -1.003  0.00  0.00    +0.248 C 
ATOM     14  O   UNL     1      -1.305  -4.611  -1.021  0.00  0.00    -0.270 OA
ATOM     15  H   UNL     1      -3.271  -2.310  -0.410  0.00  0.00    +0.155 HD
BRANCH  13  16
ATOM     16  C   UNL     1      -3.585  -4.648  -1.530  0.00  0.00    +0.037 A 
ATOM     17  C   UNL     1      -4.798  -3.957  -1.516  0.00  0.00    +0.014 A 
ATOM     18  C   UNL     1      -5.937  -4.559  -2.010  0.00  0.00    +0.015 A 
ATOM     19  C   UNL     1      -5.879  -5.845  -2.518  0.00  0.00    +0.013 A 
ATOM     20  C   UNL     1      -4.679  -6.535  -2.535  0.00  0.00    +0.015 A 
ATOM     21  C   UNL     1      -3.532  -5.943  -2.049  0.00  0.00    +0.014 A 
ATOM     22  I   UNL     1      -7.614  -6.751  -3.265  0.00  0.00    -0.044 I 
ENDBRANCH  13  16
ENDBRANCH   2  12
BRANCH   2  23
ATOM     23  C   UNL     1       0.041  -2.818  -0.166  0.00  0.00    +0.400 C 
ATOM     24  O   UNL     1       0.519  -3.291   0.858  0.00  0.00    -0.239 OA
ATOM     25  OXT UNL     1       0.634  -2.940  -1.231  0.00  0.00    -0.239 OA
ENDBRANCH   2  23
TORSDOF 5
