REMARK  Name = ZINC66512262
REMARK  5 active torsions:
REMARK  status: ('A' for Active; 'I' for Inactive)
REMARK    1  A    between atoms: C_1  and  C_2
REMARK    2  A    between atoms: C_2  and  C_29
REMARK    3  A    between atoms: C_5  and  C_23
REMARK    4  A    between atoms: C_9  and  C_11
REMARK    5  A    between atoms: N_14  and  C_16
REMARK                            x       y       z     vdW  Elec       q    Type
REMARK                         _______ _______ _______ _____ _____    ______ ____
ROOT
ATOM      1  C   UNL     1       0.021   1.521  -0.025  0.00  0.00    +0.034 C 
ATOM      2  C   UNL     1      -0.001  -0.008   0.005  0.00  0.00    +0.055 C 
ATOM      3  C   UNL     1      -1.442  -0.501   0.176  0.00  0.00    +0.186 C 
ATOM      4  O   UNL     1      -1.434  -1.915   0.390  0.00  0.00    -0.368 OA
ATOM      5  C   UNL     1      -0.755  -2.323   1.580  0.00  0.00    +0.166 C 
ATOM      6  C   UNL     1       0.722  -1.923   1.480  0.00  0.00    +0.145 C 
ATOM      7  N   UNL     1       0.794  -0.492   1.145  0.00  0.00    -0.286 N 
ATOM      8  C   UNL     1       1.565   0.350   1.861  0.00  0.00    +0.267 C 
ATOM      9  O   UNL     1       1.526   1.545   1.641  0.00  0.00    -0.268 OA
ATOM     10  C   UNL     1       0.581  -0.558  -1.299  0.00  0.00    +0.034 C 
ENDROOT
BRANCH   5  11
ATOM     11  C   UNL     1      -0.863  -3.818   1.733  0.00  0.00    -0.017 A 
ATOM     12  C   UNL     1      -0.743  -4.638   0.626  0.00  0.00    +0.006 A 
ATOM     13  C   UNL     1      -0.842  -6.009   0.767  0.00  0.00    +0.000 A 
ATOM     14  C   UNL     1      -1.062  -6.561   2.015  0.00  0.00    +0.000 A 
ATOM     15  C   UNL     1      -1.182  -5.742   3.122  0.00  0.00    +0.000 A 
ATOM     16  C   UNL     1      -1.078  -4.371   2.982  0.00  0.00    +0.006 A 
ENDBRANCH   5  11
BRANCH   8  17
ATOM     17  C   UNL     1       2.456  -0.178   2.913  0.00  0.00    +0.148 A 
ATOM     18  C   UNL     1       3.219   0.584   3.829  0.00  0.00    +0.054 A 
ATOM     19  C   UNL     1       3.874  -0.320   4.596  0.00  0.00    +0.115 A 
ATOM     20  N   UNL     1       3.515  -1.554   4.155  0.00  0.00    -0.236 N 
ATOM     21  N   UNL     1       2.686  -1.449   3.180  0.00  0.00    -0.162 NA
BRANCH  20  22
ATOM     22  C   UNL     1       3.979  -2.764   4.690  0.00  0.00    +0.100 A 
ATOM     23  C   UNL     1       4.869  -2.758   5.755  0.00  0.00    +0.031 A 
ATOM     24  C   UNL     1       5.323  -3.952   6.280  0.00  0.00    +0.002 A 
ATOM     25  C   UNL     1       4.894  -5.153   5.746  0.00  0.00    +0.003 A 
ATOM     26  C   UNL     1       4.008  -5.164   4.685  0.00  0.00    +0.040 A 
ATOM     27  C   UNL     1       3.543  -3.972   4.158  0.00  0.00    +0.149 A 
ATOM     28  F   UNL     1       2.673  -3.983   3.125  0.00  0.00    -0.203 F 
ENDBRANCH  20  22
ENDBRANCH   8  17
TORSDOF 3
