REMARK  Name = ZINC01767508
REMARK  9 active torsions:
REMARK  status: ('A' for Active; 'I' for Inactive)
REMARK    1  A    between atoms: C_1  and  C_2
REMARK    2  A    between atoms: C_2  and  C_3
REMARK    3  A    between atoms: C_2  and  C_4
REMARK    4  A    between atoms: C_4  and  N_48
REMARK    5  A    between atoms: C_5  and  C_7
REMARK    6  A    between atoms: C_5  and  C_16
REMARK    7  A    between atoms: C_5  and  N_48
REMARK    8  A    between atoms: C_16  and  C_18
REMARK    9  A    between atoms: C_16  and  O_27
REMARK                            x       y       z     vdW  Elec       q    Type
REMARK                         _______ _______ _______ _____ _____    ______ ____
ROOT
ATOM      1  C   UNL     1      -0.033   1.192  -0.109  0.00  0.00    -0.007 C 
ENDROOT
BRANCH   1   2
ATOM      2  C   UNL     1      -0.833   1.661   1.078  0.00  0.00    -0.055 A 
ATOM      3  C   UNL     1      -0.807   2.994   1.444  0.00  0.00    +0.006 A 
ATOM      4  C   UNL     1      -1.543   3.430   2.530  0.00  0.00    +0.050 A 
ATOM      5  C   UNL     1      -2.301   2.529   3.261  0.00  0.00    +0.166 A 
ATOM      6  C   UNL     1      -2.322   1.185   2.896  0.00  0.00    +0.166 A 
ATOM      7  C   UNL     1      -1.586   0.757   1.803  0.00  0.00    +0.051 A 
ATOM      8  O   UNL     1      -3.132   0.510   3.763  0.00  0.00    -0.453 OA
ATOM      9  C   UNL     1      -3.927   1.520   4.412  0.00  0.00    +0.466 C 
ATOM     10  O   UNL     1      -3.097   2.696   4.357  0.00  0.00    -0.453 OA
ENDBRANCH   1   2
BRANCH   1  11
ATOM     11  N   UNL     1       1.287   1.852  -0.108  0.00  0.00    +0.386 N 
ATOM     12  H   UNL     1       1.714   1.757  -1.036  0.00  0.00    -0.085 HD
ATOM     13  H   UNL     1       1.167   2.848   0.113  0.00  0.00    -0.085 HD
BRANCH  11  14
ATOM     14  C   UNL     1       2.168   1.233   0.900  0.00  0.00    -0.079 C 
BRANCH  14  16
ATOM     15  C   UNL     1       3.473   3.343   1.191  0.00  0.00    +0.005 C 
ATOM     16  C   UNL     1       3.558   1.865   0.807  0.00  0.00    -0.034 C 
ATOM     17  C   UNL     1       4.511   1.144   1.762  0.00  0.00    +0.005 C 
ENDBRANCH  14  16
ENDBRANCH  11  14
ENDBRANCH   1  11
BRANCH   1  18
ATOM     18  C   UNL     1      -0.773   1.554  -1.398  0.00  0.00    +0.135 C 
BRANCH  18  19
ATOM     19  C   UNL     1       0.004   1.043  -2.584  0.00  0.00    -0.017 A 
ATOM     20  C   UNL     1       1.095   1.752  -3.052  0.00  0.00    +0.010 A 
ATOM     21  C   UNL     1       1.810   1.287  -4.140  0.00  0.00    +0.050 A 
ATOM     22  C   UNL     1       1.435   0.108  -4.764  0.00  0.00    +0.166 A 
ATOM     23  C   UNL     1       0.336  -0.606  -4.293  0.00  0.00    +0.167 A 
ATOM     24  C   UNL     1      -0.373  -0.137  -3.199  0.00  0.00    +0.055 A 
ATOM     25  O   UNL     1       0.174  -1.718  -5.067  0.00  0.00    -0.453 OA
ATOM     26  C   UNL     1       1.425  -1.891  -5.758  0.00  0.00    +0.466 C 
ATOM     27  O   UNL     1       1.961  -0.557  -5.833  0.00  0.00    -0.453 OA
ENDBRANCH  18  19
BRANCH  18  28
ATOM     28  O   UNL     1      -0.903   2.974  -1.490  0.00  0.00    -0.388 OA
ATOM     29  H   UNL     1      -0.059   3.443  -1.554  0.00  0.00    +0.210 HD
ENDBRANCH  18  28
ENDBRANCH   1  18
TORSDOF 7
