REMARK  Name = ZINC14201957
REMARK  6 active torsions:
REMARK  status: ('A' for Active; 'I' for Inactive)
REMARK    1  A    between atoms: C_1  and  C_2
REMARK    2  A    between atoms: C_2  and  C_3
REMARK    3  A    between atoms: C_2  and  C_4
REMARK    4  A    between atoms: C_7  and  C_10
REMARK    5  A    between atoms: C_10  and  C_11
REMARK    6  A    between atoms: C_11  and  N_12
REMARK                            x       y       z     vdW  Elec       q    Type
REMARK                         _______ _______ _______ _____ _____    ______ ____
ROOT
ATOM      1  N   UNL     1      -4.467   6.253  -1.085  0.00  0.00    -0.299 N 
ATOM      2  C   UNL     1      -4.102   5.665   0.071  0.00  0.00    +0.302 C 
ATOM      3  O   UNL     1      -4.552   6.067   1.127  0.00  0.00    -0.253 OA
ATOM      4  N   UNL     1      -3.237   4.631   0.058  0.00  0.00    -0.285 N 
ATOM      5  C   UNL     1      -2.773   4.061  -1.214  0.00  0.00    +0.112 C 
ATOM      6  C   UNL     1      -3.045   2.553  -1.206  0.00  0.00    +0.054 C 
ATOM      7  C   UNL     1      -2.422   1.932   0.040  0.00  0.00    +0.115 C 
ATOM      8  C   UNL     1      -3.013   2.546   1.305  0.00  0.00    +0.054 C 
ATOM      9  C   UNL     1      -2.741   4.054   1.315  0.00  0.00    +0.112 C 
ATOM     10  C   UNL     1      -2.623   0.434   0.039  0.00  0.00    +0.244 C 
ATOM     11  O   UNL     1      -3.677  -0.165   0.050  0.00  0.00    -0.273 OA
ATOM     12  N   UNL     1      -1.382  -0.096   0.022  0.00  0.00    -0.238 N 
ATOM     13  C   UNL     1      -0.440   0.855   0.012  0.00  0.00    +0.307 C 
ATOM     14  O   UNL     1       0.753   0.624  -0.003  0.00  0.00    -0.252 OA
ATOM     15  N   UNL     1      -0.963   2.096   0.028  0.00  0.00    -0.285 N 
ATOM     16  H   UNL     1      -4.166   5.888  -1.931  0.00  0.00    +0.150 HD
ATOM     17  H   UNL     1      -1.196  -1.048   0.016  0.00  0.00    +0.159 HD
ATOM     18  H   UNL     1      -0.472   2.933   0.029  0.00  0.00    +0.151 HD
ENDROOT
BRANCH   1  19
ATOM     19  C   UNL     1      -5.320   7.445  -1.063  0.00  0.00    +0.110 C 
BRANCH  19  20
ATOM     20  C   UNL     1      -5.584   7.909  -2.497  0.00  0.00    +0.054 C 
BRANCH  20  24
ATOM     21  C   UNL     1      -8.070  11.382  -2.434  0.00  0.00    -0.045 A 
ATOM     22  C   UNL     1      -6.694  11.516  -2.397  0.00  0.00    +0.004 A 
ATOM     23  C   UNL     1      -5.890  10.392  -2.418  0.00  0.00    +0.004 A 
ATOM     24  C   UNL     1      -6.461   9.134  -2.475  0.00  0.00    -0.046 A 
ATOM     25  C   UNL     1      -7.836   9.001  -2.517  0.00  0.00    +0.004 A 
ATOM     26  C   UNL     1      -8.641  10.125  -2.492  0.00  0.00    +0.004 A 
BRANCH  21  28
ATOM     27  C   UNL     1      -9.801  12.648  -3.680  0.00  0.00    +0.012 C 
ATOM     28  C   UNL     1      -8.947  12.608  -2.411  0.00  0.00    +0.013 C 
ATOM     29  C   UNL     1      -9.859  12.559  -1.183  0.00  0.00    +0.012 C 
ENDBRANCH  21  28
ENDBRANCH  20  24
ENDBRANCH  19  20
ENDBRANCH   1  19
TORSDOF 4
