REMARK  Name = ZINC34757224
REMARK  6 active torsions:
REMARK  status: ('A' for Active; 'I' for Inactive)
REMARK    1  A    between atoms: C_1  and  C_2
REMARK    2  A    between atoms: C_2  and  C_4
REMARK    3  A    between atoms: C_4  and  S_5
REMARK    4  A    between atoms: S_5  and  C_6
REMARK    5  A    between atoms: N_21  and  C_24
REMARK    6  A    between atoms: C_24  and  C_25
REMARK                            x       y       z     vdW  Elec       q    Type
REMARK                         _______ _______ _______ _____ _____    ______ ____
ROOT
ATOM      1  C   UNL     1      -3.429  -1.803   1.555  0.00  0.00    +0.191 A 
ATOM      2  N   UNL     1      -4.221  -1.945   2.612  0.00  0.00    -0.206 NA
ATOM      3  C   UNL     1      -5.425  -2.483   2.521  0.00  0.00    +0.134 A 
ATOM      4  C   UNL     1      -5.891  -2.926   1.252  0.00  0.00    +0.051 A 
ATOM      5  C   UNL     1      -7.184  -3.549   0.920  0.00  0.00    -0.025 A 
ATOM      6  C   UNL     1      -7.386  -3.881  -0.364  0.00  0.00    -0.004 A 
ATOM      7  S   UNL     1      -5.898  -3.395  -1.207  0.00  0.00    -0.073 S 
ATOM      8  C   UNL     1      -5.003  -2.745   0.178  0.00  0.00    +0.115 A 
ATOM      9  N   UNL     1      -3.816  -2.194   0.347  0.00  0.00    -0.215 NA
ATOM     10  C   UNL     1      -8.735  -4.513  -0.583  0.00  0.00    +0.043 C 
ATOM     11  C   UNL     1      -9.201  -4.930   0.828  0.00  0.00    +0.010 C 
ATOM     12  C   UNL     1      -8.433  -3.934   1.719  0.00  0.00    +0.037 C 
ATOM     13  N   UNL     1      -6.220  -2.615   3.645  0.00  0.00    -0.318 N 
ATOM     14  C   UNL     1      -6.099  -3.788   4.524  0.00  0.00    +0.088 C 
ATOM     15  C   UNL     1      -5.954  -3.299   5.969  0.00  0.00    -0.059 C 
ATOM     16  N   UNL     1      -7.073  -2.408   6.298  0.00  0.00    +0.387 N 
ATOM     17  C   UNL     1      -7.013  -1.201   5.465  0.00  0.00    -0.059 C 
ATOM     18  C   UNL     1      -7.207  -1.583   3.998  0.00  0.00    +0.088 C 
ATOM     19  H   UNL     1      -7.944  -2.888   6.130  0.00  0.00    -0.081 HD
ENDROOT
BRANCH   1  20
ATOM     20  S   UNL     1      -1.838  -1.075   1.758  0.00  0.00    -0.082 S 
BRANCH  20  21
ATOM     21  C   UNL     1      -1.136  -1.080   0.086  0.00  0.00    +0.107 C 
BRANCH  21  23
ATOM     22  C   UNL     1       0.410   1.016   0.257  0.00  0.00    +0.039 C 
ATOM     23  C   UNL     1       0.244  -0.475   0.118  0.00  0.00    -0.069 C 
ATOM     24  C   UNL     1       1.299  -1.246   0.026  0.00  0.00    +0.008 C 
ENDBRANCH  21  23
ENDBRANCH  20  21
ENDBRANCH   1  20
BRANCH  16  25
ATOM     25  C   UNL     1      -6.993  -2.027   7.715  0.00  0.00    +0.018 C 
BRANCH  25  26
ATOM     26  C   UNL     1      -8.206  -1.213   8.085  0.00  0.00    +0.194 C 
ATOM     27  O   UNL     1      -9.054  -0.974   7.252  0.00  0.00    -0.278 OA
ATOM     28  N   UNL     1      -8.349  -0.751   9.343  0.00  0.00    -0.331 N 
ATOM     29  H   UNL     1      -7.671  -0.943  10.010  0.00  0.00    +0.145 HD
ATOM     30  H   UNL     1      -9.130  -0.228   9.582  0.00  0.00    +0.145 HD
ENDBRANCH  25  26
ENDBRANCH  16  25
TORSDOF 5
