REMARK  Name = ZINC17831554
REMARK  10 active torsions:
REMARK  status: ('A' for Active; 'I' for Inactive)
REMARK    1  A    between atoms: C_1  and  C_2
REMARK    2  A    between atoms: C_3  and  N_15
REMARK    3  A    between atoms: N_6  and  C_9
REMARK    4  A    between atoms: N_7  and  C_8
REMARK    5  A    between atoms: C_16  and  C_18
REMARK    6  A    between atoms: C_18  and  C_20
REMARK    7  A    between atoms: C_18  and  O_21
REMARK    8  A    between atoms: O_21  and  C_22
REMARK    9  A    between atoms: C_22  and  C_24
REMARK   10  A    between atoms: C_25  and  C_26
REMARK                            x       y       z     vdW  Elec       q    Type
REMARK                         _______ _______ _______ _____ _____    ______ ____
ROOT
ATOM      1  N   UNL     1       7.408   1.059   0.529  0.00  0.00    -0.277 N 
ATOM      2  C   UNL     1       6.178   1.474   0.168  0.00  0.00    +0.258 C 
ATOM      3  O   UNL     1       5.774   2.560   0.527  0.00  0.00    -0.271 OA
ATOM      4  H   UNL     1       7.703   0.163   0.304  0.00  0.00    +0.155 HD
ENDROOT
BRANCH   1   7
ATOM      5  C   UNL     1       8.655   0.448   3.265  0.00  0.00    +0.067 C 
ATOM      6  C   UNL     1       8.833   1.694   2.436  0.00  0.00    +0.059 A 
ATOM      7  C   UNL     1       8.266   1.928   1.232  0.00  0.00    +0.121 A 
ATOM      8  C   UNL     1       8.714   3.249   0.791  0.00  0.00    +0.293 A 
ATOM      9  O   UNL     1       8.418   3.805  -0.251  0.00  0.00    -0.264 OA
ATOM     10  N   UNL     1       9.517   3.736   1.761  0.00  0.00    -0.216 N 
ATOM     11  N   UNL     1       9.597   2.778   2.778  0.00  0.00    -0.282 N 
ATOM     12  C   UNL     1      10.374   2.914   4.013  0.00  0.00    +0.171 C 
BRANCH  10  13
ATOM     13  C   UNL     1      10.161   4.977   1.748  0.00  0.00    +0.067 A 
ATOM     14  C   UNL     1      10.098   5.805   2.861  0.00  0.00    +0.028 A 
ATOM     15  C   UNL     1      10.740   7.028   2.848  0.00  0.00    +0.002 A 
ATOM     16  C   UNL     1      11.435   7.433   1.723  0.00  0.00    +0.000 A 
ATOM     17  C   UNL     1      11.495   6.613   0.611  0.00  0.00    +0.002 A 
ATOM     18  C   UNL     1      10.860   5.387   0.620  0.00  0.00    +0.028 A 
ENDBRANCH  10  13
ENDBRANCH   1   7
BRANCH   2  19
ATOM     19  C   UNL     1       5.303   0.588  -0.682  0.00  0.00    +0.259 C 
ATOM     20  C   UNL     1       6.003   0.306  -2.013  0.00  0.00    +0.062 C 
BRANCH  19  21
ATOM     21  O   UNL     1       4.058   1.243  -0.929  0.00  0.00    -0.449 OA
BRANCH  21  22
ATOM     22  C   UNL     1       2.974   0.457  -1.097  0.00  0.00    +0.333 C 
ATOM     23  O   UNL     1       3.085  -0.754  -1.036  0.00  0.00    -0.246 OA
BRANCH  22  24
ATOM     24  C   UNL     1       1.709   1.039  -1.345  0.00  0.00    +0.093 C 
ATOM     25  C   UNL     1       0.620   0.248  -1.514  0.00  0.00    +0.023 C 
BRANCH  25  26
ATOM     26  C   UNL     1      -0.646   0.831  -1.768  0.00  0.00    +0.032 A 
ATOM     27  C   UNL     1      -1.854   0.205  -1.971  0.00  0.00    +0.063 A 
ATOM     28  C   UNL     1      -3.005   0.978  -2.209  0.00  0.00    +0.008 A 
ATOM     29  C   UNL     1      -4.330   0.527  -2.439  0.00  0.00    +0.010 A 
ATOM     30  C   UNL     1      -5.338   1.412  -2.654  0.00  0.00    +0.001 A 
ATOM     31  C   UNL     1      -5.114   2.784  -2.658  0.00  0.00    +0.001 A 
ATOM     32  C   UNL     1      -3.839   3.265  -2.439  0.00  0.00    +0.016 A 
ATOM     33  C   UNL     1      -2.806   2.379  -2.219  0.00  0.00    +0.021 A 
ATOM     34  S   UNL     1      -1.070   2.560  -1.896  0.00  0.00    -0.087 S 
ATOM     35 CL   UNL     1      -1.957  -1.528  -1.933  0.00  0.00    -0.082 Cl
ENDBRANCH  25  26
ENDBRANCH  22  24
ENDBRANCH  21  22
ENDBRANCH  19  21
ENDBRANCH   2  19
TORSDOF 7
