REMARK  Name = ZINC24757193
REMARK  7 active torsions:
REMARK  status: ('A' for Active; 'I' for Inactive)
REMARK    1  A    between atoms: C_1  and  C_2
REMARK    2  A    between atoms: C_15  and  C_17
REMARK    3  A    between atoms: C_17  and  N_18
REMARK    4  A    between atoms: N_18  and  C_19
REMARK    5  A    between atoms: N_18  and  C_20
REMARK    6  A    between atoms: C_20  and  C_21
REMARK    7  A    between atoms: N_23  and  C_24
REMARK                            x       y       z     vdW  Elec       q    Type
REMARK                         _______ _______ _______ _____ _____    ______ ____
ROOT
ATOM      1  N   UNL     1       0.030   4.537  -3.288  0.00  0.00    +0.389 N 
ATOM      2  C   UNL     1      -1.171   5.279  -2.881  0.00  0.00    -0.095 C 
ATOM      3  H   UNL     1       0.861   5.255  -3.363  0.00  0.00    -0.081 HD
ENDROOT
BRANCH   1   4
ATOM      4  C   UNL     1       0.393   3.530  -2.283  0.00  0.00    +0.019 C 
BRANCH   4  18
ATOM      5  C   UNL     1       0.456   4.065   2.316  0.00  0.00    +0.029 C 
ATOM      6  C   UNL     1       1.599   4.144   1.302  0.00  0.00    +0.087 C 
ATOM      7  C   UNL     1       2.835   3.448   1.874  0.00  0.00    +0.118 C 
ATOM      8  C   UNL     1       3.823   3.161   0.775  0.00  0.00    +0.219 C 
ATOM      9  O   UNL     1       4.819   3.845   0.665  0.00  0.00    -0.275 OA
ATOM     10  N   UNL     1       3.607   2.147  -0.091  0.00  0.00    -0.284 N 
ATOM     11  C   UNL     1       2.417   1.411  -0.039  0.00  0.00    +0.055 A 
ATOM     12  C   UNL     1       2.438   0.026  -0.043  0.00  0.00    +0.025 A 
ATOM     13  C   UNL     1       1.249  -0.680  -0.022  0.00  0.00    +0.002 A 
ATOM     14  C   UNL     1       0.040  -0.008  -0.003  0.00  0.00    +0.002 A 
ATOM     15  C   UNL     1       0.011   1.374   0.006  0.00  0.00    +0.025 A 
ATOM     16  C   UNL     1       1.198   2.088  -0.002  0.00  0.00    +0.058 A 
ATOM     17  N   UNL     1       1.190   3.488   0.059  0.00  0.00    -0.268 N 
ATOM     18  C   UNL     1       0.811   4.218  -1.009  0.00  0.00    +0.204 C 
ATOM     19  O   UNL     1       0.808   5.429  -0.945  0.00  0.00    -0.277 OA
ATOM     20  H   UNL     1       4.369   1.894  -0.843  0.00  0.00    +0.155 HD
ENDBRANCH   4  18
ENDBRANCH   1   4
BRANCH   1  21
ATOM     21  C   UNL     1      -0.155   3.921  -4.609  0.00  0.00    +0.019 C 
BRANCH  21  22
ATOM     22  C   UNL     1      -0.282   5.000  -5.653  0.00  0.00    +0.201 C 
ATOM     23  O   UNL     1      -0.224   6.167  -5.329  0.00  0.00    -0.278 OA
ATOM     24  N   UNL     1      -0.459   4.668  -6.947  0.00  0.00    -0.287 N 
ATOM     25  H   UNL     1      -0.435   3.611  -7.252  0.00  0.00    +0.155 HD
BRANCH  24  26
ATOM     26  C   UNL     1      -0.674   5.668  -7.904  0.00  0.00    +0.037 A 
ATOM     27  C   UNL     1      -1.520   5.429  -8.979  0.00  0.00    +0.027 A 
ATOM     28  C   UNL     1      -1.739   6.415  -9.923  0.00  0.00    +0.051 A 
ATOM     29  C   UNL     1      -1.103   7.639  -9.800  0.00  0.00    +0.162 A 
ATOM     30  C   UNL     1      -0.253   7.879  -8.729  0.00  0.00    +0.164 A 
ATOM     31  C   UNL     1      -0.036   6.895  -7.780  0.00  0.00    +0.072 A 
ATOM     32  O   UNL     1       0.367   9.090  -8.618  0.00  0.00    -0.488 OA
ATOM     33  C   UNL     1       1.359   9.377  -9.606  0.00  0.00    +0.232 C 
ATOM     34  C   UNL     1       0.720   9.945 -10.863  0.00  0.00    +0.082 C 
ATOM     35  C   UNL     1      -0.188   8.941 -11.555  0.00  0.00    +0.232 C 
ATOM     36  O   UNL     1      -1.309   8.618 -10.729  0.00  0.00    -0.488 OA
ENDBRANCH  24  26
ENDBRANCH  21  22
ENDBRANCH   1  21
TORSDOF 5
