REMARK  Name = ZINC13065560
REMARK  9 active torsions:
REMARK  status: ('A' for Active; 'I' for Inactive)
REMARK    1  A    between atoms: C_4  and  C_7
REMARK    2  A    between atoms: C_7  and  C_8
REMARK    3  A    between atoms: C_8  and  N_63
REMARK    4  A    between atoms: C_9  and  C_10
REMARK    5  A    between atoms: C_9  and  N_63
REMARK    6  A    between atoms: C_25  and  C_26
REMARK    7  A    between atoms: C_25  and  N_63
REMARK    8  A    between atoms: N_30  and  C_31
REMARK    9  A    between atoms: C_31  and  C_32
REMARK                            x       y       z     vdW  Elec       q    Type
REMARK                         _______ _______ _______ _____ _____    ______ ____
ROOT
ATOM      1  N   UNL     1       1.786  -2.832  -1.518  0.00  0.00    +0.387 N 
ATOM      2  H   UNL     1       0.971  -2.703  -2.129  0.00  0.00    -0.081 HD
ENDROOT
BRANCH   1   3
ATOM      3  C   UNL     1       2.994  -2.349  -2.221  0.00  0.00    -0.073 C 
BRANCH   3   4
ATOM      4  C   UNL     1       2.978  -2.891  -3.652  0.00  0.00    +0.016 C 
BRANCH   4   8
ATOM      5  C   UNL     1       6.582  -1.753  -5.644  0.00  0.00    +0.000 A 
ATOM      6  C   UNL     1       6.524  -2.945  -4.946  0.00  0.00    +0.000 A 
ATOM      7  C   UNL     1       5.358  -3.313  -4.302  0.00  0.00    +0.003 A 
ATOM      8  C   UNL     1       4.250  -2.489  -4.355  0.00  0.00    -0.049 A 
ATOM      9  C   UNL     1       4.305  -1.300  -5.057  0.00  0.00    +0.003 A 
ATOM     10  C   UNL     1       5.473  -0.929  -5.698  0.00  0.00    +0.000 A 
ENDBRANCH   4   8
ENDBRANCH   3   4
ENDBRANCH   1   3
BRANCH   1  11
ATOM     11  C   UNL     1       1.926  -4.269  -1.202  0.00  0.00    -0.037 C 
BRANCH  11  12
ATOM     12  C   UNL     1       0.559  -4.837  -0.922  0.00  0.00    +0.001 A 
ATOM     13  C   UNL     1      -0.153  -5.413  -1.924  0.00  0.00    +0.017 A 
ATOM     14  C   UNL     1      -1.476  -5.956  -1.621  0.00  0.00    +0.002 A 
ATOM     15  C   UNL     1      -2.253  -6.563  -2.615  0.00  0.00    +0.059 A 
ATOM     16  C   UNL     1      -3.496  -7.065  -2.299  0.00  0.00    +0.167 A 
ATOM     17  C   UNL     1      -3.983  -6.971  -0.989  0.00  0.00    +0.168 A 
ATOM     18  C   UNL     1      -3.222  -6.373  -0.001  0.00  0.00    +0.075 A 
ATOM     19  C   UNL     1      -1.966  -5.862  -0.304  0.00  0.00    +0.053 A 
ATOM     20  N   UNL     1      -1.193  -5.264   0.670  0.00  0.00    -0.322 N 
ATOM     21  H   UNL     1      -1.531  -5.199   1.577  0.00  0.00    +0.169 HD
ATOM     22  C   UNL     1       0.025  -4.773   0.382  0.00  0.00    +0.251 A 
ATOM     23  O   UNL     1       0.683  -4.256   1.268  0.00  0.00    -0.268 OA
ATOM     24  O   UNL     1      -5.222  -7.540  -0.946  0.00  0.00    -0.453 OA
ATOM     25  C   UNL     1      -5.318  -8.346  -2.135  0.00  0.00    +0.466 C 
ATOM     26  O   UNL     1      -4.435  -7.693  -3.066  0.00  0.00    -0.453 OA
ENDBRANCH  11  12
ENDBRANCH   1  11
BRANCH   1  27
ATOM     27  C   UNL     1       1.582  -2.058  -0.275  0.00  0.00    +0.001 C 
BRANCH  27  28
ATOM     28  C   UNL     1       1.294  -0.624  -0.636  0.00  0.00    +0.135 A 
ATOM     29  N   UNL     1       2.176   0.319  -0.861  0.00  0.00    -0.115 NA
ATOM     30  N   UNL     1       1.537   1.403  -1.139  0.00  0.00    -0.023 NA
ATOM     31  N   UNL     1       0.271   1.176  -1.097  0.00  0.00    -0.044 NA
ATOM     32  N   UNL     1       0.080  -0.062  -0.790  0.00  0.00    -0.227 N 
BRANCH  32  33
ATOM     33  C   UNL     1      -1.214  -0.732  -0.638  0.00  0.00    +0.182 C 
BRANCH  33  34
ATOM     34  C   UNL     1      -1.726  -1.149  -1.993  0.00  0.00    -0.026 A 
ATOM     35  C   UNL     1      -2.433  -0.251  -2.770  0.00  0.00    +0.008 A 
ATOM     36  C   UNL     1      -2.899  -0.631  -4.014  0.00  0.00    +0.038 A 
ATOM     37  C   UNL     1      -2.667  -1.915  -4.478  0.00  0.00    +0.123 A 
ATOM     38  C   UNL     1      -1.963  -2.815  -3.696  0.00  0.00    +0.038 A 
ATOM     39  C   UNL     1      -1.494  -2.431  -2.454  0.00  0.00    +0.008 A 
ATOM     40  F   UNL     1      -3.126  -2.288  -5.692  0.00  0.00    -0.205 F 
ENDBRANCH  33  34
ENDBRANCH  32  33
ENDBRANCH  27  28
ENDBRANCH   1  27
TORSDOF 9
