REMARK  Name = ZINC54614921
REMARK  17 active torsions:
REMARK  status: ('A' for Active; 'I' for Inactive)
REMARK    1  A    between atoms: C_1  and  C_2
REMARK    2  A    between atoms: C_2  and  C_3
REMARK    3  A    between atoms: C_3  and  C_4
REMARK    4  A    between atoms: C_4  and  C_5
REMARK    5  A    between atoms: C_5  and  O_6
REMARK    6  A    between atoms: O_6  and  C_7
REMARK    7  A    between atoms: C_10  and  C_13
REMARK    8  A    between atoms: C_15  and  C_29
REMARK    9  A    between atoms: C_16  and  C_28
REMARK   10  A    between atoms: C_21  and  S_23
REMARK   11  A    between atoms: S_23  and  C_24
REMARK   12  A    between atoms: C_24  and  C_25
REMARK   13  A    between atoms: C_25  and  C_26
REMARK   14  A    between atoms: C_26  and  C_27
REMARK   15  A    between atoms: N_31  and  C_32
REMARK   16  A    between atoms: C_36  and  C_39
REMARK   17  A    between atoms: C_37  and  C_38
REMARK                            x       y       z     vdW  Elec       q    Type
REMARK                         _______ _______ _______ _____ _____    ______ ____
ROOT
ATOM      1  C   UNL     1      -7.936  -6.651   0.037  0.00  0.00    +0.177 C 
ATOM      2  C   UNL     1      -7.987  -7.495  -1.209  0.00  0.00    +0.060 C 
ATOM      3  C   UNL     1      -7.894  -8.833  -1.191  0.00  0.00    +0.018 C 
ATOM      4  N   UNL     1      -7.756  -9.541  -0.022  0.00  0.00    -0.287 N 
ATOM      5  C   UNL     1      -7.978  -8.861   1.167  0.00  0.00    +0.219 A 
ATOM      6  N   UNL     1      -8.070  -7.509   1.211  0.00  0.00    -0.220 N 
ATOM      7  N   UNL     1      -8.300  -7.167   2.543  0.00  0.00    -0.141 NA
ATOM      8  C   UNL     1      -8.331  -8.293   3.223  0.00  0.00    +0.210 A 
ATOM      9  N   UNL     1      -8.132  -9.318   2.380  0.00  0.00    -0.187 NA
ATOM     10  C   UNL     1      -7.944  -9.584  -2.496  0.00  0.00    +0.061 C 
ATOM     11  H   UNL     1      -7.513 -10.480  -0.028  0.00  0.00    +0.155 HD
ENDROOT
BRANCH   1  15
ATOM     12  C   UNL     1      -4.202  -4.579   0.202  0.00  0.00    +0.121 A 
ATOM     13  C   UNL     1      -5.392  -3.866   0.172  0.00  0.00    +0.046 A 
ATOM     14  C   UNL     1      -6.598  -4.538   0.118  0.00  0.00    +0.009 A 
ATOM     15  C   UNL     1      -6.619  -5.920   0.095  0.00  0.00    -0.018 A 
ATOM     16  C   UNL     1      -5.435  -6.633   0.126  0.00  0.00    +0.009 A 
ATOM     17  C   UNL     1      -4.227  -5.966   0.173  0.00  0.00    +0.046 A 
BRANCH  12  18
ATOM     18  O   UNL     1      -3.015  -3.920   0.255  0.00  0.00    -0.492 OA
BRANCH  18  19
ATOM     19  C   UNL     1      -3.066  -2.493   0.282  0.00  0.00    +0.229 C 
BRANCH  19  20
ATOM     20  C   UNL     1      -1.643  -1.932   0.341  0.00  0.00    +0.041 C 
BRANCH  20  21
ATOM     21  C   UNL     1      -1.698  -0.404   0.370  0.00  0.00    +0.003 C 
BRANCH  21  23
ATOM     22  C   UNL     1      -0.330   1.685   0.458  0.00  0.00    +0.004 C 
ATOM     23  C   UNL     1      -0.275   0.156   0.429  0.00  0.00    -0.003 C 
ENDBRANCH  21  23
ENDBRANCH  20  21
ENDBRANCH  19  20
ENDBRANCH  18  19
ENDBRANCH  12  18
ENDBRANCH   1  15
BRANCH   2  24
ATOM     24  C   UNL     1      -8.140  -6.846  -2.457  0.00  0.00    +0.248 C 
ATOM     25  O   UNL     1      -9.242  -6.474  -2.818  0.00  0.00    -0.270 OA
ATOM     26  N   UNL     1      -7.067  -6.641  -3.246  0.00  0.00    -0.281 N 
ATOM     27  H   UNL     1      -6.201  -6.995  -2.989  0.00  0.00    +0.155 HD
BRANCH  26  28
ATOM     28  C   UNL     1      -7.202  -5.919  -4.436  0.00  0.00    +0.037 A 
ATOM     29  C   UNL     1      -8.370  -6.018  -5.182  0.00  0.00    +0.023 A 
ATOM     30  C   UNL     1      -8.499  -5.304  -6.356  0.00  0.00    +0.002 A 
ATOM     31  C   UNL     1      -7.468  -4.490  -6.790  0.00  0.00    +0.004 A 
ATOM     32  C   UNL     1      -6.305  -4.389  -6.050  0.00  0.00    -0.046 A 
ATOM     33  C   UNL     1      -6.171  -5.097  -4.871  0.00  0.00    -0.026 A 
ATOM     34  C   UNL     1      -4.905  -4.981  -4.062  0.00  0.00    +0.046 C 
ATOM     35  C   UNL     1      -5.184  -3.502  -6.527  0.00  0.00    +0.044 C 
ENDBRANCH  26  28
ENDBRANCH   2  24
BRANCH   8  36
ATOM     36  S   UNL     1      -8.591  -8.432   4.960  0.00  0.00    -0.084 S 
BRANCH  36  37
ATOM     37  C   UNL     1      -8.522 -10.218   5.272  0.00  0.00    +0.077 C 
BRANCH  37  38
ATOM     38  C   UNL     1      -8.735 -10.484   6.763  0.00  0.00    +0.011 C 
BRANCH  38  39
ATOM     39  C   UNL     1      -8.677 -11.990   7.027  0.00  0.00    -0.003 C 
ATOM     40  C   UNL     1      -8.890 -12.256   8.518  0.00  0.00    +0.004 C 
ENDBRANCH  38  39
ENDBRANCH  37  38
ENDBRANCH  36  37
ENDBRANCH   8  36
TORSDOF 12
