REMARK  Name = ZINC00855892
REMARK  6 active torsions:
REMARK  status: ('A' for Active; 'I' for Inactive)
REMARK    1  A    between atoms: C_1  and  C_2
REMARK    2  A    between atoms: C_7  and  N_8
REMARK    3  A    between atoms: N_8  and  S_9
REMARK    4  A    between atoms: S_9  and  C_12
REMARK    5  A    between atoms: C_16  and  S_18
REMARK    6  A    between atoms: S_18  and  C_21
REMARK                            x       y       z     vdW  Elec       q    Type
REMARK                         _______ _______ _______ _____ _____    ______ ____
ROOT
ATOM      1  C   UNL     1      -1.367   1.806  -0.108  0.00  0.00    +0.110 A 
ATOM      2  C   UNL     1      -0.138   1.178  -0.186  0.00  0.00    +0.029 A 
ATOM      3  C   UNL     1       1.019   1.931  -0.273  0.00  0.00    +0.004 A 
ATOM      4  C   UNL     1       0.947   3.311  -0.277  0.00  0.00    +0.027 A 
ATOM      5  C   UNL     1      -0.282   3.939  -0.193  0.00  0.00    +0.095 A 
ATOM      6  C   UNL     1      -1.438   3.187  -0.106  0.00  0.00    +0.056 A 
ENDROOT
BRANCH   1   7
ATOM      7  S   UNL     1      -2.841   0.847  -0.005  0.00  0.00    +0.072 S 
ATOM      8  O   UNL     1      -3.894   1.668  -0.492  0.00  0.00    -0.150 OA
ATOM      9  O   UNL     1      -2.541  -0.422  -0.570  0.00  0.00    -0.150 OA
BRANCH   7  10
ATOM     10  N   UNL     1      -3.146   0.590   1.602  0.00  0.00    -0.216 N 
ATOM     11  H   UNL     1      -3.177  -0.315   1.951  0.00  0.00    +0.174 HD
BRANCH  10  18
ATOM     12  C   UNL     1      -2.164   0.416   4.266  0.00  0.00    +0.046 C 
ATOM     13  C   UNL     1      -2.897   1.633   3.764  0.00  0.00    -0.028 A 
ATOM     14  C   UNL     1      -3.109   2.708   4.605  0.00  0.00    +0.005 A 
ATOM     15  C   UNL     1      -3.780   3.826   4.144  0.00  0.00    +0.000 A 
ATOM     16  C   UNL     1      -4.242   3.871   2.841  0.00  0.00    +0.002 A 
ATOM     17  C   UNL     1      -4.029   2.802   1.994  0.00  0.00    +0.025 A 
ATOM     18  C   UNL     1      -3.359   1.675   2.455  0.00  0.00    +0.051 A 
ENDBRANCH  10  18
ENDBRANCH   7  10
ENDBRANCH   1   7
BRANCH   5  19
ATOM     19  S   UNL     1      -0.374   5.699  -0.197  0.00  0.00    +0.025 S 
ATOM     20  O   UNL     1      -1.597   6.043   0.440  0.00  0.00    -0.164 OA
ATOM     21  O   UNL     1       0.884   6.172   0.263  0.00  0.00    -0.164 OA
BRANCH  19  22
ATOM     22  C   UNL     1      -0.520   6.209  -1.877  0.00  0.00    +0.094 A 
ATOM     23  C   UNL     1       0.615   6.477  -2.619  0.00  0.00    +0.028 A 
ATOM     24  C   UNL     1       0.500   6.873  -3.938  0.00  0.00    +0.017 A 
ATOM     25  C   UNL     1      -0.750   7.012  -4.513  0.00  0.00    +0.018 A 
ATOM     26  C   UNL     1      -1.886   6.748  -3.768  0.00  0.00    +0.017 A 
ATOM     27  C   UNL     1      -1.770   6.348  -2.451  0.00  0.00    +0.028 A 
ATOM     28 BR   UNL     1      -0.907   7.560  -6.316  0.00  0.00    -0.050 Br
ENDBRANCH  19  22
ENDBRANCH   5  19
TORSDOF 5
