REMARK  Name = ZINC01876292
REMARK  12 active torsions:
REMARK  status: ('A' for Active; 'I' for Inactive)
REMARK    1  A    between atoms: C_1  and  C_2
REMARK    2  A    between atoms: C_3  and  O_40
REMARK    3  A    between atoms: C_9  and  O_13
REMARK    4  A    between atoms: O_13  and  C_14
REMARK    5  A    between atoms: C_14  and  C_16
REMARK    6  A    between atoms: C_16  and  C_18
REMARK    7  A    between atoms: C_16  and  N_29
REMARK    8  A    between atoms: C_18  and  C_19
REMARK    9  A    between atoms: C_30  and  O_32
REMARK   10  A    between atoms: O_32  and  C_33
REMARK   11  A    between atoms: C_33  and  C_34
REMARK   12  A    between atoms: O_40  and  C_41
REMARK                            x       y       z     vdW  Elec       q    Type
REMARK                         _______ _______ _______ _____ _____    ______ ____
ROOT
ATOM      1  C   UNL     1       4.173   0.632   1.358  0.00  0.00    +0.189 C 
ENDROOT
BRANCH   1   2
ATOM      2  N   UNL     1       3.848   1.968   1.862  0.00  0.00    -0.268 N 
ATOM      3  C   UNL     1       2.646   2.201   2.425  0.00  0.00    +0.401 C 
ATOM      4  O   UNL     1       1.832   1.303   2.515  0.00  0.00    -0.226 OA
ATOM      5  H   UNL     1       4.497   2.685   1.790  0.00  0.00    +0.153 HD
BRANCH   3   6
ATOM      6  O   UNL     1       2.346   3.429   2.889  0.00  0.00    -0.446 OA
BRANCH   6   7
ATOM      7  C   UNL     1       1.034   3.608   3.483  0.00  0.00    +0.269 C 
BRANCH   7   8
ATOM      8  C   UNL     1       0.880   5.035   3.941  0.00  0.00    -0.010 A 
ATOM      9  C   UNL     1       1.249   5.393   5.225  0.00  0.00    +0.007 A 
ATOM     10  C   UNL     1       1.112   6.703   5.643  0.00  0.00    +0.000 A 
ATOM     11  C   UNL     1       0.597   7.654   4.782  0.00  0.00    +0.000 A 
ATOM     12  C   UNL     1       0.222   7.295   3.501  0.00  0.00    +0.000 A 
ATOM     13  C   UNL     1       0.364   5.986   3.080  0.00  0.00    +0.007 A 
ENDBRANCH   7   8
ENDBRANCH   6   7
ENDBRANCH   3   6
ENDBRANCH   1   2
BRANCH   1  14
ATOM     14  C   UNL     1       5.669   0.446   1.356  0.00  0.00    +0.333 C 
ATOM     15  O   UNL     1       6.389   1.338   1.738  0.00  0.00    -0.248 OA
BRANCH  14  16
ATOM     16  O   UNL     1       6.201  -0.712   0.931  0.00  0.00    -0.424 OA
BRANCH  16  25
ATOM     17  C   UNL     1      12.514  -1.429   4.312  0.00  0.00    +0.090 C 
ATOM     18  C   UNL     1      11.765  -1.245   3.018  0.00  0.00    +0.148 A 
ATOM     19  C   UNL     1      12.469  -1.156   1.871  0.00  0.00    +0.213 A 
ATOM     20  C   UNL     1      11.781  -0.982   0.637  0.00  0.00    +0.235 A 
ATOM     21  O   UNL     1      12.383  -0.898  -0.420  0.00  0.00    -0.283 OA
ATOM     22  C   UNL     1      10.310  -0.908   0.690  0.00  0.00    +0.068 A 
ATOM     23  C   UNL     1       9.548  -0.740  -0.468  0.00  0.00    +0.019 A 
ATOM     24  C   UNL     1       8.187  -0.680  -0.379  0.00  0.00    +0.047 A 
ATOM     25  C   UNL     1       7.556  -0.777   0.859  0.00  0.00    +0.135 A 
ATOM     26  C   UNL     1       8.297  -0.946   2.016  0.00  0.00    +0.093 A 
ATOM     27  C   UNL     1       9.682  -1.013   1.943  0.00  0.00    +0.143 A 
ATOM     28  O   UNL     1      10.428  -1.177   3.054  0.00  0.00    -0.456 OA
BRANCH  19  29
ATOM     29  O   UNL     1      13.827  -1.232   1.894  0.00  0.00    -0.449 OA
BRANCH  29  30
ATOM     30  C   UNL     1      14.529  -0.077   2.036  0.00  0.00    +0.129 A 
ATOM     31  C   UNL     1      13.859   1.133   2.148  0.00  0.00    +0.046 A 
ATOM     32  C   UNL     1      14.574   2.305   2.298  0.00  0.00    +0.004 A 
ATOM     33  C   UNL     1      15.956   2.275   2.325  0.00  0.00    +0.000 A 
ATOM     34  C   UNL     1      16.626   1.071   2.209  0.00  0.00    +0.004 A 
ATOM     35  C   UNL     1      15.916  -0.105   2.064  0.00  0.00    +0.046 A 
ENDBRANCH  29  30
ENDBRANCH  19  29
ENDBRANCH  16  25
ENDBRANCH  14  16
ENDBRANCH   1  14
BRANCH   1  36
ATOM     36  C   UNL     1       3.639   0.480  -0.068  0.00  0.00    +0.071 C 
BRANCH  36  37
ATOM     37  C   UNL     1       2.134   0.544  -0.050  0.00  0.00    -0.020 A 
ATOM     38  C   UNL     1       1.291  -0.500  -0.005  0.00  0.00    +0.087 A 
ATOM     39  N   UNL     1      -0.003  -0.056  -0.003  0.00  0.00    -0.360 N 
ATOM     40  H   UNL     1      -0.788  -0.625   0.025  0.00  0.00    +0.165 HD
ATOM     41  C   UNL     1      -0.025   1.320  -0.048  0.00  0.00    +0.047 A 
ATOM     42  C   UNL     1       1.312   1.756  -0.079  0.00  0.00    +0.003 A 
ATOM     43  C   UNL     1       1.599   3.122  -0.127  0.00  0.00    +0.010 A 
ATOM     44  C   UNL     1       0.577   4.029  -0.143  0.00  0.00    +0.001 A 
ATOM     45  C   UNL     1      -0.744   3.604  -0.112  0.00  0.00    +0.002 A 
ATOM     46  C   UNL     1      -1.049   2.262  -0.060  0.00  0.00    +0.026 A 
ENDBRANCH  36  37
ENDBRANCH   1  36
TORSDOF 11
