REMARK  Name = ZINC33624619
REMARK  8 active torsions:
REMARK  status: ('A' for Active; 'I' for Inactive)
REMARK    1  A    between atoms: C_1  and  C_2
REMARK    2  A    between atoms: C_2  and  C_4
REMARK    3  A    between atoms: C_7  and  N_10
REMARK    4  A    between atoms: C_15  and  C_33
REMARK    5  A    between atoms: C_18  and  C_23
REMARK    6  A    between atoms: C_18  and  C_30
REMARK    7  A    between atoms: C_23  and  C_24
REMARK    8  A    between atoms: C_38  and  O_39
REMARK                            x       y       z     vdW  Elec       q    Type
REMARK                         _______ _______ _______ _____ _____    ______ ____
ROOT
ATOM      1  N   UNL     1      -0.971   1.426   0.361  0.00  0.00    -0.210 N 
ATOM      2  C   UNL     1      -0.828   2.787   0.256  0.00  0.00    +0.229 C 
ATOM      3  O   UNL     1      -1.628   3.639   0.577  0.00  0.00    -0.275 OA
ATOM      4  C   UNL     1       0.473   2.985  -0.323  0.00  0.00    +0.077 C 
ATOM      5  C   UNL     1       1.509   4.007  -0.524  0.00  0.00    -0.023 C 
ATOM      6  N   UNL     1       2.645   3.214  -1.107  0.00  0.00    +0.396 N 
ATOM      7  C   UNL     1       2.454   1.785  -0.716  0.00  0.00    +0.048 C 
ATOM      8  C   UNL     1       1.291   1.774   0.260  0.00  0.00    +0.086 C 
ATOM      9  C   UNL     1       0.203   0.753   0.167  0.00  0.00    +0.229 C 
ATOM     10  O   UNL     1       0.334  -0.433  -0.044  0.00  0.00    -0.275 OA
ATOM     11  H   UNL     1       2.636   3.313  -2.203  0.00  0.00    -0.083 HD
ATOM     12  H   UNL     1       3.598   3.593  -0.712  0.00  0.00    -0.083 HD
ENDROOT
BRANCH   1  16
ATOM     13  C   UNL     1      -4.598  -0.451   1.196  0.00  0.00    +0.017 A 
ATOM     14  C   UNL     1      -4.535   0.945   1.101  0.00  0.00    +0.013 A 
ATOM     15  C   UNL     1      -3.335   1.560   0.826  0.00  0.00    +0.024 A 
ATOM     16  C   UNL     1      -2.186   0.797   0.641  0.00  0.00    +0.044 A 
ATOM     17  C   UNL     1      -2.245  -0.590   0.729  0.00  0.00    +0.024 A 
ATOM     18  C   UNL     1      -3.439  -1.214   1.010  0.00  0.00    +0.013 A 
BRANCH  13  20
ATOM     19  C   UNL     1      -5.921  -2.603   1.708  0.00  0.00    +0.091 C 
ATOM     20  C   UNL     1      -5.876  -1.112   1.490  0.00  0.00    +0.160 C 
ATOM     21  O   UNL     1      -6.896  -0.459   1.558  0.00  0.00    -0.292 OA
ENDBRANCH  13  20
ENDBRANCH   1  16
BRANCH   5  22
ATOM     22  C   UNL     1       1.039   5.061  -1.493  0.00  0.00    -0.019 A 
ATOM     23  C   UNL     1       1.273   4.909  -2.846  0.00  0.00    +0.005 A 
ATOM     24  C   UNL     1       0.838   5.873  -3.737  0.00  0.00    +0.000 A 
ATOM     25  C   UNL     1       0.178   6.997  -3.274  0.00  0.00    +0.004 A 
ATOM     26  C   UNL     1      -0.053   7.156  -1.922  0.00  0.00    +0.045 A 
ATOM     27  C   UNL     1       0.377   6.187  -1.027  0.00  0.00    +0.118 A 
BRANCH  27  28
ATOM     28  O   UNL     1       0.151   6.341   0.304  0.00  0.00    -0.507 OA
ATOM     29  H   UNL     1      -0.374   7.235   0.673  0.00  0.00    +0.292 HD
ENDBRANCH  27  28
ENDBRANCH   5  22
BRANCH   7  30
ATOM     30  C   UNL     1       3.698   1.259  -0.048  0.00  0.00    +0.346 C 
ATOM     31  O   UNL     1       3.606   0.509   0.895  0.00  0.00    -0.248 OA
ATOM     32  O   UNL     1       4.908   1.623  -0.501  0.00  0.00    -0.248 OA
ENDBRANCH   7  30
BRANCH   7  33
ATOM     33  C   UNL     1       2.118   0.940  -1.946  0.00  0.00    +0.003 C 
BRANCH  33  34
ATOM     34  C   UNL     1       3.343   0.857  -2.858  0.00  0.00    -0.012 C 
ATOM     35  C   UNL     1       3.644   2.241  -3.436  0.00  0.00    +0.003 C 
ATOM     36  C   UNL     1       4.870   2.159  -4.348  0.00  0.00    +0.000 C 
ATOM     37  C   UNL     1       4.590   1.180  -5.490  0.00  0.00    +0.000 C 
ATOM     38  C   UNL     1       4.290  -0.205  -4.913  0.00  0.00    +0.000 C 
ATOM     39  C   UNL     1       3.064  -0.122  -4.000  0.00  0.00    +0.003 C 
ENDBRANCH  33  34
ENDBRANCH   7  33
TORSDOF 7
