REMARK  Name = ZINC14666008
REMARK  14 active torsions:
REMARK  status: ('A' for Active; 'I' for Inactive)
REMARK    1  A    between atoms: C_1  and  C_2
REMARK    2  A    between atoms: C_6  and  O_9
REMARK    3  A    between atoms: C_7  and  C_8
REMARK    4  A    between atoms: O_9  and  C_10
REMARK    5  A    between atoms: C_10  and  C_11
REMARK    6  A    between atoms: N_13  and  N_14
REMARK    7  A    between atoms: C_15  and  C_17
REMARK    8  A    between atoms: C_17  and  C_19
REMARK    9  A    between atoms: C_17  and  O_20
REMARK   10  A    between atoms: O_20  and  C_21
REMARK   11  A    between atoms: C_24  and  C_27
REMARK   12  A    between atoms: C_27  and  C_28
REMARK   13  A    between atoms: C_27  and  C_29
REMARK   14  A    between atoms: C_27  and  C_30
REMARK                            x       y       z     vdW  Elec       q    Type
REMARK                         _______ _______ _______ _____ _____    ______ ____
ROOT
ATOM      1  N   UNL     1      -0.555   1.863  -3.558  0.00  0.00    -0.231 N 
ATOM      2  C   UNL     1      -0.284   1.466  -4.817  0.00  0.00    +0.270 C 
ATOM      3  O   UNL     1       0.580   0.639  -5.019  0.00  0.00    -0.270 OA
ATOM      4  H   UNL     1      -1.246   2.525  -3.397  0.00  0.00    +0.173 HD
ENDROOT
BRANCH   1   7
ATOM      5  C   UNL     1      -0.111   1.719  -1.224  0.00  0.00    +0.267 C 
ATOM      6  O   UNL     1      -0.975   2.546  -1.022  0.00  0.00    -0.271 OA
ATOM      7  N   UNL     1       0.161   1.322  -2.483  0.00  0.00    -0.231 N 
ATOM      8  H   UNL     1       0.852   0.660  -2.644  0.00  0.00    +0.173 HD
BRANCH   5   9
ATOM      9  C   UNL     1       0.660   1.137  -0.067  0.00  0.00    +0.326 C 
BRANCH   9  10
ATOM     10  O   UNL     1       0.193   1.712   1.155  0.00  0.00    -0.482 OA
BRANCH  10  16
ATOM     11  C   UNL     1       0.550   1.942   6.017  0.00  0.00    +0.044 C 
ATOM     12  C   UNL     1       0.989   1.380   4.689  0.00  0.00    -0.044 A 
ATOM     13  C   UNL     1       1.998   0.436   4.638  0.00  0.00    +0.004 A 
ATOM     14  C   UNL     1       2.402  -0.081   3.421  0.00  0.00    +0.004 A 
ATOM     15  C   UNL     1       1.799   0.345   2.253  0.00  0.00    +0.046 A 
ATOM     16  C   UNL     1       0.787   1.292   2.302  0.00  0.00    +0.124 A 
ATOM     17  C   UNL     1       0.387   1.813   3.524  0.00  0.00    -0.006 A 
ATOM     18  C   UNL     1      -0.708   2.847   3.580  0.00  0.00    +0.048 C 
ENDBRANCH  10  16
ENDBRANCH   9  10
ENDBRANCH   5   9
ENDBRANCH   1   7
BRANCH   2  19
ATOM     19  C   UNL     1      -1.054   2.048  -5.974  0.00  0.00    +0.257 C 
ATOM     20  C   UNL     1      -2.523   1.635  -5.868  0.00  0.00    +0.062 C 
BRANCH  19  21
ATOM     21  O   UNL     1      -0.510   1.561  -7.202  0.00  0.00    -0.480 OA
BRANCH  21  22
ATOM     22  C   UNL     1      -0.697   2.329  -8.307  0.00  0.00    +0.122 A 
ATOM     23  C   UNL     1      -0.095   1.979  -9.507  0.00  0.00    +0.046 A 
ATOM     24  C   UNL     1      -0.291   2.758 -10.631  0.00  0.00    +0.008 A 
ATOM     25  C   UNL     1      -1.077   3.893 -10.557  0.00  0.00    -0.042 A 
ATOM     26  C   UNL     1      -1.673   4.248  -9.361  0.00  0.00    +0.008 A 
ATOM     27  C   UNL     1      -1.485   3.469  -8.236  0.00  0.00    +0.046 A 
BRANCH  25  28
ATOM     28  C   UNL     1      -1.284   4.745 -11.783  0.00  0.00    -0.013 C 
ATOM     29  C   UNL     1      -0.765   6.159 -11.515  0.00  0.00    +0.015 C 
ATOM     30  C   UNL     1      -0.522   4.137 -12.962  0.00  0.00    +0.015 C 
ATOM     31  C   UNL     1      -2.776   4.805 -12.116  0.00  0.00    +0.015 C 
ENDBRANCH  25  28
ENDBRANCH  21  22
ENDBRANCH  19  21
ENDBRANCH   2  19
TORSDOF 8
