REMARK  Name = ZINC66363523
REMARK  9 active torsions:
REMARK  status: ('A' for Active; 'I' for Inactive)
REMARK    1  A    between atoms: C_1  and  C_2
REMARK    2  A    between atoms: C_6  and  N_12
REMARK    3  A    between atoms: C_7  and  C_8
REMARK    4  A    between atoms: N_10  and  C_11
REMARK    5  A    between atoms: C_13  and  C_15
REMARK    6  A    between atoms: C_15  and  C_16
REMARK    7  A    between atoms: C_16  and  C_18
REMARK    8  A    between atoms: C_16  and  N_19
REMARK    9  A    between atoms: C_20  and  C_22
REMARK                            x       y       z     vdW  Elec       q    Type
REMARK                         _______ _______ _______ _____ _____    ______ ____
ROOT
ATOM      1  N   UNL     1       0.052  -2.828   2.384  0.00  0.00    -0.285 N 
ATOM      2  C   UNL     1      -0.032  -4.173   2.365  0.00  0.00    +0.219 C 
ATOM      3  O   UNL     1      -0.029  -4.766   1.307  0.00  0.00    -0.275 OA
ATOM      4  H   UNL     1       0.116  -2.358   3.230  0.00  0.00    +0.155 HD
ENDROOT
BRANCH   1  10
ATOM      5  C   UNL     1      -1.231   1.202  -0.166  0.00  0.00    +0.044 C 
ATOM      6  C   UNL     1      -0.570  -0.149  -0.083  0.00  0.00    -0.037 A 
ATOM      7  C   UNL     1       0.038  -0.689  -1.196  0.00  0.00    +0.004 A 
ATOM      8  C   UNL     1       0.648  -1.931  -1.127  0.00  0.00    +0.002 A 
ATOM      9  C   UNL     1       0.654  -2.641   0.057  0.00  0.00    +0.024 A 
ATOM     10  C   UNL     1       0.047  -2.113   1.188  0.00  0.00    +0.046 A 
ATOM     11  C   UNL     1      -0.567  -0.853   1.123  0.00  0.00    +0.061 A 
BRANCH  11  12
ATOM     12  C   UNL     1      -1.210  -0.278   2.319  0.00  0.00    +0.246 C 
ATOM     13  O   UNL     1      -2.384  -0.502   2.545  0.00  0.00    -0.270 OA
ATOM     14  N   UNL     1      -0.498   0.496   3.162  0.00  0.00    -0.314 N 
ATOM     15  C   UNL     1      -1.137   1.067   4.350  0.00  0.00    +0.128 C 
ATOM     16  H   UNL     1       0.439   0.675   2.981  0.00  0.00    +0.149 HD
ENDBRANCH  11  12
ENDBRANCH   1  10
BRANCH   2  17
ATOM     17  C   UNL     1      -0.129  -4.940   3.658  0.00  0.00    +0.118 C 
BRANCH  17  18
ATOM     18  C   UNL     1      -0.211  -6.438   3.358  0.00  0.00    +0.079 C 
ATOM     19  C   UNL     1      -0.184  -7.224   4.671  0.00  0.00    +0.028 C 
BRANCH  18  20
ATOM     20  N   UNL     1      -1.457  -6.725   2.643  0.00  0.00    -0.312 N 
ATOM     21  C   UNL     1      -1.542  -7.809   1.846  0.00  0.00    +0.216 C 
ATOM     22  O   UNL     1      -0.588  -8.546   1.721  0.00  0.00    -0.276 OA
ATOM     23  H   UNL     1      -2.220  -6.135   2.743  0.00  0.00    +0.149 HD
BRANCH  21  24
ATOM     24  C   UNL     1      -2.824  -8.104   1.111  0.00  0.00    +0.075 C 
ATOM     25  C   UNL     1      -3.958  -8.296   2.119  0.00  0.00    +0.013 C 
ATOM     26  C   UNL     1      -5.260  -8.595   1.372  0.00  0.00    +0.001 C 
ATOM     27  C   UNL     1      -5.091  -9.871   0.545  0.00  0.00    +0.000 C 
ATOM     28  C   UNL     1      -3.957  -9.679  -0.464  0.00  0.00    +0.001 C 
ATOM     29  C   UNL     1      -2.655  -9.380   0.283  0.00  0.00    +0.013 C 
ENDBRANCH  21  24
ENDBRANCH  18  20
ENDBRANCH  17  18
ENDBRANCH   2  17
TORSDOF 6
