REMARK  Name = ZINC60417380
REMARK  8 active torsions:
REMARK  status: ('A' for Active; 'I' for Inactive)
REMARK    1  A    between atoms: C_1  and  C_2
REMARK    2  A    between atoms: C_2  and  C_3
REMARK    3  A    between atoms: C_2  and  C_4
REMARK    4  A    between atoms: C_4  and  C_5
REMARK    5  A    between atoms: C_4  and  N_20
REMARK    6  A    between atoms: N_7  and  C_8
REMARK    7  A    between atoms: C_8  and  C_9
REMARK    8  A    between atoms: C_9  and  C_13
REMARK                            x       y       z     vdW  Elec       q    Type
REMARK                         _______ _______ _______ _____ _____    ______ ____
ROOT
ATOM      1  C   UNL     1       1.218   0.424  -2.052  0.00  0.00    +0.234 C 
ATOM      2  O   UNL     1       0.764  -0.585  -2.549  0.00  0.00    -0.274 OA
ATOM      3  N   UNL     1       0.902   1.629  -2.565  0.00  0.00    -0.313 N 
ATOM      4  H   UNL     1       1.206   2.439  -2.125  0.00  0.00    +0.149 HD
ENDROOT
BRANCH   1   5
ATOM      5  C   UNL     1       2.136   0.329  -0.861  0.00  0.00    +0.163 C 
BRANCH   5   6
ATOM      6  N   UNL     1       2.754  -0.998  -0.824  0.00  0.00    -0.288 N 
ATOM      7  C   UNL     1       3.938  -1.174  -0.205  0.00  0.00    +0.298 C 
ATOM      8  O   UNL     1       4.494  -0.230   0.324  0.00  0.00    -0.253 OA
ATOM      9  N   UNL     1       4.507  -2.396  -0.171  0.00  0.00    -0.313 N 
ATOM     10  H   UNL     1       2.311  -1.751  -1.246  0.00  0.00    +0.151 HD
ATOM     11  H   UNL     1       4.064  -3.148  -0.593  0.00  0.00    +0.146 HD
ATOM     12  H   UNL     1       5.359  -2.522   0.274  0.00  0.00    +0.146 HD
ENDBRANCH   5   6
BRANCH   5  14
ATOM     13  C   UNL     1       0.196  -0.468   0.496  0.00  0.00    +0.009 C 
ATOM     14  C   UNL     1       1.333   0.553   0.422  0.00  0.00    +0.012 C 
ATOM     15  C   UNL     1       2.250   0.384   1.635  0.00  0.00    +0.009 C 
ENDBRANCH   5  14
ENDBRANCH   1   5
BRANCH   3  16
ATOM     16  C   UNL     1       0.101   1.717  -3.788  0.00  0.00    +0.115 C 
BRANCH  16  17
ATOM     17  C   UNL     1      -0.012   3.181  -4.220  0.00  0.00    +0.011 C 
ATOM     18  C   UNL     1      -0.459   3.360  -5.680  0.00  0.00    +0.013 C 
ATOM     19  C   UNL     1       1.030   3.307  -6.060  0.00  0.00    +0.002 C 
ATOM     20  C   UNL     1       1.330   3.805  -4.636  0.00  0.00    +0.013 C 
BRANCH  17  21
ATOM     21  C   UNL     1      -0.791   4.021  -3.241  0.00  0.00    -0.040 A 
ATOM     22  C   UNL     1      -0.162   5.040  -2.551  0.00  0.00    +0.005 A 
ATOM     23  C   UNL     1      -0.876   5.811  -1.653  0.00  0.00    +0.015 A 
ATOM     24  C   UNL     1      -2.221   5.564  -1.446  0.00  0.00    +0.018 A 
ATOM     25  C   UNL     1      -2.851   4.544  -2.137  0.00  0.00    +0.015 A 
ATOM     26  C   UNL     1      -2.137   3.777  -3.038  0.00  0.00    +0.005 A 
ATOM     27 BR   UNL     1      -3.199   6.619  -0.218  0.00  0.00    -0.050 Br
ENDBRANCH  17  21
ENDBRANCH  16  17
ENDBRANCH   3  16
TORSDOF 6
