REMARK  Name = ZINC39666207
REMARK  13 active torsions:
REMARK  status: ('A' for Active; 'I' for Inactive)
REMARK    1  A    between atoms: C_1  and  C_2
REMARK    2  A    between atoms: C_2  and  C_3
REMARK    3  A    between atoms: C_3  and  C_4
REMARK    4  A    between atoms: C_4  and  C_5
REMARK    5  A    between atoms: C_5  and  C_7
REMARK    6  A    between atoms: C_5  and  C_8
REMARK    7  A    between atoms: C_12  and  C_21
REMARK    8  A    between atoms: N_23  and  C_24
REMARK    9  A    between atoms: C_24  and  C_25
REMARK   10  A    between atoms: C_25  and  C_27
REMARK   11  A    between atoms: C_25  and  O_28
REMARK   12  A    between atoms: O_28  and  C_29
REMARK   13  A    between atoms: C_32  and  C_35
REMARK                            x       y       z     vdW  Elec       q    Type
REMARK                         _______ _______ _______ _____ _____    ______ ____
ROOT
ATOM      1  C   UNL     1      -2.812  -4.112  -0.125  0.00  0.00    +0.218 C 
ATOM      2  O   UNL     1      -1.753  -4.695  -0.226  0.00  0.00    -0.275 OA
ATOM      3  N   UNL     1      -3.967  -4.806  -0.141  0.00  0.00    -0.300 N 
ATOM      4  C   UNL     1      -5.347  -4.276  -0.038  0.00  0.00    +0.121 C 
ATOM      5  C   UNL     1      -6.168  -5.127  -1.033  0.00  0.00    +0.100 C 
ATOM      6  C   UNL     1      -5.375  -6.436  -1.177  0.00  0.00    -0.004 C 
ATOM      7  C   UNL     1      -4.145  -6.273  -0.272  0.00  0.00    +0.115 C 
ATOM      8  C   UNL     1      -6.219  -7.619  -0.714  0.00  0.00    -0.010 C 
ATOM      9  C   UNL     1      -5.431  -8.916  -0.920  0.00  0.00    -0.082 C 
ATOM     10  N   UNL     1      -5.087  -9.060  -2.340  0.00  0.00    +0.379 N 
ATOM     11  C   UNL     1      -4.199  -7.968  -2.754  0.00  0.00    -0.082 C 
ATOM     12  C   UNL     1      -4.935  -6.632  -2.625  0.00  0.00    -0.010 C 
ATOM     13  H   UNL     1      -4.621  -9.944  -2.484  0.00  0.00    -0.086 HD
ATOM     14  H   UNL     1      -5.931  -9.034  -2.893  0.00  0.00    -0.086 HD
ENDROOT
BRANCH   5  15
ATOM     15  C   UNL     1      -6.271  -4.425  -2.363  0.00  0.00    +0.218 C 
ATOM     16  O   UNL     1      -5.423  -3.623  -2.692  0.00  0.00    -0.275 OA
ATOM     17  N   UNL     1      -7.306  -4.688  -3.185  0.00  0.00    -0.312 N 
ATOM     18  H   UNL     1      -7.984  -5.329  -2.921  0.00  0.00    +0.149 HD
BRANCH  17  19
ATOM     19  C   UNL     1      -7.407  -4.005  -4.477  0.00  0.00    +0.148 C 
BRANCH  19  20
ATOM     20  C   UNL     1      -8.663  -4.481  -5.209  0.00  0.00    +0.187 C 
ATOM     21  C   UNL     1      -8.768  -3.768  -6.559  0.00  0.00    +0.053 C 
BRANCH  20  22
ATOM     22  O   UNL     1      -8.586  -5.892  -5.420  0.00  0.00    -0.488 OA
BRANCH  22  23
ATOM     23  C   UNL     1      -9.761  -6.560  -5.563  0.00  0.00    +0.121 A 
ATOM     24  C   UNL     1      -9.767  -7.945  -5.651  0.00  0.00    +0.046 A 
ATOM     25  C   UNL     1     -10.962  -8.621  -5.795  0.00  0.00    +0.007 A 
ATOM     26  C   UNL     1     -12.153  -7.920  -5.852  0.00  0.00    -0.050 A 
ATOM     27  C   UNL     1     -12.149  -6.540  -5.764  0.00  0.00    +0.007 A 
ATOM     28  C   UNL     1     -10.957  -5.859  -5.614  0.00  0.00    +0.046 A 
ATOM     29  C   UNL     1     -13.456  -8.661  -6.009  0.00  0.00    +0.044 C 
ENDBRANCH  22  23
ENDBRANCH  20  22
ENDBRANCH  19  20
ENDBRANCH  17  19
ENDBRANCH   5  15
BRANCH   1  30
ATOM     30  C   UNL     1      -2.837  -2.612   0.018  0.00  0.00    +0.072 C 
ATOM     31  C   UNL     1      -3.512  -2.237   1.338  0.00  0.00    +0.017 C 
BRANCH  30  32
ATOM     32  C   UNL     1      -1.404  -2.076   0.007  0.00  0.00    +0.012 C 
BRANCH  32  33
ATOM     33  C   UNL     1      -1.432  -0.546   0.026  0.00  0.00    +0.000 C 
BRANCH  33  35
ATOM     34  C   UNL     1      -0.028   1.520   0.035  0.00  0.00    +0.004 C 
ATOM     35  C   UNL     1       0.001  -0.009   0.015  0.00  0.00    -0.003 C 
ENDBRANCH  33  35
ENDBRANCH  32  33
ENDBRANCH  30  32
ENDBRANCH   1  30
TORSDOF 9
