REMARK  Name = ZINC32854162
REMARK  9 active torsions:
REMARK  status: ('A' for Active; 'I' for Inactive)
REMARK    1  A    between atoms: C_1  and  C_2
REMARK    2  A    between atoms: C_2  and  C_4
REMARK    3  A    between atoms: C_2  and  S_18
REMARK    4  A    between atoms: N_10  and  C_11
REMARK    5  A    between atoms: S_18  and  C_19
REMARK    6  A    between atoms: C_19  and  C_20
REMARK    7  A    between atoms: N_22  and  C_23
REMARK    8  A    between atoms: C_23  and  C_24
REMARK    9  A    between atoms: C_24  and  C_25
REMARK                            x       y       z     vdW  Elec       q    Type
REMARK                         _______ _______ _______ _____ _____    ______ ____
ROOT
ATOM      1  C   UNL     1       3.499   1.546   0.164  0.00  0.00    +0.149 A 
ATOM      2  N   UNL     1       3.546   2.866   0.118  0.00  0.00    -0.198 NA
ATOM      3  C   UNL     1       2.420   3.572   0.035  0.00  0.00    +0.217 A 
ATOM      4  N   UNL     1       1.248   2.947  -0.002  0.00  0.00    -0.181 NA
ATOM      5  C   UNL     1       1.205   1.620   0.045  0.00  0.00    +0.224 A 
ATOM      6  N   UNL     1       2.335   0.922   0.134  0.00  0.00    -0.198 NA
ATOM      7  N   UNL     1      -0.011   0.966   0.007  0.00  0.00    -0.284 N 
ATOM      8  N   UNL     1       2.470   4.950  -0.014  0.00  0.00    -0.327 N 
ATOM      9  H   UNL     1      -0.053  -0.126   0.139  0.00  0.00    +0.155 HD
ATOM     10  H   UNL     1       1.540   5.532  -0.083  0.00  0.00    +0.145 HD
ATOM     11  H   UNL     1       3.441   5.466   0.016  0.00  0.00    +0.145 HD
ENDROOT
BRANCH   7  12
ATOM     12  C   UNL     1      -1.189   1.691  -0.198  0.00  0.00    +0.034 A 
ATOM     13  C   UNL     1      -2.354   1.328   0.465  0.00  0.00    +0.023 A 
ATOM     14  C   UNL     1      -3.514   2.050   0.264  0.00  0.00    +0.002 A 
ATOM     15  C   UNL     1      -3.520   3.126  -0.605  0.00  0.00    +0.000 A 
ATOM     16  C   UNL     1      -2.362   3.486  -1.272  0.00  0.00    +0.002 A 
ATOM     17  C   UNL     1      -1.198   2.772  -1.071  0.00  0.00    +0.023 A 
ENDBRANCH   7  12
BRANCH   1  19
ATOM     18  C   UNL     1       5.335   0.851   1.679  0.00  0.00    +0.027 C 
ATOM     19  C   UNL     1       4.776   0.752   0.259  0.00  0.00    +0.112 C 
BRANCH  19  20
ATOM     20  S   UNL     1       5.989   1.415  -0.916  0.00  0.00    -0.141 S 
BRANCH  20  21
ATOM     21  C   UNL     1       7.392   0.272  -0.790  0.00  0.00    +0.165 C 
BRANCH  21  22
ATOM     22  C   UNL     1       8.486   0.714  -1.728  0.00  0.00    +0.223 C 
ATOM     23  O   UNL     1       8.333   1.703  -2.414  0.00  0.00    -0.275 OA
ATOM     24  N   UNL     1       9.633   0.011  -1.805  0.00  0.00    -0.314 N 
ATOM     25  H   UNL     1       9.771  -0.886  -1.183  0.00  0.00    +0.149 HD
BRANCH  24  26
ATOM     26  C   UNL     1      10.696   0.440  -2.717  0.00  0.00    +0.108 C 
BRANCH  26  27
ATOM     27  C   UNL     1      11.879  -0.523  -2.611  0.00  0.00    +0.049 C 
BRANCH  27  28
ATOM     28  C   UNL     1      12.973  -0.082  -3.548  0.00  0.00    -0.072 C 
ATOM     29  C   UNL     1      13.918   0.662  -3.071  0.00  0.00    -0.028 C 
ATOM     30  C   UNL     1      15.067   1.187  -3.882  0.00  0.00    +0.027 C 
ATOM     31  C   UNL     1      15.194   0.397  -5.186  0.00  0.00    +0.004 C 
ATOM     32  C   UNL     1      13.813   0.331  -5.850  0.00  0.00    +0.005 C 
ATOM     33  C   UNL     1      12.901  -0.536  -4.977  0.00  0.00    +0.030 C 
ENDBRANCH  27  28
ENDBRANCH  26  27
ENDBRANCH  24  26
ENDBRANCH  21  22
ENDBRANCH  20  21
ENDBRANCH  19  20
ENDBRANCH   1  19
TORSDOF 8
