REMARK  Name = ZINC14033868
REMARK  9 active torsions:
REMARK  status: ('A' for Active; 'I' for Inactive)
REMARK    1  A    between atoms: C_1  and  C_2
REMARK    2  A    between atoms: C_2  and  C_4
REMARK    3  A    between atoms: C_2  and  O_23
REMARK    4  A    between atoms: N_6  and  N_7
REMARK    5  A    between atoms: C_8  and  C_10
REMARK    6  A    between atoms: C_10  and  O_11
REMARK    7  A    between atoms: O_11  and  C_12
REMARK    8  A    between atoms: O_23  and  C_24
REMARK    9  A    between atoms: C_29  and  N_30
REMARK                            x       y       z     vdW  Elec       q    Type
REMARK                         _______ _______ _______ _____ _____    ______ ____
ROOT
ATOM      1  N   UNL     1       3.484  10.166   0.319  0.00  0.00    -0.231 N 
ATOM      2  C   UNL     1       2.504   9.259   0.497  0.00  0.00    +0.267 C 
ATOM      3  O   UNL     1       1.366   9.627   0.701  0.00  0.00    -0.271 OA
ATOM      4  H   UNL     1       4.394   9.872   0.156  0.00  0.00    +0.173 HD
ENDROOT
BRANCH   1   7
ATOM      5  C   UNL     1       4.169  12.443   0.189  0.00  0.00    +0.270 C 
ATOM      6  O   UNL     1       5.306  12.075  -0.014  0.00  0.00    -0.270 OA
ATOM      7  N   UNL     1       3.189  11.535   0.368  0.00  0.00    -0.231 N 
ATOM      8  H   UNL     1       2.279  11.829   0.530  0.00  0.00    +0.173 HD
BRANCH   5  10
ATOM      9  C   UNL     1       2.926  14.279  -0.921  0.00  0.00    +0.062 C 
ATOM     10  C   UNL     1       3.851  13.915   0.242  0.00  0.00    +0.257 C 
BRANCH  10  11
ATOM     11  O   UNL     1       5.061  14.668   0.141  0.00  0.00    -0.478 OA
BRANCH  11  12
ATOM     12  C   UNL     1       5.058  15.917   0.676  0.00  0.00    +0.152 A 
ATOM     13  C   UNL     1       3.882  16.452   1.183  0.00  0.00    +0.048 A 
ATOM     14  C   UNL     1       3.881  17.722   1.726  0.00  0.00    +0.004 A 
ATOM     15  C   UNL     1       5.050  18.460   1.765  0.00  0.00    +0.002 A 
ATOM     16  C   UNL     1       6.222  17.929   1.261  0.00  0.00    +0.036 A 
ATOM     17  C   UNL     1       6.230  16.657   0.721  0.00  0.00    +0.168 A 
BRANCH  17  18
ATOM     18  N   UNL     1       7.487  16.087   0.187  0.00  0.00    +0.060 N 
ATOM     19  O   UNL     1       8.516  16.737   0.227  0.00  0.00    -0.126 OA
ATOM     20  O   UNL     1       7.492  14.967  -0.293  0.00  0.00    -0.126 OA
ENDBRANCH  17  18
ENDBRANCH  11  12
ENDBRANCH  10  11
ENDBRANCH   5  10
ENDBRANCH   1   7
BRANCH   2  21
ATOM     21  C   UNL     1       2.822   7.786   0.445  0.00  0.00    +0.326 C 
BRANCH  21  22
ATOM     22  O   UNL     1       1.627   7.033   0.661  0.00  0.00    -0.482 OA
BRANCH  22  23
ATOM     23  C   UNL     1       1.740   5.679   0.645  0.00  0.00    +0.136 A 
ATOM     24  C   UNL     1       2.990   5.093   0.422  0.00  0.00    +0.047 A 
ATOM     25  C   UNL     1       3.135   3.741   0.400  0.00  0.00    +0.012 A 
ATOM     26  C   UNL     1       2.015   2.916   0.604  0.00  0.00    -0.017 A 
ATOM     27  C   UNL     1       2.129   1.516   0.587  0.00  0.00    +0.008 A 
ATOM     28  C   UNL     1       1.024   0.747   0.787  0.00  0.00    +0.001 A 
ATOM     29  C   UNL     1      -0.225   1.328   1.004  0.00  0.00    +0.001 A 
ATOM     30  C   UNL     1      -0.372   2.680   1.033  0.00  0.00    +0.010 A 
ATOM     31  C   UNL     1       0.746   3.507   0.830  0.00  0.00    -0.000 A 
ATOM     32  C   UNL     1       0.630   4.907   0.847  0.00  0.00    +0.067 A 
ATOM     33 BR   UNL     1      -1.051   5.719   1.146  0.00  0.00    -0.046 Br
ENDBRANCH  22  23
ENDBRANCH  21  22
ENDBRANCH   2  21
TORSDOF 8
