REMARK  Name = ZINC61895271
REMARK  7 active torsions:
REMARK  status: ('A' for Active; 'I' for Inactive)
REMARK    1  A    between atoms: C_1  and  C_2
REMARK    2  A    between atoms: N_5  and  C_9
REMARK    3  A    between atoms: C_9  and  C_10
REMARK    4  A    between atoms: C_10  and  C_11
REMARK    5  A    between atoms: N_13  and  C_14
REMARK    6  A    between atoms: C_18  and  N_21
REMARK    7  A    between atoms: C_19  and  C_20
REMARK                            x       y       z     vdW  Elec       q    Type
REMARK                         _______ _______ _______ _____ _____    ______ ____
ROOT
ATOM      1  C   UNL     1       1.531  -6.211  -0.104  0.00  0.00    +0.219 C 
ATOM      2  O   UNL     1       0.489  -6.832  -0.116  0.00  0.00    -0.275 OA
ATOM      3  N   UNL     1       2.707  -6.869  -0.124  0.00  0.00    -0.285 N 
ATOM      4  H   UNL     1       3.538  -6.374  -0.195  0.00  0.00    +0.155 HD
ENDROOT
BRANCH   3   5
ATOM      5  C   UNL     1       2.729  -8.266  -0.042  0.00  0.00    +0.038 A 
ATOM      6  C   UNL     1       1.676  -8.944   0.559  0.00  0.00    +0.024 A 
ATOM      7  C   UNL     1       1.697 -10.323   0.640  0.00  0.00    +0.004 A 
ATOM      8  C   UNL     1       2.765 -11.032   0.125  0.00  0.00    +0.023 A 
ATOM      9  C   UNL     1       3.821 -10.360  -0.477  0.00  0.00    +0.029 A 
ATOM     10  C   UNL     1       3.800  -8.975  -0.565  0.00  0.00    -0.009 A 
ATOM     11  C   UNL     1       4.942  -8.243  -1.223  0.00  0.00    +0.047 C 
BRANCH   9  12
ATOM     12  N   UNL     1       4.901 -11.078  -0.997  0.00  0.00    -0.358 N 
ATOM     13  H   UNL     1       4.913 -12.046  -0.938  0.00  0.00    +0.142 HD
ATOM     14  H   UNL     1       5.638 -10.608  -1.417  0.00  0.00    +0.142 HD
ENDBRANCH   9  12
ENDBRANCH   3   5
BRANCH   1  15
ATOM     15  C   UNL     1       1.510  -4.705  -0.066  0.00  0.00    +0.117 C 
BRANCH  15  16
ATOM     16  C   UNL     1       0.061  -4.215  -0.049  0.00  0.00    +0.134 C 
BRANCH  16  21
ATOM     17  C   UNL     1      -0.016   1.502   0.071  0.00  0.00    +0.044 C 
ATOM     18  C   UNL     1       0.004  -0.004   0.051  0.00  0.00    -0.044 A 
ATOM     19  C   UNL     1       0.010  -0.697  -1.168  0.00  0.00    +0.021 A 
ATOM     20  C   UNL     1       0.028  -2.050  -1.176  0.00  0.00    +0.089 A 
ATOM     21  N   UNL     1       0.041  -2.751  -0.013  0.00  0.00    -0.315 N 
ATOM     22  C   UNL     1       0.035  -2.114   1.174  0.00  0.00    +0.252 A 
ATOM     23  O   UNL     1       0.047  -2.757   2.211  0.00  0.00    -0.268 OA
ATOM     24  C   UNL     1       0.022  -0.710   1.218  0.00  0.00    +0.073 A 
ENDBRANCH  16  21
ENDBRANCH  15  16
ENDBRANCH   1  15
TORSDOF 5
