REMARK  Name = ZINC39425868
REMARK  11 active torsions:
REMARK  status: ('A' for Active; 'I' for Inactive)
REMARK    1  A    between atoms: C_1  and  C_2
REMARK    2  A    between atoms: C_2  and  C_3
REMARK    3  A    between atoms: C_3  and  C_5
REMARK    4  A    between atoms: C_3  and  S_19
REMARK    5  A    between atoms: N_7  and  C_8
REMARK    6  A    between atoms: C_9  and  C_17
REMARK    7  A    between atoms: S_19  and  C_20
REMARK    8  A    between atoms: C_21  and  C_35
REMARK    9  A    between atoms: C_22  and  C_29
REMARK   10  A    between atoms: C_23  and  C_27
REMARK   11  A    between atoms: C_24  and  N_26
REMARK                            x       y       z     vdW  Elec       q    Type
REMARK                         _______ _______ _______ _____ _____    ______ ____
ROOT
ATOM      1  S   UNL     1      -0.396   0.100  -2.702  0.00  0.00    -0.092 S 
ENDROOT
BRANCH   1   2
ATOM      2  C   UNL     1       0.418  -0.545  -4.125  0.00  0.00    +0.118 A 
ATOM      3  C   UNL     1      -0.154  -0.356  -5.398  0.00  0.00    +0.093 A 
ATOM      4  C   UNL     1       0.508  -0.876  -6.527  0.00  0.00    +0.023 A 
ATOM      5  C   UNL     1       1.720  -1.566  -6.326  0.00  0.00    +0.100 A 
ATOM      6  C   UNL     1       2.215  -1.706  -5.016  0.00  0.00    +0.136 A 
ATOM      7  N   UNL     1       1.562  -1.196  -3.984  0.00  0.00    -0.224 NA
BRANCH   4   8
ATOM      8  C   UNL     1      -0.053  -0.704  -7.885  0.00  0.00    -0.015 A 
ATOM      9  C   UNL     1      -1.270  -1.299  -8.222  0.00  0.00    +0.008 A 
ATOM     10  C   UNL     1      -1.788  -1.134  -9.490  0.00  0.00    +0.001 A 
ATOM     11  C   UNL     1      -1.105  -0.380 -10.427  0.00  0.00    +0.000 A 
ATOM     12  C   UNL     1       0.102   0.214 -10.099  0.00  0.00    +0.001 A 
ATOM     13  C   UNL     1       0.628   0.061  -8.833  0.00  0.00    +0.008 A 
ENDBRANCH   4   8
BRANCH   6  14
ATOM     14  N   UNL     1       3.401  -2.380  -4.806  0.00  0.00    -0.342 N 
ATOM     15  H   UNL     1       3.887  -2.754  -5.558  0.00  0.00    +0.144 HD
ATOM     16  H   UNL     1       3.749  -2.481  -3.906  0.00  0.00    +0.144 HD
ENDBRANCH   6  14
BRANCH   5  17
ATOM     17  C   UNL     1       2.436  -2.117  -7.437  0.00  0.00    +0.103 C 
ATOM     18  N   UNL     1       3.004  -2.554  -8.318  0.00  0.00    -0.191 NA
ENDBRANCH   5  17
BRANCH   3  19
ATOM     19  C   UNL     1      -1.389   0.354  -5.542  0.00  0.00    +0.102 C 
ATOM     20  N   UNL     1      -2.369   0.918  -5.656  0.00  0.00    -0.191 NA
ENDBRANCH   3  19
ENDBRANCH   1   2
BRANCH   1  21
ATOM     21  C   UNL     1       0.598  -0.511  -1.313  0.00  0.00    +0.139 C 
BRANCH  21  22
ATOM     22  C   UNL     1       0.459  -2.009  -1.216  0.00  0.00    +0.231 C 
ATOM     23  O   UNL     1      -0.485  -2.565  -1.738  0.00  0.00    -0.274 OA
ATOM     24  N   UNL     1       1.383  -2.729  -0.551  0.00  0.00    -0.278 N 
ATOM     25  H   UNL     1       2.137  -2.284  -0.134  0.00  0.00    +0.155 HD
BRANCH  24  26
ATOM     26  C   UNL     1       1.255  -4.109  -0.462  0.00  0.00    +0.090 A 
ATOM     27  C   UNL     1       2.096  -5.002   0.180  0.00  0.00    +0.084 A 
ATOM     28  C   UNL     1       1.738  -6.408   0.127  0.00  0.00    -0.018 A 
ATOM     29  C   UNL     1       0.602  -6.663  -0.559  0.00  0.00    -0.004 A 
ATOM     30  S   UNL     1       0.040  -5.076  -1.101  0.00  0.00    -0.077 S 
ATOM     31  C   UNL     1      -0.027  -8.002  -0.792  0.00  0.00    +0.043 C 
ATOM     32  C   UNL     1       1.009  -9.086  -0.459  0.00  0.00    +0.005 C 
ATOM     33  C   UNL     1       1.644  -8.764   0.897  0.00  0.00    +0.005 C 
ATOM     34  C   UNL     1       2.539  -7.529   0.773  0.00  0.00    +0.037 C 
BRANCH  27  35
ATOM     35  C   UNL     1       3.272  -4.558   0.866  0.00  0.00    +0.102 C 
ATOM     36  N   UNL     1       4.204  -4.205   1.411  0.00  0.00    -0.191 NA
ENDBRANCH  27  35
ENDBRANCH  24  26
ENDBRANCH  21  22
BRANCH  21  38
ATOM     37  C   UNL     1       0.377   1.637  -0.056  0.00  0.00    +0.005 C 
ATOM     38  C   UNL     1       0.108   0.132  -0.014  0.00  0.00    +0.020 C 
ENDBRANCH  21  38
ENDBRANCH   1  21
TORSDOF 10
