REMARK  Name = ZINC20201608
REMARK  5 active torsions:
REMARK  status: ('A' for Active; 'I' for Inactive)
REMARK    1  A    between atoms: C_4  and  C_7
REMARK    2  A    between atoms: C_9  and  C_17
REMARK    3  A    between atoms: N_19  and  C_20
REMARK    4  A    between atoms: C_20  and  C_21
REMARK    5  A    between atoms: C_21  and  C_22
REMARK                            x       y       z     vdW  Elec       q    Type
REMARK                         _______ _______ _______ _____ _____    ______ ____
ROOT
ATOM      1  C   UNL     1       3.698  -0.688  -0.052  0.00  0.00    +0.072 A 
ATOM      2  C   UNL     1       3.692  -2.091  -0.066  0.00  0.00    +0.042 A 
ATOM      3  C   UNL     1       4.898  -2.777  -0.068  0.00  0.00    +0.048 A 
ATOM      4  C   UNL     1       6.124  -1.980  -0.056  0.00  0.00    +0.013 A 
ATOM      5  C   UNL     1       7.388  -2.581  -0.057  0.00  0.00    +0.011 A 
ATOM      6  C   UNL     1       8.505  -1.801  -0.046  0.00  0.00    +0.001 A 
ATOM      7  C   UNL     1       8.405  -0.411  -0.032  0.00  0.00    +0.002 A 
ATOM      8  C   UNL     1       7.192   0.206  -0.030  0.00  0.00    +0.028 A 
ATOM      9  C   UNL     1       6.016  -0.567  -0.042  0.00  0.00    +0.072 A 
ATOM     10  N   UNL     1       4.814   0.011  -0.046  0.00  0.00    -0.247 NA
ENDROOT
BRANCH   1  14
ATOM     11  C   UNL     1      -0.017   1.380  -0.049  0.00  0.00    +0.000 A 
ATOM     12  C   UNL     1       1.169   2.093  -0.042  0.00  0.00    +0.001 A 
ATOM     13  C   UNL     1       2.377   1.427  -0.043  0.00  0.00    +0.010 A 
ATOM     14  C   UNL     1       2.402   0.033  -0.050  0.00  0.00    +0.000 A 
ATOM     15  C   UNL     1       1.205  -0.680  -0.057  0.00  0.00    +0.010 A 
ATOM     16  C   UNL     1       0.002  -0.004  -0.057  0.00  0.00    +0.001 A 
ENDBRANCH   1  14
BRANCH   3  17
ATOM     17  C   UNL     1       4.942  -4.256  -0.082  0.00  0.00    +0.245 C 
ATOM     18  O   UNL     1       6.007  -4.831  -0.188  0.00  0.00    -0.270 OA
ATOM     19  N   UNL     1       3.800  -4.965   0.023  0.00  0.00    -0.311 N 
ATOM     20  H   UNL     1       2.950  -4.505   0.108  0.00  0.00    +0.149 HD
BRANCH  19  21
ATOM     21  C   UNL     1       3.844  -6.429   0.009  0.00  0.00    +0.111 C 
BRANCH  21  22
ATOM     22  C   UNL     1       2.423  -6.982   0.142  0.00  0.00    +0.083 C 
BRANCH  22  23
ATOM     23  C   UNL     1       2.468  -8.489   0.128  0.00  0.00    +0.105 A 
ATOM     24  N   UNL     1       2.584  -9.342   1.126  0.00  0.00    -0.145 NA
ATOM     25  N   UNL     1       2.605 -10.590   0.944  0.00  0.00    -0.126 NA
ATOM     26  C   UNL     1       2.511 -11.121  -0.268  0.00  0.00    +0.179 A 
ATOM     27  S   UNL     1       2.371  -9.630  -1.248  0.00  0.00    -0.036 S 
ATOM     28  N   UNL     1       2.516 -12.451  -0.661  0.00  0.00    -0.336 N 
ATOM     29  H   UNL     1       2.597 -13.153   0.003  0.00  0.00    +0.144 HD
ATOM     30  H   UNL     1       2.439 -12.679  -1.601  0.00  0.00    +0.144 HD
ENDBRANCH  22  23
ENDBRANCH  21  22
ENDBRANCH  19  21
ENDBRANCH   3  17
TORSDOF 5
