REMARK  Name = ZINC10002755
REMARK  14 active torsions:
REMARK  status: ('A' for Active; 'I' for Inactive)
REMARK    1  A    between atoms: C_1  and  C_2
REMARK    2  A    between atoms: C_2  and  C_3
REMARK    3  A    between atoms: C_8  and  N_9
REMARK    4  A    between atoms: C_10  and  C_12
REMARK    5  A    between atoms: C_12  and  S_13
REMARK    6  A    between atoms: S_13  and  C_14
REMARK    7  A    between atoms: C_17  and  C_21
REMARK    8  A    between atoms: N_18  and  C_19
REMARK    9  A    between atoms: C_19  and  C_20
REMARK   10  A    between atoms: C_21  and  C_23
REMARK   11  A    between atoms: C_21  and  N_26
REMARK   12  A    between atoms: C_23  and  C_24
REMARK   13  A    between atoms: C_23  and  C_25
REMARK   14  A    between atoms: C_27  and  C_29
REMARK                            x       y       z     vdW  Elec       q    Type
REMARK                         _______ _______ _______ _____ _____    ______ ____
ROOT
ATOM      1  C   UNL     1      -4.564   1.905   4.743  0.00  0.00    +0.192 A 
ATOM      2  N   UNL     1      -4.637   3.059   4.120  0.00  0.00    -0.122 NA
ATOM      3  N   UNL     1      -4.029   2.983   2.990  0.00  0.00    -0.132 NA
ATOM      4  C   UNL     1      -3.538   1.788   2.825  0.00  0.00    +0.155 A 
ATOM      5  N   UNL     1      -3.865   1.057   3.934  0.00  0.00    -0.305 N 
ENDROOT
BRANCH   5   6
ATOM      6  C   UNL     1      -3.531  -0.345   4.199  0.00  0.00    +0.122 C 
ATOM      7  C   UNL     1      -2.220  -0.417   4.985  0.00  0.00    +0.027 C 
ENDBRANCH   5   6
BRANCH   1   8
ATOM      8  S   UNL     1      -5.246   1.523   6.322  0.00  0.00    -0.077 S 
BRANCH   8   9
ATOM      9  C   UNL     1      -6.000   3.116   6.734  0.00  0.00    +0.173 C 
BRANCH   9  11
ATOM     10  N   UNL     1      -7.293   4.099   8.599  0.00  0.00    -0.285 N 
ATOM     11  C   UNL     1      -6.663   3.025   8.084  0.00  0.00    +0.227 C 
ATOM     12  O   UNL     1      -6.629   1.985   8.707  0.00  0.00    -0.275 OA
ATOM     13  H   UNL     1      -7.250   4.953   8.140  0.00  0.00    +0.155 HD
BRANCH  10  19
ATOM     14  C   UNL     1      -8.241   5.105  10.579  0.00  0.00    -0.026 A 
ATOM     15  C   UNL     1      -8.949   4.986  11.760  0.00  0.00    +0.005 A 
ATOM     16  C   UNL     1      -9.427   3.752  12.160  0.00  0.00    +0.000 A 
ATOM     17  C   UNL     1      -9.199   2.633  11.381  0.00  0.00    +0.002 A 
ATOM     18  C   UNL     1      -8.496   2.745  10.197  0.00  0.00    +0.023 A 
ATOM     19  C   UNL     1      -8.010   3.983   9.795  0.00  0.00    +0.037 A 
BRANCH  14  21
ATOM     20  C   UNL     1      -8.721   7.097   9.183  0.00  0.00    +0.009 C 
ATOM     21  C   UNL     1      -7.721   6.450  10.143  0.00  0.00    +0.033 C 
ENDBRANCH  14  21
ENDBRANCH  10  19
ENDBRANCH   9  11
ENDBRANCH   8   9
ENDBRANCH   1   8
BRANCH   4  22
ATOM     22  C   UNL     1      -2.758   1.299   1.632  0.00  0.00    +0.144 C 
BRANCH  22  23
ATOM     23  N   UNL     1      -3.486   1.631   0.404  0.00  0.00    -0.301 N 
ATOM     24  C   UNL     1      -3.290   0.902  -0.713  0.00  0.00    +0.245 C 
ATOM     25  O   UNL     1      -2.510  -0.030  -0.702  0.00  0.00    -0.270 OA
ATOM     26  H   UNL     1      -4.108   2.375   0.396  0.00  0.00    +0.150 HD
BRANCH  24  27
ATOM     27  C   UNL     1      -4.024   1.237  -1.949  0.00  0.00    +0.040 A 
ATOM     28  C   UNL     1      -4.925   2.304  -1.962  0.00  0.00    +0.017 A 
ATOM     29  C   UNL     1      -5.604   2.618  -3.119  0.00  0.00    +0.050 A 
ATOM     30  C   UNL     1      -5.405   1.869  -4.271  0.00  0.00    +0.166 A 
ATOM     31  C   UNL     1      -4.511   0.798  -4.263  0.00  0.00    +0.167 A 
ATOM     32  C   UNL     1      -3.822   0.483  -3.108  0.00  0.00    +0.062 A 
ATOM     33  O   UNL     1      -4.497   0.233  -5.506  0.00  0.00    -0.453 OA
ATOM     34  C   UNL     1      -5.691   0.707  -6.156  0.00  0.00    +0.466 C 
ATOM     35  O   UNL     1      -5.950   1.971  -5.518  0.00  0.00    -0.453 OA
ENDBRANCH  24  27
ENDBRANCH  22  23
BRANCH  22  36
ATOM     36  C   UNL     1      -1.385   1.974   1.609  0.00  0.00    +0.011 C 
ATOM     37  C   UNL     1      -0.624   1.538   0.355  0.00  0.00    +0.009 C 
ATOM     38  C   UNL     1      -0.595   1.565   2.853  0.00  0.00    +0.009 C 
ENDBRANCH  22  36
ENDBRANCH   4  22
TORSDOF 10
