REMARK  Name = ZINC16954531
REMARK  9 active torsions:
REMARK  status: ('A' for Active; 'I' for Inactive)
REMARK    1  A    between atoms: C_1  and  O_2
REMARK    2  A    between atoms: O_2  and  C_3
REMARK    3  A    between atoms: C_6  and  S_9
REMARK    4  A    between atoms: S_9  and  N_12
REMARK    5  A    between atoms: N_12  and  C_13
REMARK    6  A    between atoms: C_13  and  C_14
REMARK    7  A    between atoms: C_14  and  C_16
REMARK    8  A    between atoms: C_14  and  N_21
REMARK    9  A    between atoms: N_24  and  C_27
REMARK                            x       y       z     vdW  Elec       q    Type
REMARK                         _______ _______ _______ _____ _____    ______ ____
ROOT
ATOM      1  C   UNL     1      -0.226  -4.180   6.739  0.00  0.00    +0.139 C 
ENDROOT
BRANCH   1   2
ATOM      2  N   UNL     1       0.763  -4.718   7.682  0.00  0.00    -0.289 NA
ATOM      3  C   UNL     1       1.388  -5.937   7.152  0.00  0.00    +0.104 C 
ATOM      4  C   UNL     1       2.534  -6.363   8.075  0.00  0.00    +0.120 C 
ATOM      5  N   UNL     1       2.013  -6.476   9.446  0.00  0.00    -0.327 N 
ATOM      6  C   UNL     1       1.255  -5.343   9.998  0.00  0.00    +0.120 C 
ATOM      7  C   UNL     1       0.159  -4.958   8.999  0.00  0.00    +0.104 C 
BRANCH   5   8
ATOM      8  C   UNL     1       2.232  -7.630  10.203  0.00  0.00    +0.030 A 
ATOM      9  C   UNL     1       2.851  -8.732   9.628  0.00  0.00    +0.023 A 
ATOM     10  C   UNL     1       3.066  -9.871  10.379  0.00  0.00    +0.002 A 
ATOM     11  C   UNL     1       2.666  -9.914  11.702  0.00  0.00    +0.000 A 
ATOM     12  C   UNL     1       2.049  -8.818  12.277  0.00  0.00    +0.002 A 
ATOM     13  C   UNL     1       1.836  -7.674  11.533  0.00  0.00    +0.023 A 
ENDBRANCH   5   8
ENDBRANCH   1   2
BRANCH   1  14
ATOM     14  C   UNL     1      -1.292  -5.215   6.485  0.00  0.00    +0.123 A 
ATOM     15  C   UNL     1      -2.610  -4.973   6.364  0.00  0.00    +0.046 A 
ATOM     16  C   UNL     1      -3.236  -6.220   6.135  0.00  0.00    +0.041 A 
ATOM     17  C   UNL     1      -2.263  -7.149   6.128  0.00  0.00    +0.195 A 
ATOM     18  O   UNL     1      -1.087  -6.534   6.336  0.00  0.00    -0.466 OA
ENDBRANCH   1  14
BRANCH   1  19
ATOM     19  C   UNL     1       0.465  -3.827   5.420  0.00  0.00    +0.132 C 
BRANCH  19  20
ATOM     20  N   UNL     1       1.579  -2.912   5.683  0.00  0.00    -0.188 NA
ATOM     21  H   UNL     1       1.643  -2.459   6.538  0.00  0.00    +0.148 HD
BRANCH  20  22
ATOM     22  S   UNL     1       2.728  -2.651   4.520  0.00  0.00    +0.058 S 
ATOM     23  O   UNL     1       3.136  -3.932   4.057  0.00  0.00    -0.153 OA
ATOM     24  O   UNL     1       3.645  -1.709   5.059  0.00  0.00    -0.153 OA
BRANCH  22  28
ATOM     25  C   UNL     1       0.672  -0.611   1.039  0.00  0.00    +0.120 A 
ATOM     26  C   UNL     1       1.233   0.147   2.056  0.00  0.00    +0.047 A 
ATOM     27  C   UNL     1       1.860  -0.477   3.117  0.00  0.00    +0.032 A 
ATOM     28  C   UNL     1       1.928  -1.857   3.166  0.00  0.00    +0.105 A 
ATOM     29  C   UNL     1       1.370  -2.616   2.153  0.00  0.00    +0.032 A 
ATOM     30  C   UNL     1       0.737  -1.996   1.093  0.00  0.00    +0.047 A 
BRANCH  25  32
ATOM     31  C   UNL     1       0.026   1.429   0.005  0.00  0.00    +0.277 C 
ATOM     32  O   UNL     1       0.055   0.001  -0.006  0.00  0.00    -0.495 OA
ENDBRANCH  25  32
ENDBRANCH  22  28
ENDBRANCH  20  22
ENDBRANCH  19  20
ENDBRANCH   1  19
TORSDOF 8
