REMARK  Name = ZINC12243530
REMARK  7 active torsions:
REMARK  status: ('A' for Active; 'I' for Inactive)
REMARK    1  A    between atoms: C_4  and  C_7
REMARK    2  A    between atoms: C_7  and  C_8
REMARK    3  A    between atoms: C_8  and  C_9
REMARK    4  A    between atoms: C_9  and  N_56
REMARK    5  A    between atoms: C_10  and  N_56
REMARK    6  A    between atoms: N_21  and  C_24
REMARK    7  A    between atoms: C_24  and  C_25
REMARK                            x       y       z     vdW  Elec       q    Type
REMARK                         _______ _______ _______ _____ _____    ______ ____
ROOT
ATOM      1  C   UNL     1      -5.284   7.526  -5.386  0.00  0.00    -0.067 C 
ATOM      2  C   UNL     1      -5.397   6.305  -4.469  0.00  0.00    -0.011 C 
ATOM      3  C   UNL     1      -4.377   6.411  -3.334  0.00  0.00    +0.035 C 
ATOM      4  C   UNL     1      -2.996   6.658  -3.936  0.00  0.00    -0.023 A 
ATOM      5  C   UNL     1      -2.866   7.114  -5.199  0.00  0.00    -0.006 A 
ATOM      6  S   UNL     1      -1.118   7.246  -5.462  0.00  0.00    -0.073 S 
ATOM      7  C   UNL     1      -0.567   6.688  -3.870  0.00  0.00    +0.116 A 
ATOM      8  C   UNL     1      -1.763   6.417  -3.187  0.00  0.00    +0.076 A 
ATOM      9  C   UNL     1      -1.617   5.938  -1.844  0.00  0.00    +0.263 A 
ATOM     10  O   UNL     1      -2.597   5.675  -1.169  0.00  0.00    -0.267 OA
ATOM     11  N   UNL     1      -0.378   5.785  -1.340  0.00  0.00    -0.293 N 
ATOM     12  C   UNL     1       0.725   6.079  -2.075  0.00  0.00    +0.203 A 
ATOM     13  N   UNL     1       0.624   6.511  -3.304  0.00  0.00    -0.230 NA
ATOM     14  C   UNL     1      -3.964   7.436  -6.166  0.00  0.00    +0.027 C 
ENDROOT
BRANCH   1  15
ATOM     15  N   UNL     1      -6.418   7.533  -6.330  0.00  0.00    +0.381 N 
ATOM     16  H   UNL     1      -6.194   6.931  -7.132  0.00  0.00    -0.086 HD
ATOM     17  H   UNL     1      -7.255   7.175  -5.856  0.00  0.00    -0.086 HD
BRANCH  15  18
ATOM     18  C   UNL     1      -6.678   8.904  -6.808  0.00  0.00    -0.082 C 
BRANCH  18  19
ATOM     19  C   UNL     1      -7.857   8.880  -7.783  0.00  0.00    -0.014 C 
BRANCH  19  20
ATOM     20  C   UNL     1      -8.134  10.299  -8.284  0.00  0.00    +0.033 C 
BRANCH  20  24
ATOM     21  C   UNL     1     -11.424  10.232 -11.007  0.00  0.00    +0.000 A 
ATOM     22  C   UNL     1     -11.649  10.416  -9.655  0.00  0.00    +0.000 A 
ATOM     23  C   UNL     1     -10.584  10.437  -8.774  0.00  0.00    +0.003 A 
ATOM     24  C   UNL     1      -9.294  10.275  -9.244  0.00  0.00    -0.047 A 
ATOM     25  C   UNL     1      -9.069  10.096 -10.597  0.00  0.00    +0.003 A 
ATOM     26  C   UNL     1     -10.134  10.069 -11.477  0.00  0.00    +0.000 A 
ENDBRANCH  20  24
ENDBRANCH  19  20
ENDBRANCH  18  19
ENDBRANCH  15  18
ENDBRANCH   1  15
BRANCH  11  27
ATOM     27  C   UNL     1      -0.217   5.298   0.032  0.00  0.00    +0.181 C 
BRANCH  27  28
ATOM     28  C   UNL     1      -0.132   3.793   0.024  0.00  0.00    +0.061 A 
ATOM     29  C   UNL     1       1.107   3.179   0.009  0.00  0.00    +0.025 A 
ATOM     30  C   UNL     1       1.174   1.794   0.001  0.00  0.00    +0.003 A 
ATOM     31  C   UNL     1      -0.013   1.076   0.008  0.00  0.00    +0.020 A 
ATOM     32  C   UNL     1      -1.214   1.759   0.017  0.00  0.00    +0.111 A 
ATOM     33  N   UNL     1      -1.239   3.078   0.030  0.00  0.00    -0.258 NA
ENDBRANCH  27  28
ENDBRANCH  11  27
TORSDOF 7
