REMARK  Name = ZINC21702016
REMARK  6 active torsions:
REMARK  status: ('A' for Active; 'I' for Inactive)
REMARK    1  A    between atoms: C_1  and  C_2
REMARK    2  A    between atoms: C_2  and  C_3
REMARK    3  A    between atoms: C_5  and  C_8
REMARK    4  A    between atoms: C_10  and  S_13
REMARK    5  A    between atoms: S_13  and  N_16
REMARK    6  A    between atoms: N_16  and  C_17
REMARK                            x       y       z     vdW  Elec       q    Type
REMARK                         _______ _______ _______ _____ _____    ______ ____
ROOT
ATOM      1  C   UNL     1      -1.633   2.915  -3.273  0.00  0.00    +0.031 A 
ATOM      2  C   UNL     1      -0.813   2.848  -2.148  0.00  0.00    +0.048 A 
ATOM      3  C   UNL     1      -0.871   1.727  -1.395  0.00  0.00    +0.148 A 
ATOM      4  S   UNL     1      -2.079   0.746  -2.265  0.00  0.00    -0.076 S 
ATOM      5  C   UNL     1      -2.444   1.852  -3.548  0.00  0.00    +0.058 A 
ENDROOT
BRANCH   1   8
ATOM      6  C   UNL     1      -2.044   5.483  -5.710  0.00  0.00    +0.227 A 
ATOM      7  N   UNL     1      -2.371   4.297  -5.261  0.00  0.00    -0.191 NA
ATOM      8  C   UNL     1      -1.626   4.111  -4.148  0.00  0.00    +0.203 A 
ATOM      9  N   UNL     1      -0.901   5.189  -3.985  0.00  0.00    -0.056 NA
ATOM     10  O   UNL     1      -1.126   5.981  -4.875  0.00  0.00    -0.338 OA
BRANCH   6  12
ATOM     11  C   UNL     1      -3.833   6.980  -6.552  0.00  0.00    +0.014 C 
ATOM     12  C   UNL     1      -2.599   6.160  -6.936  0.00  0.00    +0.095 C 
ENDBRANCH   6  12
ENDBRANCH   1   8
BRANCH   3  13
ATOM     13  S   UNL     1       0.026   1.333   0.070  0.00  0.00    +0.098 S 
ATOM     14  O   UNL     1       0.053  -0.085   0.161  0.00  0.00    -0.148 OA
ATOM     15  O   UNL     1       1.210   2.117   0.045  0.00  0.00    -0.148 OA
BRANCH  13  16
ATOM     16  N   UNL     1      -0.872   1.871   1.353  0.00  0.00    -0.094 NA
BRANCH  16  17
ATOM     17  C   UNL     1      -2.161   1.367   1.567  0.00  0.00    +0.110 A 
ATOM     18  C   UNL     1      -2.443   0.039   1.282  0.00  0.00    +0.032 A 
ATOM     19  C   UNL     1      -3.716  -0.457   1.494  0.00  0.00    +0.040 A 
ATOM     20  C   UNL     1      -4.709   0.370   1.989  0.00  0.00    +0.126 A 
ATOM     21  C   UNL     1      -4.431   1.696   2.274  0.00  0.00    +0.078 A 
ATOM     22  C   UNL     1      -3.158   2.196   2.069  0.00  0.00    +0.150 A 
ATOM     23  F   UNL     1      -2.885   3.488   2.352  0.00  0.00    -0.203 F 
ATOM     24  F   UNL     1      -5.952  -0.117   2.195  0.00  0.00    -0.205 F 
ENDBRANCH  16  17
ENDBRANCH  13  16
ENDBRANCH   3  13
TORSDOF 5
