REMARK  Name = ZINC01326065
REMARK  12 active torsions:
REMARK  status: ('A' for Active; 'I' for Inactive)
REMARK    1  A    between atoms: C_1  and  C_2
REMARK    2  A    between atoms: C_2  and  C_3
REMARK    3  A    between atoms: C_3  and  C_5
REMARK    4  A    between atoms: C_3  and  N_19
REMARK    5  A    between atoms: N_9  and  C_10
REMARK    6  A    between atoms: C_10  and  C_11
REMARK    7  A    between atoms: C_14  and  O_17
REMARK    8  A    between atoms: O_17  and  C_18
REMARK    9  A    between atoms: N_19  and  C_20
REMARK   10  A    between atoms: N_19  and  C_27
REMARK   11  A    between atoms: C_20  and  C_21
REMARK   12  A    between atoms: C_27  and  C_28
REMARK                            x       y       z     vdW  Elec       q    Type
REMARK                         _______ _______ _______ _____ _____    ______ ____
ROOT
ATOM      1  N   UNL     1      -0.325  -0.352  -2.778  0.00  0.00    -0.284 NA
ENDROOT
BRANCH   1   2
ATOM      2  C   UNL     1       0.447  -1.166  -1.831  0.00  0.00    +0.127 C 
BRANCH   2   3
ATOM      3  C   UNL     1       0.291  -2.624  -2.178  0.00  0.00    +0.169 A 
ATOM      4  N   UNL     1      -0.824  -3.240  -2.486  0.00  0.00    -0.112 NA
ATOM      5  N   UNL     1      -0.545  -4.476  -2.718  0.00  0.00    -0.023 NA
ATOM      6  N   UNL     1       0.719  -4.665  -2.565  0.00  0.00    -0.044 NA
ATOM      7  N   UNL     1       1.270  -3.546  -2.237  0.00  0.00    -0.223 N 
BRANCH   7   8
ATOM      8  C   UNL     1       2.694  -3.321  -1.975  0.00  0.00    +0.182 C 
BRANCH   8   9
ATOM      9  C   UNL     1       2.978  -3.549  -0.513  0.00  0.00    -0.026 A 
ATOM     10  C   UNL     1       2.878  -2.499   0.382  0.00  0.00    +0.009 A 
ATOM     11  C   UNL     1       3.139  -2.706   1.722  0.00  0.00    +0.046 A 
ATOM     12  C   UNL     1       3.499  -3.968   2.172  0.00  0.00    +0.120 A 
ATOM     13  C   UNL     1       3.598  -5.019   1.272  0.00  0.00    +0.046 A 
ATOM     14  C   UNL     1       3.332  -4.809  -0.067  0.00  0.00    +0.009 A 
BRANCH  12  15
ATOM     15  O   UNL     1       3.756  -4.173   3.490  0.00  0.00    -0.495 OA
ATOM     16  C   UNL     1       4.122  -5.498   3.881  0.00  0.00    +0.277 C 
ENDBRANCH  12  15
ENDBRANCH   8   9
ENDBRANCH   7   8
ENDBRANCH   2   3
BRANCH   2  18
ATOM     17  C   UNL     1       0.146   0.546  -0.036  0.00  0.00    +0.006 C 
ATOM     18  C   UNL     1      -0.067  -0.922  -0.411  0.00  0.00    +0.023 C 
ENDBRANCH   2  18
ENDBRANCH   1   2
BRANCH   1  19
ATOM     19  C   UNL     1      -1.750  -0.338  -2.421  0.00  0.00    +0.122 C 
BRANCH  19  20
ATOM     20  C   UNL     1      -2.559   0.138  -3.600  0.00  0.00    -0.015 A 
ATOM     21  C   UNL     1      -2.939   1.468  -3.701  0.00  0.00    +0.008 A 
ATOM     22  C   UNL     1      -3.682   1.860  -4.803  0.00  0.00    +0.020 A 
ATOM     23  C   UNL     1      -4.018   0.920  -5.759  0.00  0.00    +0.111 A 
ATOM     24  N   UNL     1      -3.639  -0.337  -5.630  0.00  0.00    -0.263 NA
ATOM     25  C   UNL     1      -2.926  -0.745  -4.598  0.00  0.00    +0.115 A 
ENDBRANCH  19  20
ENDBRANCH   1  19
BRANCH   1  26
ATOM     26  C   UNL     1       0.211   1.014  -2.857  0.00  0.00    +0.126 C 
BRANCH  26  27
ATOM     27  C   UNL     1       1.459   1.015  -3.702  0.00  0.00    +0.031 A 
ATOM     28  C   UNL     1       1.375   1.272  -5.032  0.00  0.00    +0.020 A 
ATOM     29  C   UNL     1       2.604   1.266  -5.824  0.00  0.00    +0.003 A 
ATOM     30  C   UNL     1       2.579   1.523  -7.200  0.00  0.00    +0.059 A 
ATOM     31  C   UNL     1       3.754   1.512  -7.921  0.00  0.00    +0.163 A 
ATOM     32  C   UNL     1       4.969   1.248  -7.283  0.00  0.00    +0.164 A 
ATOM     33  C   UNL     1       5.004   0.992  -5.923  0.00  0.00    +0.075 A 
ATOM     34  C   UNL     1       3.829   0.998  -5.183  0.00  0.00    +0.053 A 
ATOM     35  N   UNL     1       3.846   0.744  -3.826  0.00  0.00    -0.322 N 
ATOM     36  H   UNL     1       4.689   0.559  -3.384  0.00  0.00    +0.169 HD
ATOM     37  C   UNL     1       2.710   0.756  -3.106  0.00  0.00    +0.254 A 
ATOM     38  O   UNL     1       2.763   0.533  -1.909  0.00  0.00    -0.268 OA
ATOM     39  O   UNL     1       6.134   1.244  -7.986  0.00  0.00    -0.485 OA
ATOM     40  C   UNL     1       6.028   1.135  -9.409  0.00  0.00    +0.270 C 
ATOM     41  C   UNL     1       4.948   2.115  -9.888  0.00  0.00    +0.270 C 
ATOM     42  O   UNL     1       3.711   1.761  -9.260  0.00  0.00    -0.485 OA
ENDBRANCH  26  27
ENDBRANCH   1  26
TORSDOF 10
