REMARK  Name = ZINC02448904
REMARK  14 active torsions:
REMARK  status: ('A' for Active; 'I' for Inactive)
REMARK    1  A    between atoms: C_1  and  C_2
REMARK    2  A    between atoms: C_2  and  C_3
REMARK    3  A    between atoms: C_2  and  C_4
REMARK    4  A    between atoms: C_4  and  C_5
REMARK    5  A    between atoms: C_11  and  N_17
REMARK    6  A    between atoms: C_13  and  S_15
REMARK    7  A    between atoms: S_15  and  C_16
REMARK    8  A    between atoms: N_17  and  C_18
REMARK    9  A    between atoms: C_18  and  C_19
REMARK   10  A    between atoms: C_19  and  N_64
REMARK   11  A    between atoms: C_20  and  N_64
REMARK   12  A    between atoms: C_21  and  N_64
REMARK   13  A    between atoms: C_26  and  C_29
REMARK   14  A    between atoms: C_26  and  C_30
REMARK                            x       y       z     vdW  Elec       q    Type
REMARK                         _______ _______ _______ _____ _____    ______ ____
ROOT
ATOM      1  C   UNL     1       4.023  -1.345  -0.036  0.00  0.00    +0.048 A 
ATOM      2  C   UNL     1       2.943  -2.218  -0.068  0.00  0.00    +0.003 A 
ATOM      3  C   UNL     1       1.663  -1.722  -0.042  0.00  0.00    -0.026 A 
ATOM      4  C   UNL     1       1.461  -0.324   0.011  0.00  0.00    +0.037 A 
ATOM      5  C   UNL     1       0.177   0.402   0.041  0.00  0.00    +0.094 A 
ATOM      6  C   UNL     1       0.265   1.797   0.093  0.00  0.00    +0.080 A 
ATOM      7  C   UNL     1      -0.877   2.586   0.120  0.00  0.00    +0.138 A 
ATOM      8  N   UNL     1      -2.065   1.984   0.105  0.00  0.00    -0.206 NA
ATOM      9  C   UNL     1      -2.135   0.659   0.056  0.00  0.00    +0.190 A 
ATOM     10  N   UNL     1      -1.072  -0.116   0.025  0.00  0.00    -0.221 NA
ATOM     11  S   UNL     1       2.004   2.138   0.103  0.00  0.00    -0.064 S 
ATOM     12  C   UNL     1       2.619   0.473   0.039  0.00  0.00    +0.111 A 
ATOM     13  N   UNL     1       3.830  -0.042   0.017  0.00  0.00    -0.244 NA
ATOM     14  C   UNL     1       0.460  -2.626  -0.063  0.00  0.00    +0.070 C 
ATOM     15  C   UNL     1       0.874  -4.023  -0.531  0.00  0.00    +0.068 C 
ATOM     16  O   UNL     1       2.029  -4.427   0.213  0.00  0.00    -0.369 OA
ATOM     17  C   UNL     1       3.208  -3.700  -0.136  0.00  0.00    +0.197 C 
ATOM     18  C   UNL     1       1.211  -3.987  -2.023  0.00  0.00    +0.041 C 
ATOM     19  C   UNL     1      -0.267  -5.012  -0.285  0.00  0.00    +0.041 C 
ENDROOT
BRANCH   9  20
ATOM     20  S   UNL     1      -3.727  -0.097   0.033  0.00  0.00    -0.089 S 
ATOM     21  C   UNL     1      -4.776   1.377   0.090  0.00  0.00    +0.093 C 
ENDBRANCH   9  20
BRANCH   7  22
ATOM     22  N   UNL     1      -0.784   3.968   0.172  0.00  0.00    -0.330 N 
ATOM     23  H   UNL     1       0.087   4.395   0.189  0.00  0.00    +0.147 HD
BRANCH  22  24
ATOM     24  C   UNL     1      -2.000   4.784   0.199  0.00  0.00    +0.084 C 
BRANCH  24  25
ATOM     25  C   UNL     1      -1.620   6.265   0.255  0.00  0.00    -0.061 C 
BRANCH  25  28
ATOM     26  C   UNL     1      -3.589   6.868   1.527  0.00  0.00    -0.097 C 
ATOM     27  C   UNL     1      -2.524   8.506   0.098  0.00  0.00    -0.097 C 
ATOM     28  N   UNL     1      -2.856   7.075   0.261  0.00  0.00    +0.377 N 
ATOM     29  H   UNL     1      -3.452   6.780  -0.521  0.00  0.00    -0.083 HD
ENDBRANCH  25  28
ENDBRANCH  24  25
ENDBRANCH  22  24
ENDBRANCH   7  22
BRANCH   1  30
ATOM     30  C   UNL     1       5.427  -1.891  -0.061  0.00  0.00    +0.058 C 
BRANCH  30  32
ATOM     31  C   UNL     1       5.935  -0.820  -2.260  0.00  0.00    +0.007 C 
ATOM     32  C   UNL     1       5.848  -2.150  -1.509  0.00  0.00    -0.011 C 
ATOM     33  C   UNL     1       7.215  -2.837  -1.528  0.00  0.00    +0.007 C 
ENDBRANCH  30  32
ENDBRANCH   1  30
TORSDOF 7
