REMARK  Name = ZINC12891133
REMARK  8 active torsions:
REMARK  status: ('A' for Active; 'I' for Inactive)
REMARK    1  A    between atoms: C_1  and  C_2
REMARK    2  A    between atoms: C_2  and  S_3
REMARK    3  A    between atoms: S_3  and  C_4
REMARK    4  A    between atoms: C_6  and  C_22
REMARK    5  A    between atoms: C_7  and  N_9
REMARK    6  A    between atoms: C_10  and  C_12
REMARK    7  A    between atoms: C_16  and  N_19
REMARK    8  A    between atoms: C_17  and  C_18
REMARK                            x       y       z     vdW  Elec       q    Type
REMARK                         _______ _______ _______ _____ _____    ______ ____
ROOT
ATOM      1  C   UNL     1      -3.590  -1.851   0.133  0.00  0.00    +0.137 A 
ATOM      2  N   UNL     1      -4.151  -0.630   0.118  0.00  0.00    -0.231 NA
ATOM      3  C   UNL     1      -3.423   0.439   0.094  0.00  0.00    +0.101 A 
ATOM      4  C   UNL     1      -1.935   0.231   0.085  0.00  0.00    +0.101 A 
ATOM      5  S   UNL     1      -1.839  -1.503   0.106  0.00  0.00    -0.045 S 
ENDROOT
BRANCH   3   6
ATOM      6  C   UNL     1      -4.018   1.780   0.077  0.00  0.00    +0.003 A 
ATOM      7  C   UNL     1      -3.393   2.840   0.755  0.00  0.00    +0.010 A 
ATOM      8  C   UNL     1      -3.956   4.095   0.728  0.00  0.00    +0.001 A 
ATOM      9  C   UNL     1      -5.142   4.314   0.044  0.00  0.00    +0.000 A 
ATOM     10  C   UNL     1      -5.770   3.273  -0.623  0.00  0.00    +0.001 A 
ATOM     11  C   UNL     1      -5.220   2.011  -0.613  0.00  0.00    +0.010 A 
ENDBRANCH   3   6
BRANCH   4  12
ATOM     12  N   UNL     1      -0.949   1.139   0.061  0.00  0.00    -0.274 N 
ATOM     13  C   UNL     1       0.337   0.737   0.056  0.00  0.00    +0.249 C 
ATOM     14  O   UNL     1       0.603  -0.449   0.074  0.00  0.00    -0.270 OA
ATOM     15  H   UNL     1      -1.161   2.086   0.046  0.00  0.00    +0.156 HD
BRANCH  13  16
ATOM     16  C   UNL     1       1.424   1.736   0.023  0.00  0.00    +0.042 A 
ATOM     17  C   UNL     1       1.126   3.092  -0.136  0.00  0.00    +0.013 A 
ATOM     18  C   UNL     1       2.146   4.020  -0.165  0.00  0.00    +0.003 A 
ATOM     19  C   UNL     1       3.462   3.611  -0.037  0.00  0.00    +0.033 A 
ATOM     20  C   UNL     1       3.764   2.270   0.122  0.00  0.00    +0.130 A 
ATOM     21  C   UNL     1       2.754   1.331   0.157  0.00  0.00    -0.008 A 
ATOM     22  C   UNL     1       3.085  -0.128   0.336  0.00  0.00    +0.047 C 
BRANCH  20  23
ATOM     23  N   UNL     1       5.175   1.843   0.258  0.00  0.00    +0.057 N 
ATOM     24  O   UNL     1       6.128   2.744   0.373  0.00  0.00    -0.126 OA
ATOM     25  O   UNL     1       5.476   0.560   0.265  0.00  0.00    -0.126 OA
ENDBRANCH  20  23
ENDBRANCH  13  16
ENDBRANCH   4  12
BRANCH   1  26
ATOM     26  S   UNL     1      -4.368  -3.375   0.165  0.00  0.00    -0.099 S 
BRANCH  26  28
ATOM     27  C   UNL     1      -3.385  -5.924   0.198  0.00  0.00    +0.016 C 
ATOM     28  C   UNL     1      -2.923  -4.466   0.171  0.00  0.00    +0.073 C 
ENDBRANCH  26  28
ENDBRANCH   1  26
TORSDOF 6
