REMARK  Name = ZINC62558143
REMARK  5 active torsions:
REMARK  status: ('A' for Active; 'I' for Inactive)
REMARK    1  A    between atoms: C_1  and  C_2
REMARK    2  A    between atoms: C_4  and  N_22
REMARK    3  A    between atoms: C_5  and  C_21
REMARK    4  A    between atoms: C_9  and  C_15
REMARK    5  A    between atoms: N_13  and  C_14
REMARK                            x       y       z     vdW  Elec       q    Type
REMARK                         _______ _______ _______ _____ _____    ______ ____
ROOT
ATOM      1  C   UNL     1      -0.088   2.087   0.438  0.00  0.00    +0.047 C 
ATOM      2  C   UNL     1      -0.006   0.606   0.171  0.00  0.00    -0.005 A 
ATOM      3  C   UNL     1       0.025   0.139  -1.129  0.00  0.00    +0.030 A 
ATOM      4  C   UNL     1       0.080  -1.224  -1.363  0.00  0.00    +0.030 A 
ATOM      5  C   UNL     1       0.112  -2.129  -0.298  0.00  0.00    -0.005 A 
ATOM      6  C   UNL     1       0.138  -1.672   0.999  0.00  0.00    +0.083 A 
ATOM      7  C   UNL     1       0.037  -0.286   1.224  0.00  0.00    +0.147 A 
ATOM      8  O   UNL     1      -0.054   0.176   2.503  0.00  0.00    -0.473 OA
ATOM      9  C   UNL     1      -0.806  -0.633   3.413  0.00  0.00    +0.289 C 
ATOM     10  C   UNL     1      -0.324  -2.055   3.295  0.00  0.00    +0.265 C 
ATOM     11  O   UNL     1      -0.461  -2.830   4.215  0.00  0.00    -0.271 OA
ATOM     12  N   UNL     1       0.269  -2.463   2.144  0.00  0.00    -0.268 N 
ATOM     13  C   UNL     1       1.093  -3.674   2.205  0.00  0.00    +0.138 C 
ATOM     14  C   UNL     1       0.057  -3.594  -0.660  0.00  0.00    +0.048 C 
ENDROOT
BRANCH   9  15
ATOM     15  C   UNL     1      -2.272  -0.558   3.073  0.00  0.00    +0.002 A 
ATOM     16  C   UNL     1      -3.206  -0.374   4.075  0.00  0.00    +0.008 A 
ATOM     17  C   UNL     1      -4.551  -0.305   3.763  0.00  0.00    +0.000 A 
ATOM     18  C   UNL     1      -4.962  -0.419   2.448  0.00  0.00    +0.000 A 
ATOM     19  C   UNL     1      -4.028  -0.603   1.445  0.00  0.00    +0.000 A 
ATOM     20  C   UNL     1      -2.683  -0.667   1.757  0.00  0.00    +0.008 A 
ENDBRANCH   9  15
BRANCH   4  21
ATOM     21  N   UNL     1       0.103  -1.712  -2.675  0.00  0.00    -0.358 N 
ATOM     22  H   UNL     1       0.081  -1.093  -3.422  0.00  0.00    +0.142 HD
ATOM     23  H   UNL     1       0.141  -2.667  -2.837  0.00  0.00    +0.142 HD
ENDBRANCH   4  21
TORSDOF 2
