REMARK  Name = ZINC06520909
REMARK  8 active torsions:
REMARK  status: ('A' for Active; 'I' for Inactive)
REMARK    1  A    between atoms: C_1  and  C_2
REMARK    2  A    between atoms: C_5  and  C_7
REMARK    3  A    between atoms: C_8  and  C_9
REMARK    4  A    between atoms: N_11  and  C_12
REMARK    5  A    between atoms: C_12  and  N_14
REMARK    6  A    between atoms: N_14  and  N_15
REMARK    7  A    between atoms: C_16  and  C_18
REMARK    8  A    between atoms: C_27  and  O_28
REMARK                            x       y       z     vdW  Elec       q    Type
REMARK                         _______ _______ _______ _____ _____    ______ ____
ROOT
ATOM      1  N   UNL     1       1.142   2.033   0.002  0.00  0.00    -0.245 N 
ATOM      2  H   UNL     1       1.129   3.003   0.007  0.00  0.00    +0.172 HD
ENDROOT
BRANCH   1   3
ATOM      3  N   UNL     1       2.364   1.349  -0.013  0.00  0.00    -0.231 N 
ATOM      4  C   UNL     1       3.522   2.039  -0.021  0.00  0.00    +0.264 C 
ATOM      5  O   UNL     1       3.506   3.255  -0.014  0.00  0.00    -0.269 OA
ATOM      6  H   UNL     1       2.377   0.379  -0.019  0.00  0.00    +0.173 HD
BRANCH   4   7
ATOM      7  C   UNL     1       4.810   1.319  -0.037  0.00  0.00    +0.080 A 
ATOM      8  C   UNL     1       4.824  -0.067  -0.039  0.00  0.00    +0.025 A 
ATOM      9  C   UNL     1       6.050  -0.746  -0.059  0.00  0.00    -0.017 A 
ATOM     10  C   UNL     1       6.102  -2.152  -0.066  0.00  0.00    +0.008 A 
ATOM     11  C   UNL     1       7.308  -2.782  -0.080  0.00  0.00    +0.001 A 
ATOM     12  C   UNL     1       8.497  -2.055  -0.087  0.00  0.00    +0.001 A 
ATOM     13  C   UNL     1       8.487  -0.694  -0.081  0.00  0.00    +0.008 A 
ATOM     14  C   UNL     1       7.261  -0.006  -0.066  0.00  0.00    -0.014 A 
ATOM     15  C   UNL     1       7.220   1.398  -0.059  0.00  0.00    +0.054 A 
ATOM     16  C   UNL     1       6.020   2.045  -0.044  0.00  0.00    +0.130 A 
BRANCH  16  17
ATOM     17  O   UNL     1       5.988   3.402  -0.037  0.00  0.00    -0.506 OA
ATOM     18  H   UNL     1       5.987   3.790   0.849  0.00  0.00    +0.292 HD
ENDBRANCH  16  17
ENDBRANCH   4   7
ENDBRANCH   1   3
BRANCH   1  19
ATOM     19  C   UNL     1      -0.016   1.344   0.009  0.00  0.00    +0.153 C 
ATOM     20  S   UNL     1      -1.510   2.179   0.021  0.00  0.00    -0.017 S 
BRANCH  19  23
ATOM     21  C   UNL     1      -1.156  -0.694   0.009  0.00  0.00    +0.242 C 
ATOM     22  O   UNL     1      -2.218  -0.099   0.023  0.00  0.00    -0.270 OA
ATOM     23  N   UNL     1       0.002  -0.004   0.002  0.00  0.00    -0.263 N 
ATOM     24  H   UNL     1       0.849  -0.478  -0.009  0.00  0.00    +0.157 HD
BRANCH  21  26
ATOM     25  C   UNL     1      -2.303  -2.802   0.009  0.00  0.00    +0.051 C 
ATOM     26  C   UNL     1      -1.137  -2.107   0.002  0.00  0.00    +0.071 C 
BRANCH  25  31
ATOM     27  C   UNL     1      -0.609  -7.464  -0.031  0.00  0.00    +0.086 C 
ATOM     28  C   UNL     1      -1.550  -6.287  -0.017  0.00  0.00    +0.103 A 
ATOM     29  C   UNL     1      -2.899  -6.361  -0.005  0.00  0.00    +0.045 A 
ATOM     30  C   UNL     1      -3.387  -5.046   0.013  0.00  0.00    +0.049 A 
ATOM     31  C   UNL     1      -2.283  -4.217   0.001  0.00  0.00    +0.128 A 
ATOM     32  O   UNL     1      -1.183  -4.998  -0.013  0.00  0.00    -0.461 OA
ENDBRANCH  25  31
ENDBRANCH  21  26
ENDBRANCH  19  23
ENDBRANCH   1  19
TORSDOF 7
