REMARK  Name = ZINC16688542
REMARK  10 active torsions:
REMARK  status: ('A' for Active; 'I' for Inactive)
REMARK    1  A    between atoms: C_1  and  C_2
REMARK    2  A    between atoms: C_2  and  O_3
REMARK    3  A    between atoms: O_3  and  C_4
REMARK    4  A    between atoms: C_6  and  C_21
REMARK    5  A    between atoms: C_9  and  O_10
REMARK    6  A    between atoms: O_10  and  C_11
REMARK    7  A    between atoms: C_11  and  C_12
REMARK    8  A    between atoms: C_21  and  N_51
REMARK    9  A    between atoms: C_22  and  C_23
REMARK   10  A    between atoms: C_22  and  N_51
REMARK                            x       y       z     vdW  Elec       q    Type
REMARK                         _______ _______ _______ _____ _____    ______ ____
ROOT
ATOM      1  C   UNL     1      -0.398   7.654  -2.873  0.00  0.00    +0.163 A 
ATOM      2  C   UNL     1      -0.405   6.269  -2.920  0.00  0.00    +0.051 A 
ATOM      3  C   UNL     1      -1.445   5.562  -2.345  0.00  0.00    -0.060 A 
ATOM      4  C   UNL     1      -2.483   6.234  -1.728  0.00  0.00    +0.021 A 
ATOM      5  C   UNL     1      -2.481   7.617  -1.673  0.00  0.00    +0.063 A 
ATOM      6  C   UNL     1      -1.440   8.331  -2.247  0.00  0.00    +0.176 A 
ATOM      7 BR   UNL     1      -3.899   8.532  -0.821  0.00  0.00    -0.046 Br
ENDROOT
BRANCH   1   8
ATOM      8  O   UNL     1       0.624   8.350  -3.438  0.00  0.00    -0.489 OA
BRANCH   8  10
ATOM      9  C   UNL     1       2.713   8.538  -4.638  0.00  0.00    +0.048 C 
ATOM     10  C   UNL     1       1.659   7.589  -4.064  0.00  0.00    +0.226 C 
ENDBRANCH   8  10
ENDBRANCH   1   8
BRANCH   6  11
ATOM     11  O   UNL     1      -1.439   9.690  -2.200  0.00  0.00    -0.483 OA
BRANCH  11  12
ATOM     12  C   UNL     1      -2.074  10.378  -3.279  0.00  0.00    +0.266 C 
BRANCH  12  13
ATOM     13  C   UNL     1      -1.974  11.865  -3.055  0.00  0.00    +0.008 A 
ATOM     14  C   UNL     1      -1.335  12.353  -1.931  0.00  0.00    +0.010 A 
ATOM     15  C   UNL     1      -1.242  13.716  -1.725  0.00  0.00    +0.020 A 
ATOM     16  C   UNL     1      -1.789  14.594  -2.645  0.00  0.00    +0.042 A 
ATOM     17  C   UNL     1      -2.428  14.106  -3.770  0.00  0.00    +0.040 A 
ATOM     18  C   UNL     1      -2.516  12.741  -3.978  0.00  0.00    +0.049 A 
ATOM     19 CL   UNL     1      -3.313  12.128  -5.394  0.00  0.00    -0.083 Cl
ATOM     20 CL   UNL     1      -1.672  16.307  -2.387  0.00  0.00    -0.083 Cl
ENDBRANCH  12  13
ENDBRANCH  11  12
ENDBRANCH   6  11
BRANCH   3  21
ATOM     21  C   UNL     1      -1.450   4.056  -2.398  0.00  0.00    -0.047 C 
BRANCH  21  22
ATOM     22  N   UNL     1      -0.755   3.529  -1.208  0.00  0.00    +0.383 N 
ATOM     23  H   UNL     1      -1.240   3.850  -0.362  0.00  0.00    -0.085 HD
ATOM     24  H   UNL     1       0.212   3.874  -1.200  0.00  0.00    -0.085 HD
BRANCH  22  25
ATOM     25  C   UNL     1      -0.745   2.054  -1.233  0.00  0.00    -0.050 C 
BRANCH  25  26
ATOM     26  C   UNL     1      -0.019   1.537   0.011  0.00  0.00    +0.101 C 
ATOM     27  C   UNL     1       0.002  -0.004   0.002  0.00  0.00    +0.032 C 
ATOM     28  C   UNL     1       1.508  -0.363   0.039  0.00  0.00    +0.030 C 
ATOM     29  C   UNL     1       2.138   0.935   0.603  0.00  0.00    +0.160 C 
ATOM     30  O   UNL     1       1.348   1.983  -0.000  0.00  0.00    -0.378 OA
ENDBRANCH  25  26
ENDBRANCH  22  25
ENDBRANCH  21  22
ENDBRANCH   3  21
TORSDOF 9
