REMARK  Name = ZINC17043695
REMARK  11 active torsions:
REMARK  status: ('A' for Active; 'I' for Inactive)
REMARK    1  A    between atoms: C_1  and  C_2
REMARK    2  A    between atoms: C_2  and  C_4
REMARK    3  A    between atoms: C_2  and  S_15
REMARK    4  A    between atoms: N_6  and  C_7
REMARK    5  A    between atoms: C_8  and  C_12
REMARK    6  A    between atoms: S_15  and  C_16
REMARK    7  A    between atoms: N_29  and  C_30
REMARK    8  A    between atoms: C_30  and  C_31
REMARK    9  A    between atoms: C_31  and  C_32
REMARK   10  A    between atoms: C_32  and  C_33
REMARK   11  A    between atoms: C_32  and  C_34
REMARK                            x       y       z     vdW  Elec       q    Type
REMARK                         _______ _______ _______ _____ _____    ______ ____
ROOT
ATOM      1  C   UNL     1      -2.365  -0.093  -1.525  0.00  0.00    +0.198 A 
ATOM      2  N   UNL     1      -1.728   0.596  -2.440  0.00  0.00    -0.120 NA
ATOM      3  N   UNL     1      -2.608   0.819  -3.506  0.00  0.00    -0.109 NA
ATOM      4  C   UNL     1      -3.759   0.257  -3.211  0.00  0.00    +0.240 A 
ATOM      5  N   UNL     1      -3.635  -0.327  -1.979  0.00  0.00    -0.256 N 
ATOM      6  C   UNL     1      -4.707  -1.008  -1.408  0.00  0.00    +0.064 A 
ATOM      7  C   UNL     1      -4.593  -1.600  -0.159  0.00  0.00    +0.027 A 
ATOM      8  C   UNL     1      -5.671  -2.269   0.386  0.00  0.00    +0.002 A 
ATOM      9  C   UNL     1      -6.869  -2.356  -0.306  0.00  0.00    +0.001 A 
ATOM     10  C   UNL     1      -7.000  -1.774  -1.549  0.00  0.00    +0.015 A 
ATOM     11  C   UNL     1      -5.919  -1.095  -2.109  0.00  0.00    +0.064 A 
ATOM     12  C   UNL     1      -6.018  -0.459  -3.435  0.00  0.00    +0.263 A 
ATOM     13  O   UNL     1      -7.053  -0.514  -4.072  0.00  0.00    -0.267 OA
ATOM     14  N   UNL     1      -4.945   0.193  -3.926  0.00  0.00    -0.277 N 
ENDROOT
BRANCH   1  15
ATOM     15  S   UNL     1      -1.700  -0.632   0.015  0.00  0.00    -0.073 S 
BRANCH  15  17
ATOM     16  C   UNL     1      -0.019   1.526   0.010  0.00  0.00    +0.029 C 
ATOM     17  C   UNL     1       0.002  -0.004   0.002  0.00  0.00    +0.137 C 
BRANCH  17  18
ATOM     18  C   UNL     1       0.731  -0.503   1.223  0.00  0.00    +0.231 C 
ATOM     19  O   UNL     1       0.105  -0.891   2.187  0.00  0.00    -0.274 OA
ATOM     20  N   UNL     1       2.079  -0.519   1.244  0.00  0.00    -0.278 N 
ATOM     21  H   UNL     1       2.579  -0.208   0.473  0.00  0.00    +0.155 HD
BRANCH  20  22
ATOM     22  C   UNL     1       2.749  -0.978   2.367  0.00  0.00    +0.084 A 
ATOM     23  C   UNL     1       4.119  -1.060   2.568  0.00  0.00    +0.065 A 
ATOM     24  C   UNL     1       4.555  -1.582   3.844  0.00  0.00    +0.022 A 
ATOM     25  C   UNL     1       3.577  -1.931   4.700  0.00  0.00    +0.048 A 
ATOM     26  S   UNL     1       2.090  -1.555   3.798  0.00  0.00    -0.081 S 
BRANCH  23  27
ATOM     27  C   UNL     1       5.076  -0.641   1.540  0.00  0.00    +0.244 C 
ATOM     28  O   UNL     1       4.674  -0.206   0.476  0.00  0.00    -0.270 OA
ATOM     29  N   UNL     1       6.400  -0.736   1.772  0.00  0.00    -0.325 N 
ATOM     30  H   UNL     1       6.720  -1.082   2.619  0.00  0.00    +0.145 HD
ATOM     31  H   UNL     1       7.033  -0.458   1.091  0.00  0.00    +0.145 HD
ENDBRANCH  23  27
ENDBRANCH  20  22
ENDBRANCH  17  18
ENDBRANCH  15  17
ENDBRANCH   1  15
BRANCH  14  32
ATOM     32  C   UNL     1      -5.027   0.828  -5.244  0.00  0.00    +0.128 C 
BRANCH  32  33
ATOM     33  C   UNL     1      -4.617  -0.177  -6.321  0.00  0.00    +0.025 C 
BRANCH  33  34
ATOM     34  C   UNL     1      -4.703   0.486  -7.697  0.00  0.00    -0.016 C 
ATOM     35  C   UNL     1      -3.674   1.616  -7.784  0.00  0.00    +0.007 C 
ATOM     36  C   UNL     1      -4.413  -0.552  -8.783  0.00  0.00    +0.007 C 
ENDBRANCH  33  34
ENDBRANCH  32  33
ENDBRANCH  14  32
TORSDOF 8
