REMARK  Name = ZINC14237559
REMARK  10 active torsions:
REMARK  status: ('A' for Active; 'I' for Inactive)
REMARK    1  A    between atoms: C_1  and  C_2
REMARK    2  A    between atoms: C_2  and  O_3
REMARK    3  A    between atoms: O_3  and  C_4
REMARK    4  A    between atoms: C_7  and  C_12
REMARK    5  A    between atoms: C_9  and  O_10
REMARK    6  A    between atoms: O_10  and  C_11
REMARK    7  A    between atoms: C_12  and  C_14
REMARK    8  A    between atoms: C_12  and  C_27
REMARK    9  A    between atoms: C_14  and  N_15
REMARK   10  A    between atoms: C_16  and  C_18
REMARK                            x       y       z     vdW  Elec       q    Type
REMARK                         _______ _______ _______ _____ _____    ______ ____
ROOT
ATOM      1  C   UNL     1       7.045  -3.359   3.905  0.00  0.00    +0.068 C 
ENDROOT
BRANCH   1   2
ATOM      2  C   UNL     1       6.097  -3.617   5.047  0.00  0.00    -0.013 A 
ATOM      3  C   UNL     1       6.036  -2.938   6.203  0.00  0.00    +0.088 A 
ATOM      4  N   UNL     1       5.049  -3.456   6.997  0.00  0.00    -0.360 N 
ATOM      5  H   UNL     1       4.815  -3.129   7.880  0.00  0.00    +0.165 HD
ATOM      6  C   UNL     1       4.441  -4.513   6.358  0.00  0.00    +0.047 A 
ATOM      7  C   UNL     1       5.071  -4.661   5.109  0.00  0.00    +0.003 A 
ATOM      8  C   UNL     1       4.657  -5.667   4.234  0.00  0.00    +0.010 A 
ATOM      9  C   UNL     1       3.640  -6.505   4.597  0.00  0.00    +0.001 A 
ATOM     10  C   UNL     1       3.016  -6.364   5.829  0.00  0.00    +0.002 A 
ATOM     11  C   UNL     1       3.409  -5.378   6.707  0.00  0.00    +0.026 A 
ENDBRANCH   1   2
BRANCH   1  15
ATOM     12  C   UNL     1      11.074  -3.770   5.279  0.00  0.00    +0.162 A 
ATOM     13  C   UNL     1      10.238  -2.825   5.849  0.00  0.00    +0.050 A 
ATOM     14  C   UNL     1       8.937  -2.690   5.399  0.00  0.00    +0.008 A 
ATOM     15  C   UNL     1       8.465  -3.505   4.387  0.00  0.00    -0.035 A 
ATOM     16  C   UNL     1       9.295  -4.451   3.813  0.00  0.00    +0.053 A 
ATOM     17  C   UNL     1      10.601  -4.587   4.256  0.00  0.00    +0.162 A 
BRANCH  17  18
ATOM     18  O   UNL     1      11.418  -5.517   3.693  0.00  0.00    -0.491 OA
ATOM     19  C   UNL     1      10.864  -6.320   2.649  0.00  0.00    +0.277 C 
ENDBRANCH  17  18
BRANCH  12  20
ATOM     20  O   UNL     1      12.355  -3.900   5.716  0.00  0.00    -0.489 OA
BRANCH  20  22
ATOM     21  C   UNL     1      14.232  -3.319   7.124  0.00  0.00    +0.048 C 
ATOM     22  C   UNL     1      12.772  -3.028   6.769  0.00  0.00    +0.226 C 
ENDBRANCH  20  22
ENDBRANCH  12  20
ENDBRANCH   1  15
BRANCH   1  23
ATOM     23  C   UNL     1       6.831  -1.939   3.375  0.00  0.00    +0.117 C 
BRANCH  23  24
ATOM     24  N   UNL     1       5.489  -1.831   2.797  0.00  0.00    -0.310 N 
ATOM     25  C   UNL     1       5.076  -0.664   2.265  0.00  0.00    +0.244 C 
ATOM     26  O   UNL     1       5.817   0.300   2.265  0.00  0.00    -0.270 OA
ATOM     27  H   UNL     1       4.898  -2.600   2.797  0.00  0.00    +0.149 HD
BRANCH  25  28
ATOM     28  C   UNL     1       3.724  -0.555   1.683  0.00  0.00    +0.040 A 
ATOM     29  C   UNL     1       2.871  -1.662   1.682  0.00  0.00    +0.017 A 
ATOM     30  C   UNL     1       1.609  -1.558   1.138  0.00  0.00    +0.050 A 
ATOM     31  C   UNL     1       1.181  -0.356   0.590  0.00  0.00    +0.166 A 
ATOM     32  C   UNL     1       2.028   0.752   0.588  0.00  0.00    +0.167 A 
ATOM     33  C   UNL     1       3.294   0.654   1.131  0.00  0.00    +0.062 A 
ATOM     34  O   UNL     1       1.376   1.797  -0.001  0.00  0.00    -0.453 OA
ATOM     35  C   UNL     1      -0.017   1.435   0.010  0.00  0.00    +0.466 C 
ATOM     36  O   UNL     1       0.002  -0.004   0.002  0.00  0.00    -0.453 OA
ENDBRANCH  25  28
ENDBRANCH  23  24
ENDBRANCH   1  23
TORSDOF 8
