REMARK  Name = ZINC35497976
REMARK  4 active torsions:
REMARK  status: ('A' for Active; 'I' for Inactive)
REMARK    1  A    between atoms: C_1  and  N_2
REMARK    2  A    between atoms: N_2  and  C_3
REMARK    3  A    between atoms: C_3  and  C_5
REMARK    4  A    between atoms: C_3  and  C_11
REMARK                            x       y       z     vdW  Elec       q    Type
REMARK                         _______ _______ _______ _____ _____    ______ ____
ROOT
ATOM      1  C   UNL     1       0.690  -0.478  -1.207  0.00  0.00    +0.003 C 
ENDROOT
BRANCH   1   2
ATOM      2  C   UNL     1       2.137  -0.060  -1.158  0.00  0.00    -0.019 A 
ATOM      3  C   UNL     1       2.923   0.404  -2.153  0.00  0.00    +0.013 A 
ATOM      4  C   UNL     1       4.258   0.742  -1.898  0.00  0.00    -0.037 A 
ATOM      5  C   UNL     1       4.688   0.572  -0.624  0.00  0.00    -0.007 A 
ATOM      6  S   UNL     1       3.257  -0.040   0.233  0.00  0.00    -0.099 S 
ATOM      7  C   UNL     1       6.044   0.836  -0.054  0.00  0.00    +0.043 C 
ATOM      8  C   UNL     1       6.717   1.962  -0.850  0.00  0.00    +0.005 C 
ATOM      9  C   UNL     1       7.477   1.339  -2.016  0.00  0.00    +0.001 C 
ATOM     10  C   UNL     1       6.526   0.581  -2.939  0.00  0.00    +0.005 C 
ATOM     11  C   UNL     1       5.168   1.274  -2.999  0.00  0.00    +0.036 C 
ENDBRANCH   1   2
BRANCH   1  12
ATOM     12  C   UNL     1       0.603  -1.981  -1.277  0.00  0.00    -0.018 A 
ATOM     13  C   UNL     1       0.398  -2.773  -2.357  0.00  0.00    +0.011 A 
ATOM     14  C   UNL     1       0.356  -4.145  -2.184  0.00  0.00    +0.028 A 
ATOM     15  C   UNL     1       0.520  -4.655  -0.938  0.00  0.00    +0.078 A 
ATOM     16  S   UNL     1       0.752  -3.178   0.038  0.00  0.00    -0.083 S 
ATOM     17 CL   UNL     1       0.514  -6.314  -0.426  0.00  0.00    -0.076 Cl
ENDBRANCH   1  12
BRANCH   1  19
ATOM     18  C   UNL     1      -0.018   1.465   0.010  0.00  0.00    -0.099 C 
ATOM     19  N   UNL     1       0.002  -0.004   0.002  0.00  0.00    +0.385 N 
ATOM     20  H   UNL     1       0.490  -0.338   0.820  0.00  0.00    -0.085 HD
ATOM     21  H   UNL     1      -0.945  -0.353   0.009  0.00  0.00    -0.085 HD
ENDBRANCH   1  19
TORSDOF 3
