REMARK  Name = ZINC41583697
REMARK  9 active torsions:
REMARK  status: ('A' for Active; 'I' for Inactive)
REMARK    1  A    between atoms: C_1  and  C_2
REMARK    2  A    between atoms: C_2  and  N_3
REMARK    3  A    between atoms: C_5  and  C_12
REMARK    4  A    between atoms: C_17  and  C_35
REMARK    5  A    between atoms: C_19  and  O_34
REMARK    6  A    between atoms: C_20  and  C_23
REMARK    7  A    between atoms: C_23  and  N_24
REMARK    8  A    between atoms: C_26  and  C_33
REMARK    9  A    between atoms: C_29  and  C_32
REMARK                            x       y       z     vdW  Elec       q    Type
REMARK                         _______ _______ _______ _____ _____    ______ ____
ROOT
ATOM      1  C   UNL     1       0.760  -1.669  -4.652  0.00  0.00    +0.060 C 
ATOM      2  C   UNL     1      -0.520  -1.823  -5.095  0.00  0.00    +0.176 C 
ATOM      3  C   UNL     1      -1.694  -1.484  -4.373  0.00  0.00    +0.232 C 
ATOM      4  O   UNL     1      -1.764  -1.004  -3.253  0.00  0.00    -0.283 OA
ATOM      5  C   UNL     1      -2.812  -1.834  -5.267  0.00  0.00    +0.071 A 
ATOM      6  C   UNL     1      -4.199  -1.747  -5.151  0.00  0.00    -0.033 A 
ATOM      7  C   UNL     1      -4.995  -2.164  -6.180  0.00  0.00    +0.050 A 
ATOM      8  C   UNL     1      -4.427  -2.676  -7.343  0.00  0.00    +0.122 A 
ATOM      9  C   UNL     1      -3.051  -2.768  -7.473  0.00  0.00    +0.020 A 
ATOM     10  C   UNL     1      -2.228  -2.348  -6.437  0.00  0.00    +0.145 A 
ATOM     11  O   UNL     1      -0.885  -2.321  -6.300  0.00  0.00    -0.451 OA
ATOM     12  C   UNL     1      -4.818  -1.194  -3.893  0.00  0.00    +0.045 C 
ENDROOT
BRANCH   1  15
ATOM     13  N   UNL     1       0.855  -1.114  -1.046  0.00  0.00    -0.346 N 
ATOM     14  C   UNL     1       0.330  -1.703  -2.149  0.00  0.00    +0.094 A 
ATOM     15  C   UNL     1       1.011  -1.274  -3.268  0.00  0.00    +0.004 A 
ATOM     16  C   UNL     1       2.044  -0.336  -2.788  0.00  0.00    +0.007 A 
ATOM     17  C   UNL     1       1.893  -0.274  -1.393  0.00  0.00    +0.050 A 
ATOM     18  C   UNL     1       2.737   0.547  -0.653  0.00  0.00    +0.026 A 
ATOM     19  C   UNL     1       3.707   1.290  -1.289  0.00  0.00    +0.002 A 
ATOM     20  C   UNL     1       3.853   1.230  -2.667  0.00  0.00    +0.001 A 
ATOM     21  C   UNL     1       3.031   0.416  -3.418  0.00  0.00    +0.010 A 
BRANCH  13  23
ATOM     22  C   UNL     1      -0.625  -0.244   0.696  0.00  0.00    +0.027 C 
ATOM     23  C   UNL     1       0.382  -1.334   0.323  0.00  0.00    +0.118 C 
ENDBRANCH  13  23
ENDBRANCH   1  15
BRANCH   8  24
ATOM     24  O   UNL     1      -5.228  -3.088  -8.359  0.00  0.00    -0.506 OA
ATOM     25  H   UNL     1      -5.438  -2.396  -9.000  0.00  0.00    +0.292 HD
ENDBRANCH   8  24
BRANCH   9  26
ATOM     26  C   UNL     1      -2.448  -3.325  -8.737  0.00  0.00    -0.036 C 
BRANCH  26  27
ATOM     27  N   UNL     1      -2.217  -2.232  -9.692  0.00  0.00    +0.383 N 
ATOM     28  C   UNL     1      -3.506  -1.652 -10.089  0.00  0.00    -0.075 C 
ATOM     29  C   UNL     1      -3.268  -0.461 -11.020  0.00  0.00    -0.031 C 
ATOM     30  C   UNL     1      -2.515  -0.938 -12.266  0.00  0.00    +0.003 C 
ATOM     31  C   UNL     1      -1.207  -1.608 -11.835  0.00  0.00    -0.031 C 
ATOM     32  C   UNL     1      -1.522  -2.756 -10.873  0.00  0.00    -0.075 C 
ATOM     33  C   UNL     1      -0.484  -2.155 -13.067  0.00  0.00    +0.005 C 
ATOM     34  C   UNL     1      -2.437   0.598 -10.294  0.00  0.00    +0.005 C 
ATOM     35  H   UNL     1      -1.650  -1.521  -9.256  0.00  0.00    -0.081 HD
ENDBRANCH  26  27
ENDBRANCH   9  26
TORSDOF 5
