REMARK  Name = ZINC64700842
REMARK  7 active torsions:
REMARK  status: ('A' for Active; 'I' for Inactive)
REMARK    1  A    between atoms: C_1  and  C_2
REMARK    2  A    between atoms: C_2  and  C_3
REMARK    3  A    between atoms: C_6  and  N_9
REMARK    4  A    between atoms: C_10  and  C_12
REMARK    5  A    between atoms: C_12  and  S_13
REMARK    6  A    between atoms: S_13  and  C_14
REMARK    7  A    between atoms: C_24  and  C_26
REMARK                            x       y       z     vdW  Elec       q    Type
REMARK                         _______ _______ _______ _____ _____    ______ ____
ROOT
ATOM      1  C   UNL     1       6.710  -3.726  -7.123  0.00  0.00    +0.272 C 
ATOM      2  N   UNL     1       6.059  -5.041  -7.258  0.00  0.00    -0.163 NA
ATOM      3  N   UNL     1       4.990  -5.214  -7.849  0.00  0.00    -0.081 NA
ATOM      4  C   UNL     1       4.271  -4.209  -8.412  0.00  0.00    +0.276 C 
ATOM      5  O   UNL     1       3.286  -4.425  -9.077  0.00  0.00    -0.270 OA
ATOM      6  C   UNL     1       4.767  -2.818  -8.161  0.00  0.00    +0.193 C 
ATOM      7  N   UNL     1       6.262  -2.914  -8.234  0.00  0.00    -0.178 NA
ATOM      8  N   UNL     1       6.595  -1.610  -8.369  0.00  0.00    -0.274 N 
ATOM      9  C   UNL     1       5.676  -1.099  -9.316  0.00  0.00    +0.047 C 
ATOM     10  C   UNL     1       4.501  -1.805  -9.242  0.00  0.00    +0.027 C 
ATOM     11  H   UNL     1       7.306  -1.131  -7.916  0.00  0.00    +0.167 HD
ENDROOT
BRANCH   9  12
ATOM     12  C   UNL     1       5.935   0.034 -10.235  0.00  0.00    -0.003 A 
ATOM     13  C   UNL     1       4.946   0.453 -11.124  0.00  0.00    +0.012 A 
ATOM     14  C   UNL     1       5.191   1.509 -11.977  0.00  0.00    +0.039 A 
ATOM     15  C   UNL     1       6.418   2.152 -11.952  0.00  0.00    +0.123 A 
ATOM     16  C   UNL     1       7.405   1.738 -11.071  0.00  0.00    +0.039 A 
ATOM     17  C   UNL     1       7.166   0.688 -10.209  0.00  0.00    +0.012 A 
ATOM     18  F   UNL     1       6.654   3.185 -12.790  0.00  0.00    -0.205 F 
ENDBRANCH   9  12
BRANCH   1  19
ATOM     19  S   UNL     1       6.224  -2.952  -5.556  0.00  0.00    -0.107 S 
BRANCH  19  20
ATOM     20  C   UNL     1       7.232  -3.807  -4.314  0.00  0.00    +0.168 C 
BRANCH  20  22
ATOM     21  N   UNL     1       7.455  -3.841  -1.850  0.00  0.00    -0.285 N 
ATOM     22  C   UNL     1       6.835  -3.339  -2.937  0.00  0.00    +0.227 C 
ATOM     23  O   UNL     1       5.959  -2.511  -2.807  0.00  0.00    -0.275 OA
ATOM     24  H   UNL     1       8.205  -4.446  -1.956  0.00  0.00    +0.155 HD
BRANCH  21  28
ATOM     25  C   UNL     1       6.145  -2.795   1.964  0.00  0.00    -0.048 A 
ATOM     26  C   UNL     1       5.236  -2.901   0.927  0.00  0.00    +0.005 A 
ATOM     27  C   UNL     1       5.667  -3.248  -0.338  0.00  0.00    +0.023 A 
ATOM     28  C   UNL     1       7.015  -3.489  -0.569  0.00  0.00    +0.033 A 
ATOM     29  C   UNL     1       7.925  -3.381   0.474  0.00  0.00    +0.023 A 
ATOM     30  C   UNL     1       7.488  -3.030   1.736  0.00  0.00    +0.005 A 
BRANCH  25  32
ATOM     31  C   UNL     1       5.700  -0.894   3.493  0.00  0.00    +0.009 C 
ATOM     32  C   UNL     1       5.671  -2.417   3.343  0.00  0.00    +0.032 C 
ENDBRANCH  25  32
ENDBRANCH  21  28
ENDBRANCH  20  22
ENDBRANCH  19  20
ENDBRANCH   1  19
TORSDOF 6
