REMARK  Name = ZINC10039516
REMARK  14 active torsions:
REMARK  status: ('A' for Active; 'I' for Inactive)
REMARK    1  A    between atoms: C_1  and  C_2
REMARK    2  A    between atoms: C_2  and  C_3
REMARK    3  A    between atoms: C_3  and  O_4
REMARK    4  A    between atoms: O_4  and  C_5
REMARK    5  A    between atoms: C_5  and  C_7
REMARK    6  A    between atoms: C_10  and  C_13
REMARK    7  A    between atoms: C_16  and  C_18
REMARK    8  A    between atoms: N_19  and  N_20
REMARK    9  A    between atoms: C_21  and  C_23
REMARK   10  A    between atoms: C_23  and  C_25
REMARK   11  A    between atoms: C_23  and  N_28
REMARK   12  A    between atoms: C_25  and  C_26
REMARK   13  A    between atoms: C_25  and  C_27
REMARK   14  A    between atoms: C_29  and  C_31
REMARK                            x       y       z     vdW  Elec       q    Type
REMARK                         _______ _______ _______ _____ _____    ______ ____
ROOT
ATOM      1  C   UNL     1      -4.340  -1.312  -2.505  0.00  0.00    +0.176 C 
ATOM      2  N   UNL     1      -3.643  -1.305  -1.406  0.00  0.00    -0.185 NA
ENDROOT
BRANCH   1   6
ATOM      3  C   UNL     1      -2.303   0.010  -5.184  0.00  0.00    +0.136 A 
ATOM      4  C   UNL     1      -3.486  -0.120  -5.853  0.00  0.00    +0.050 A 
ATOM      5  C   UNL     1      -4.416  -0.640  -4.946  0.00  0.00    +0.051 A 
ATOM      6  C   UNL     1      -3.757  -0.798  -3.746  0.00  0.00    +0.148 A 
ATOM      7  O   UNL     1      -2.479  -0.402  -3.914  0.00  0.00    -0.454 OA
BRANCH   3  11
ATOM      8  C   UNL     1       1.320   1.467  -6.831  0.00  0.00    +0.059 A 
ATOM      9  C   UNL     1       1.296   0.970  -5.523  0.00  0.00    +0.015 A 
ATOM     10  C   UNL     1       0.129   0.501  -4.993  0.00  0.00    +0.012 A 
ATOM     11  C   UNL     1      -1.044   0.517  -5.757  0.00  0.00    +0.017 A 
ATOM     12  C   UNL     1      -1.018   1.009  -7.066  0.00  0.00    +0.012 A 
ATOM     13  C   UNL     1       0.148   1.483  -7.595  0.00  0.00    +0.015 A 
BRANCH   8  14
ATOM     14  C   UNL     1       2.580   1.974  -7.404  0.00  0.00    +0.339 C 
ATOM     15  O   UNL     1       3.598   1.960  -6.740  0.00  0.00    -0.245 OA
BRANCH  14  16
ATOM     16  O   UNL     1       2.604   2.453  -8.663  0.00  0.00    -0.461 OA
BRANCH  16  17
ATOM     17  C   UNL     1       3.879   2.935  -9.162  0.00  0.00    +0.232 C 
BRANCH  17  19
ATOM     18  C   UNL     1       5.054   3.943 -11.123  0.00  0.00    +0.007 C 
ATOM     19  C   UNL     1       3.710   3.435 -10.598  0.00  0.00    +0.038 C 
ENDBRANCH  17  19
ENDBRANCH  16  17
ENDBRANCH  14  16
ENDBRANCH   8  14
ENDBRANCH   3  11
ENDBRANCH   1   6
BRANCH   2  20
ATOM     20  N   UNL     1      -2.398  -0.665  -1.370  0.00  0.00    -0.205 N 
ATOM     21  C   UNL     1      -1.626  -0.753  -0.269  0.00  0.00    +0.253 C 
ATOM     22  O   UNL     1      -0.511  -0.275  -0.270  0.00  0.00    -0.272 OA
ATOM     23  H   UNL     1      -2.091  -0.158  -2.139  0.00  0.00    +0.177 HD
BRANCH  21  24
ATOM     24  C   UNL     1      -2.148  -1.446   0.963  0.00  0.00    +0.163 C 
BRANCH  24  25
ATOM     25  N   UNL     1      -1.464  -0.918   2.147  0.00  0.00    -0.300 N 
ATOM     26  C   UNL     1      -2.061  -0.979   3.353  0.00  0.00    +0.245 C 
ATOM     27  O   UNL     1      -3.167  -1.472   3.460  0.00  0.00    -0.270 OA
ATOM     28  H   UNL     1      -0.581  -0.524   2.061  0.00  0.00    +0.150 HD
BRANCH  26  29
ATOM     29  C   UNL     1      -1.371  -0.446   4.547  0.00  0.00    +0.038 A 
ATOM     30  C   UNL     1      -1.986  -0.508   5.799  0.00  0.00    +0.013 A 
ATOM     31  C   UNL     1      -1.337  -0.010   6.909  0.00  0.00    +0.002 A 
ATOM     32  C   UNL     1      -0.078   0.550   6.786  0.00  0.00    +0.020 A 
ATOM     33  C   UNL     1       0.538   0.615   5.548  0.00  0.00    +0.042 A 
ATOM     34  C   UNL     1      -0.099   0.116   4.429  0.00  0.00    +0.033 A 
ATOM     35 CL   UNL     1       2.119   1.319   5.403  0.00  0.00    -0.084 Cl
ENDBRANCH  26  29
ENDBRANCH  24  25
BRANCH  24  36
ATOM     36  C   UNL     1      -1.888  -2.949   0.853  0.00  0.00    +0.012 C 
ATOM     37  C   UNL     1      -2.277  -3.632   2.165  0.00  0.00    +0.009 C 
ATOM     38  C   UNL     1      -2.723  -3.528  -0.291  0.00  0.00    +0.009 C 
ENDBRANCH  24  36
ENDBRANCH  21  24
ENDBRANCH   2  20
TORSDOF 11
