REMARK  Name = ZINC43730814
REMARK  11 active torsions:
REMARK  status: ('A' for Active; 'I' for Inactive)
REMARK    1  A    between atoms: C_1  and  C_2
REMARK    2  A    between atoms: C_2  and  C_3
REMARK    3  A    between atoms: C_2  and  C_4
REMARK    4  A    between atoms: C_4  and  C_5
REMARK    5  A    between atoms: C_5  and  C_7
REMARK    6  A    between atoms: C_5  and  N_18
REMARK    7  A    between atoms: N_9  and  C_10
REMARK    8  A    between atoms: C_10  and  C_11
REMARK    9  A    between atoms: C_19  and  C_21
REMARK   10  A    between atoms: C_23  and  C_36
REMARK   11  A    between atoms: C_23  and  C_37
REMARK                            x       y       z     vdW  Elec       q    Type
REMARK                         _______ _______ _______ _____ _____    ______ ____
ROOT
ATOM      1  N   UNL     1      -0.757  -2.350  -1.487  0.00  0.00    -0.302 N 
ATOM      2  C   UNL     1       0.577  -2.499  -1.618  0.00  0.00    +0.236 C 
ATOM      3  O   UNL     1       1.304  -2.317  -0.665  0.00  0.00    -0.274 OA
ATOM      4  H   UNL     1      -1.330  -2.404  -2.267  0.00  0.00    +0.150 HD
ENDROOT
BRANCH   2   5
ATOM      5  C   UNL     1       1.163  -2.890  -2.950  0.00  0.00    +0.179 C 
ATOM      6  C   UNL     1       1.343  -1.615  -3.807  0.00  0.00    +0.040 C 
ATOM      7  S   UNL     1       3.181  -1.511  -3.934  0.00  0.00    -0.125 S 
ATOM      8  C   UNL     1       3.565  -2.683  -2.565  0.00  0.00    +0.167 C 
ATOM      9  N   UNL     1       2.413  -3.615  -2.717  0.00  0.00    -0.269 N 
ATOM     10  C   UNL     1       2.931  -4.857  -2.603  0.00  0.00    +0.249 C 
ATOM     11  O   UNL     1       2.305  -5.852  -2.295  0.00  0.00    -0.270 OA
ATOM     12  C   UNL     1       4.375  -4.822  -2.911  0.00  0.00    +0.043 A 
ATOM     13  C   UNL     1       4.796  -3.479  -2.892  0.00  0.00    -0.005 A 
ATOM     14  C   UNL     1       6.104  -3.144  -3.149  0.00  0.00    +0.007 A 
ATOM     15  C   UNL     1       7.036  -4.135  -3.408  0.00  0.00    +0.000 A 
ATOM     16  C   UNL     1       6.656  -5.465  -3.406  0.00  0.00    +0.001 A 
ATOM     17  C   UNL     1       5.312  -5.824  -3.161  0.00  0.00    +0.013 A 
ATOM     18  C   UNL     1       0.706  -1.788  -5.187  0.00  0.00    +0.025 C 
ATOM     19  C   UNL     1       0.772  -0.389  -3.091  0.00  0.00    +0.025 C 
ENDBRANCH   2   5
BRANCH   1  20
ATOM     20  C   UNL     1      -1.339  -2.108  -0.165  0.00  0.00    +0.159 C 
BRANCH  20  21
ATOM     21  C   UNL     1      -2.460  -3.086   0.077  0.00  0.00    +0.234 C 
ATOM     22  O   UNL     1      -2.744  -3.905  -0.771  0.00  0.00    -0.274 OA
ATOM     23  N   UNL     1      -3.147  -3.050   1.236  0.00  0.00    -0.310 N 
ATOM     24  H   UNL     1      -2.920  -2.396   1.915  0.00  0.00    +0.149 HD
BRANCH  23  25
ATOM     25  C   UNL     1      -4.237  -4.001   1.472  0.00  0.00    +0.139 C 
BRANCH  25  26
ATOM     26  C   UNL     1      -4.836  -3.752   2.832  0.00  0.00    -0.030 A 
ATOM     27  C   UNL     1      -4.330  -4.404   3.940  0.00  0.00    +0.006 A 
ATOM     28  C   UNL     1      -4.879  -4.176   5.188  0.00  0.00    +0.020 A 
ATOM     29  C   UNL     1      -5.936  -3.294   5.327  0.00  0.00    +0.041 A 
ATOM     30  C   UNL     1      -6.442  -2.642   4.217  0.00  0.00    +0.020 A 
ATOM     31  C   UNL     1      -5.888  -2.866   2.971  0.00  0.00    +0.006 A 
ATOM     32 CL   UNL     1      -6.627  -3.007   6.893  0.00  0.00    -0.084 Cl
ENDBRANCH  25  26
ENDBRANCH  23  25
ENDBRANCH  20  21
BRANCH  20  33
ATOM     33  C   UNL     1      -1.886  -0.680  -0.102  0.00  0.00    +0.034 C 
BRANCH  33  35
ATOM     34  C   UNL     1      -1.281   1.736  -0.301  0.00  0.00    +0.007 C 
ATOM     35  C   UNL     1      -0.727   0.314  -0.192  0.00  0.00    -0.015 C 
ATOM     36  C   UNL     1       0.141   0.200   1.063  0.00  0.00    +0.007 C 
ENDBRANCH  33  35
ENDBRANCH  20  33
ENDBRANCH   1  20
TORSDOF 7
