REMARK  Name = ZINC58948607
REMARK  10 active torsions:
REMARK  status: ('A' for Active; 'I' for Inactive)
REMARK    1  A    between atoms: C_1  and  C_2
REMARK    2  A    between atoms: N_7  and  C_9
REMARK    3  A    between atoms: C_9  and  C_10
REMARK    4  A    between atoms: C_13  and  C_16
REMARK    5  A    between atoms: C_16  and  N_17
REMARK    6  A    between atoms: C_18  and  C_20
REMARK    7  A    between atoms: C_20  and  C_22
REMARK    8  A    between atoms: C_20  and  S_23
REMARK    9  A    between atoms: S_23  and  C_24
REMARK   10  A    between atoms: C_27  and  N_30
REMARK                            x       y       z     vdW  Elec       q    Type
REMARK                         _______ _______ _______ _____ _____    ______ ____
ROOT
ATOM      1  C   UNL     1       1.009  -8.244   2.768  0.00  0.00    +0.139 C 
ENDROOT
BRANCH   1   5
ATOM      2  C   UNL     1       1.268  -3.982   2.649  0.00  0.00    -0.064 A 
ATOM      3  C   UNL     1       0.166  -4.591   3.218  0.00  0.00    +0.002 A 
ATOM      4  C   UNL     1       0.082  -5.971   3.256  0.00  0.00    +0.005 A 
ATOM      5  C   UNL     1       1.100  -6.740   2.725  0.00  0.00    -0.030 A 
ATOM      6  C   UNL     1       2.202  -6.130   2.155  0.00  0.00    +0.005 A 
ATOM      7  C   UNL     1       2.284  -4.751   2.113  0.00  0.00    +0.002 A 
BRANCH   2   8
ATOM      8  C   UNL     1       1.360  -2.478   2.608  0.00  0.00    -0.043 C 
BRANCH   8  14
ATOM      9  C   UNL     1      -0.013   1.531   0.156  0.00  0.00    +0.005 C 
ATOM     10  C   UNL     1       0.010   0.002   0.135  0.00  0.00    -0.031 C 
ATOM     11  C   UNL     1       0.762  -0.481  -1.109  0.00  0.00    -0.001 C 
ATOM     12  C   UNL     1       0.848  -2.010  -1.081  0.00  0.00    -0.018 C 
ATOM     13  C   UNL     1       1.527  -2.453   0.217  0.00  0.00    -0.078 C 
ATOM     14  N   UNL     1       0.747  -1.984   1.368  0.00  0.00    +0.383 N 
ATOM     15  C   UNL     1       0.720  -0.517   1.387  0.00  0.00    -0.075 C 
ATOM     16  H   UNL     1      -0.197  -2.335   1.298  0.00  0.00    -0.081 HD
ENDBRANCH   8  14
ENDBRANCH   2   8
ENDBRANCH   1   5
BRANCH   1  17
ATOM     17  N   UNL     1       0.342  -8.727   1.556  0.00  0.00    -0.310 N 
ATOM     18  C   UNL     1       0.148 -10.048   1.375  0.00  0.00    +0.226 C 
ATOM     19  O   UNL     1       0.526 -10.837   2.215  0.00  0.00    -0.275 OA
ATOM     20  H   UNL     1       0.041  -8.096   0.884  0.00  0.00    +0.149 HD
BRANCH  18  21
ATOM     21  C   UNL     1      -0.537 -10.545   0.128  0.00  0.00    +0.134 C 
ATOM     22  C   UNL     1       0.491 -10.691  -0.996  0.00  0.00    +0.029 C 
BRANCH  21  23
ATOM     23  S   UNL     1      -1.302 -12.156   0.460  0.00  0.00    -0.113 S 
BRANCH  23  24
ATOM     24  C   UNL     1      -2.616 -11.783   1.573  0.00  0.00    +0.009 A 
ATOM     25  C   UNL     1      -2.919 -10.460   1.873  0.00  0.00    +0.017 A 
ATOM     26  C   UNL     1      -3.950 -10.171   2.746  0.00  0.00    +0.034 A 
ATOM     27  C   UNL     1      -4.680 -11.196   3.320  0.00  0.00    +0.126 A 
ATOM     28  C   UNL     1      -4.381 -12.513   3.024  0.00  0.00    +0.034 A 
ATOM     29  C   UNL     1      -3.356 -12.809   2.147  0.00  0.00    +0.017 A 
BRANCH  27  30
ATOM     30  N   UNL     1      -5.784 -10.882   4.255  0.00  0.00    +0.056 N 
ATOM     31  O   UNL     1      -6.046  -9.731   4.516  0.00  0.00    -0.126 OA
ATOM     32  O   UNL     1      -6.423 -11.776   4.758  0.00  0.00    -0.126 OA
ENDBRANCH  27  30
ENDBRANCH  23  24
ENDBRANCH  21  23
ENDBRANCH  18  21
ENDBRANCH   1  17
TORSDOF 8
