REMARK  Name = ZINC12657817
REMARK  9 active torsions:
REMARK  status: ('A' for Active; 'I' for Inactive)
REMARK    1  A    between atoms: C_1  and  C_2
REMARK    2  A    between atoms: C_5  and  N_11
REMARK    3  A    between atoms: C_6  and  N_8
REMARK    4  A    between atoms: C_12  and  C_14
REMARK    5  A    between atoms: C_14  and  S_15
REMARK    6  A    between atoms: S_15  and  C_16
REMARK    7  A    between atoms: C_19  and  C_28
REMARK    8  A    between atoms: N_20  and  C_21
REMARK    9  A    between atoms: C_26  and  C_27
REMARK                            x       y       z     vdW  Elec       q    Type
REMARK                         _______ _______ _______ _____ _____    ______ ____
ROOT
ATOM      1  C   UNL     1      -0.494  -8.390  -2.920  0.00  0.00    +0.197 A 
ATOM      2  N   UNL     1      -0.459  -9.116  -1.827  0.00  0.00    -0.122 NA
ATOM      3  N   UNL     1      -0.566 -10.363  -2.119  0.00  0.00    -0.128 NA
ATOM      4  C   UNL     1      -0.676 -10.513  -3.420  0.00  0.00    +0.171 A 
ATOM      5  N   UNL     1      -0.638  -9.252  -3.975  0.00  0.00    -0.270 N 
ENDROOT
BRANCH   4   6
ATOM      6  C   UNL     1      -0.817 -11.790  -4.148  0.00  0.00    +0.045 A 
ATOM      7  C   UNL     1      -0.924 -11.949  -5.492  0.00  0.00    +0.095 A 
ATOM      8  N   UNL     1      -1.038 -13.277  -5.790  0.00  0.00    -0.360 N 
ATOM      9  H   UNL     1      -1.127 -13.638  -6.686  0.00  0.00    +0.165 HD
ATOM     10  C   UNL     1      -1.008 -14.028  -4.635  0.00  0.00    +0.047 A 
ATOM     11  C   UNL     1      -0.863 -13.138  -3.558  0.00  0.00    +0.010 A 
ATOM     12  C   UNL     1      -0.796 -13.626  -2.254  0.00  0.00    +0.011 A 
ATOM     13  C   UNL     1      -0.871 -14.983  -2.029  0.00  0.00    +0.001 A 
ATOM     14  C   UNL     1      -1.011 -15.863  -3.093  0.00  0.00    +0.002 A 
ATOM     15  C   UNL     1      -1.086 -15.395  -4.386  0.00  0.00    +0.026 A 
ENDBRANCH   4   6
BRANCH   5  16
ATOM     16  C   UNL     1      -0.727  -8.922  -5.335  0.00  0.00    +0.053 A 
ATOM     17  C   UNL     1       0.424  -8.845  -6.109  0.00  0.00    +0.026 A 
ATOM     18  C   UNL     1       0.333  -8.519  -7.448  0.00  0.00    +0.002 A 
ATOM     19  C   UNL     1      -0.902  -8.270  -8.018  0.00  0.00    +0.000 A 
ATOM     20  C   UNL     1      -2.049  -8.346  -7.250  0.00  0.00    +0.005 A 
ATOM     21  C   UNL     1      -1.965  -8.677  -5.912  0.00  0.00    -0.026 A 
ATOM     22  C   UNL     1      -3.217  -8.766  -5.077  0.00  0.00    +0.046 C 
ENDBRANCH   5  16
BRANCH   1  23
ATOM     23  S   UNL     1      -0.383  -6.634  -3.013  0.00  0.00    -0.076 S 
BRANCH  23  24
ATOM     24  C   UNL     1      -0.207  -6.114  -1.284  0.00  0.00    +0.173 C 
BRANCH  24  26
ATOM     25  N   UNL     1       0.038  -3.996  -0.029  0.00  0.00    -0.283 N 
ATOM     26  C   UNL     1      -0.101  -4.612  -1.220  0.00  0.00    +0.228 C 
ATOM     27  O   UNL     1      -0.140  -3.957  -2.240  0.00  0.00    -0.275 OA
ATOM     28  H   UNL     1       0.151  -4.522   0.779  0.00  0.00    +0.155 HD
BRANCH  25  33
ATOM     29  C   UNL     1      -0.037   1.669   0.263  0.00  0.00    +0.044 C 
ATOM     30  C   UNL     1      -0.018   0.164   0.186  0.00  0.00    -0.048 A 
ATOM     31  C   UNL     1      -0.652  -0.482  -0.860  0.00  0.00    +0.005 A 
ATOM     32  C   UNL     1      -0.635  -1.861  -0.934  0.00  0.00    +0.026 A 
ATOM     33  C   UNL     1       0.020  -2.599   0.043  0.00  0.00    +0.064 A 
ATOM     34  C   UNL     1       0.655  -1.948   1.092  0.00  0.00    +0.148 A 
ATOM     35  C   UNL     1       0.639  -0.568   1.157  0.00  0.00    +0.038 A 
BRANCH  34  36
ATOM     36  N   UNL     1       1.354  -2.731   2.135  0.00  0.00    +0.058 N 
ATOM     37  O   UNL     1       1.825  -2.171   3.098  0.00  0.00    -0.126 OA
ATOM     38  O   UNL     1       1.454  -3.931   2.025  0.00  0.00    -0.126 OA
ENDBRANCH  34  36
ENDBRANCH  25  33
ENDBRANCH  24  26
ENDBRANCH  23  24
ENDBRANCH   1  23
TORSDOF 7
