REMARK  Name = ZINC60264865
REMARK  3 active torsions:
REMARK  status: ('A' for Active; 'I' for Inactive)
REMARK    1  A    between atoms: C_5  and  N_8
REMARK    2  A    between atoms: C_9  and  C_12
REMARK    3  A    between atoms: N_10  and  N_11
REMARK                            x       y       z     vdW  Elec       q    Type
REMARK                         _______ _______ _______ _____ _____    ______ ____
ROOT
ATOM      1  N   UNL     1       2.666  -1.757   1.753  0.00  0.00    -0.328 N 
ATOM      2  C   UNL     1       2.828  -2.909   0.996  0.00  0.00    +0.114 C 
ATOM      3  N   UNL     1       2.455  -2.928  -0.241  0.00  0.00    -0.302 N 
ATOM      4  H   UNL     1       2.945  -1.744   2.682  0.00  0.00    +0.147 HD
ATOM      5  H   UNL     1       1.988  -2.166  -0.618  0.00  0.00    +0.185 HD
ENDROOT
BRANCH   1  10
ATOM      6  C   UNL     1      -0.083   1.407   0.013  0.00  0.00    +0.000 C 
ATOM      7  C   UNL     1       1.298   2.063   0.214  0.00  0.00    +0.000 C 
ATOM      8  C   UNL     1       1.688   1.924   1.660  0.00  0.00    +0.002 C 
ATOM      9  C   UNL     1       2.559   0.680   1.919  0.00  0.00    +0.022 C 
ATOM     10  C   UNL     1       2.071  -0.562   1.149  0.00  0.00    +0.071 C 
ATOM     11  C   UNL     1       0.573  -0.700   1.170  0.00  0.00    +0.022 C 
ATOM     12  C   UNL     1       0.003  -0.041  -0.103  0.00  0.00    +0.002 C 
ENDBRANCH   1  10
BRANCH   2  13
ATOM     13  C   UNL     1       3.439  -4.139   1.617  0.00  0.00    +0.180 C 
ATOM     14  C   UNL     1       4.948  -4.146   1.357  0.00  0.00    +0.039 C 
ATOM     15  C   UNL     1       5.571  -5.366   2.042  0.00  0.00    +0.005 C 
ATOM     16  C   UNL     1       5.239  -5.324   3.536  0.00  0.00    +0.028 C 
ATOM     17  C   UNL     1       3.719  -5.271   3.712  0.00  0.00    +0.161 C 
ATOM     18  O   UNL     1       3.200  -4.131   3.026  0.00  0.00    -0.369 OA
ENDBRANCH   2  13
BRANCH   3  19
ATOM     19  N   UNL     1       2.726  -4.048  -1.038  0.00  0.00    -0.304 N 
ATOM     20  H   UNL     1       2.508  -4.035  -1.983  0.00  0.00    +0.162 HD
ATOM     21  H   UNL     1       3.131  -4.837  -0.644  0.00  0.00    +0.162 HD
ENDBRANCH   3  19
TORSDOF 3
