REMARK  Name = ZINC44748119
REMARK  6 active torsions:
REMARK  status: ('A' for Active; 'I' for Inactive)
REMARK    1  A    between atoms: C_1  and  C_2
REMARK    2  A    between atoms: C_4  and  N_22
REMARK    3  A    between atoms: C_7  and  C_8
REMARK    4  A    between atoms: N_10  and  C_11
REMARK    5  A    between atoms: C_16  and  C_21
REMARK    6  A    between atoms: C_18  and  C_20
REMARK                            x       y       z     vdW  Elec       q    Type
REMARK                         _______ _______ _______ _____ _____    ______ ____
ROOT
ATOM      1  C   UNL     1       0.242   0.022   2.479  0.00  0.00    +0.245 C 
ATOM      2  O   UNL     1       0.135   1.233   2.498  0.00  0.00    -0.270 OA
ATOM      3  N   UNL     1       0.465  -0.653   3.624  0.00  0.00    -0.308 N 
ATOM      4  H   UNL     1       0.551  -1.619   3.609  0.00  0.00    +0.149 HD
ENDROOT
BRANCH   3   5
ATOM      5  C   UNL     1       0.578   0.073   4.892  0.00  0.00    +0.076 C 
ATOM      6  C   UNL     1      -0.819   0.305   5.473  0.00  0.00    +0.022 C 
ATOM      7  C   UNL     1      -0.701   1.062   6.796  0.00  0.00    +0.002 C 
ATOM      8  C   UNL     1       0.131   0.240   7.782  0.00  0.00    +0.003 C 
ATOM      9  C   UNL     1       1.528   0.008   7.202  0.00  0.00    -0.009 C 
ATOM     10  C   UNL     1       1.410  -0.750   5.878  0.00  0.00    +0.009 C 
ATOM     11  C   UNL     1       2.806  -0.982   5.297  0.00  0.00    +0.009 C 
ATOM     12  C   UNL     1       2.210   1.355   6.959  0.00  0.00    +0.008 C 
ENDBRANCH   3   5
BRANCH   1  19
ATOM     13  C   UNL     1      -0.515   1.452   0.083  0.00  0.00    +0.044 C 
ATOM     14  C   UNL     1      -0.237  -0.029   0.037  0.00  0.00    -0.037 A 
ATOM     15  C   UNL     1      -0.337  -0.712  -1.154  0.00  0.00    +0.026 A 
ATOM     16  C   UNL     1      -0.080  -2.079  -1.197  0.00  0.00    +0.025 A 
ATOM     17  C   UNL     1       0.278  -2.760  -0.036  0.00  0.00    +0.023 A 
ATOM     18  C   UNL     1       0.380  -2.083   1.157  0.00  0.00    +0.015 A 
ATOM     19  C   UNL     1       0.129  -0.708   1.202  0.00  0.00    +0.040 A 
BRANCH  16  20
ATOM     20  N   UNL     1      -0.182  -2.767  -2.401  0.00  0.00    -0.358 N 
ATOM     21  H   UNL     1      -0.432  -2.293  -3.210  0.00  0.00    +0.142 HD
ATOM     22  H   UNL     1      -0.003  -3.720  -2.432  0.00  0.00    +0.142 HD
ENDBRANCH  16  20
ENDBRANCH   1  19
TORSDOF 3
