REMARK  Name = ZINC65002171
REMARK  6 active torsions:
REMARK  status: ('A' for Active; 'I' for Inactive)
REMARK    1  A    between atoms: C_1  and  C_2
REMARK    2  A    between atoms: C_2  and  C_3
REMARK    3  A    between atoms: C_3  and  O_4
REMARK    4  A    between atoms: O_4  and  C_5
REMARK    5  A    between atoms: C_8  and  C_11
REMARK    6  A    between atoms: C_23  and  C_27
REMARK                            x       y       z     vdW  Elec       q    Type
REMARK                         _______ _______ _______ _____ _____    ______ ____
ROOT
ATOM      1  C   UNL     1      -6.372  -4.575   0.038  0.00  0.00    +0.142 A 
ATOM      2  N   UNL     1      -6.415  -5.942   0.042  0.00  0.00    -0.306 N 
ATOM      3  H   UNL     1      -5.585  -6.444   0.039  0.00  0.00    +0.170 HD
ATOM      4  C   UNL     1      -7.587  -6.603   0.052  0.00  0.00    +0.260 A 
ATOM      5  O   UNL     1      -7.609  -7.822   0.056  0.00  0.00    -0.267 OA
ATOM      6  C   UNL     1      -8.809  -5.854   0.057  0.00  0.00    +0.075 A 
ATOM      7  C   UNL     1     -10.181  -6.359   0.069  0.00  0.00    -0.023 A 
ATOM      8  C   UNL     1     -11.171  -5.441   0.073  0.00  0.00    -0.004 A 
ATOM      9  S   UNL     1     -10.346  -3.873   0.060  0.00  0.00    -0.073 S 
ATOM     10  C   UNL     1      -8.669  -4.455   0.051  0.00  0.00    +0.116 A 
ATOM     11  N   UNL     1      -7.481  -3.864   0.048  0.00  0.00    -0.222 NA
ATOM     12  C   UNL     1     -12.647  -5.699   0.086  0.00  0.00    +0.046 C 
ATOM     13  C   UNL     1     -12.879  -7.168   0.470  0.00  0.00    -0.009 C 
ATOM     14  C   UNL     1     -11.949  -8.048  -0.370  0.00  0.00    +0.008 C 
ATOM     15  C   UNL     1     -10.501  -7.851   0.078  0.00  0.00    +0.037 C 
ATOM     16  C   UNL     1     -14.336  -7.546   0.197  0.00  0.00    +0.008 C 
ENDROOT
BRANCH   1  20
ATOM     17  C   UNL     1      -2.615  -2.595   0.013  0.00  0.00    +0.121 A 
ATOM     18  C   UNL     1      -3.789  -1.853   0.022  0.00  0.00    +0.046 A 
ATOM     19  C   UNL     1      -5.010  -2.491   0.031  0.00  0.00    +0.015 A 
ATOM     20  C   UNL     1      -5.067  -3.887   0.029  0.00  0.00    +0.018 A 
ATOM     21  C   UNL     1      -3.883  -4.630   0.019  0.00  0.00    +0.015 A 
ATOM     22  C   UNL     1      -2.667  -3.984   0.006  0.00  0.00    +0.046 A 
BRANCH  17  23
ATOM     23  O   UNL     1      -1.414  -1.962   0.005  0.00  0.00    -0.492 OA
BRANCH  23  24
ATOM     24  C   UNL     1      -1.433  -0.534   0.013  0.00  0.00    +0.229 C 
BRANCH  24  26
ATOM     25  C   UNL     1      -0.019   1.526   0.010  0.00  0.00    +0.007 C 
ATOM     26  C   UNL     1       0.002  -0.004   0.002  0.00  0.00    +0.038 C 
ENDBRANCH  24  26
ENDBRANCH  23  24
ENDBRANCH  17  23
ENDBRANCH   1  20
TORSDOF 4
