REMARK  Name = ZINC06591652
REMARK  12 active torsions:
REMARK  status: ('A' for Active; 'I' for Inactive)
REMARK    1  A    between atoms: C_1  and  C_2
REMARK    2  A    between atoms: C_2  and  C_3
REMARK    3  A    between atoms: C_3  and  C_4
REMARK    4  A    between atoms: C_3  and  C_5
REMARK    5  A    between atoms: C_3  and  C_6
REMARK    6  A    between atoms: C_15  and  O_31
REMARK    7  A    between atoms: C_17  and  C_20
REMARK    8  A    between atoms: C_23  and  O_28
REMARK    9  A    between atoms: C_24  and  O_26
REMARK   10  A    between atoms: O_26  and  C_27
REMARK   11  A    between atoms: O_28  and  C_29
REMARK   12  A    between atoms: C_29  and  C_30
REMARK                            x       y       z     vdW  Elec       q    Type
REMARK                         _______ _______ _______ _____ _____    ______ ____
ROOT
ATOM      1  C   UNL     1      -0.750   3.109   1.275  0.00  0.00    -0.000 C 
ATOM      2  C   UNL     1       0.686   3.642   1.257  0.00  0.00    +0.009 C 
ATOM      3  C   UNL     1       0.684   5.150   1.514  0.00  0.00    +0.037 C 
ATOM      4  C   UNL     1      -0.278   5.814   0.536  0.00  0.00    -0.023 A 
ATOM      5  C   UNL     1      -1.226   5.090  -0.103  0.00  0.00    -0.004 A 
ATOM      6  S   UNL     1      -2.086   6.262  -1.119  0.00  0.00    -0.078 S 
ATOM      7  C   UNL     1      -1.208   7.670  -0.705  0.00  0.00    +0.080 A 
ATOM      8  C   UNL     1      -0.255   7.232   0.224  0.00  0.00    +0.068 A 
ATOM      9  C   UNL     1       0.678   8.250   0.772  0.00  0.00    +0.220 C 
ATOM     10  N   UNL     1       0.420   9.505   0.526  0.00  0.00    -0.223 NA
ATOM     11  C   UNL     1      -0.768   9.988  -0.167  0.00  0.00    +0.224 C 
ATOM     12  N   UNL     1      -1.298   8.981  -1.104  0.00  0.00    -0.313 N 
ATOM     13  C   UNL     1      -1.486   3.621   0.028  0.00  0.00    +0.046 C 
ATOM     14  H   UNL     1      -1.735   9.298  -2.063  0.00  0.00    +0.149 HD
ENDROOT
BRANCH  11  15
ATOM     15  C   UNL     1      -1.829  10.320   0.850  0.00  0.00    -0.002 A 
ATOM     16  C   UNL     1      -3.166  10.196   0.518  0.00  0.00    +0.011 A 
ATOM     17  C   UNL     1      -4.143  10.499   1.448  0.00  0.00    +0.050 A 
ATOM     18  C   UNL     1      -3.784  10.927   2.716  0.00  0.00    +0.162 A 
ATOM     19  C   UNL     1      -2.439  11.053   3.050  0.00  0.00    +0.162 A 
ATOM     20  C   UNL     1      -1.465  10.742   2.115  0.00  0.00    +0.056 A 
BRANCH  19  21
ATOM     21  O   UNL     1      -2.082  11.473   4.293  0.00  0.00    -0.491 OA
ATOM     22  C   UNL     1      -0.684  11.578   4.566  0.00  0.00    +0.277 C 
ENDBRANCH  19  21
BRANCH  18  23
ATOM     23  O   UNL     1      -4.745  11.225   3.632  0.00  0.00    -0.489 OA
BRANCH  23  24
ATOM     24  C   UNL     1      -6.104  11.073   3.219  0.00  0.00    +0.226 C 
ATOM     25  C   UNL     1      -7.034  11.451   4.374  0.00  0.00    +0.048 C 
ENDBRANCH  23  24
ENDBRANCH  18  23
ENDBRANCH  11  15
BRANCH   1  26
ATOM     26  C   UNL     1      -0.729   1.579   1.267  0.00  0.00    -0.032 C 
ATOM     27  C   UNL     1      -0.013   1.086   0.008  0.00  0.00    +0.011 C 
ATOM     28  C   UNL     1       0.011   1.072   2.506  0.00  0.00    +0.011 C 
BRANCH  26  30
ATOM     29  C   UNL     1      -2.143  -0.480   1.269  0.00  0.00    +0.004 C 
ATOM     30  C   UNL     1      -2.164   1.050   1.278  0.00  0.00    +0.003 C 
ENDBRANCH  26  30
ENDBRANCH   1  26
BRANCH   9  31
ATOM     31  O   UNL     1       1.758   7.888   1.501  0.00  0.00    -0.492 OA
ATOM     32  H   UNL     1       2.437   8.658   1.898  0.00  0.00    +0.294 HD
ENDBRANCH   9  31
TORSDOF 7
