REMARK  Name = ZINC15452061
REMARK  7 active torsions:
REMARK  status: ('A' for Active; 'I' for Inactive)
REMARK    1  A    between atoms: C_1  and  N_2
REMARK    2  A    between atoms: N_2  and  C_3
REMARK    3  A    between atoms: N_2  and  C_14
REMARK    4  A    between atoms: C_3  and  C_4
REMARK    5  A    between atoms: C_7  and  O_10
REMARK    6  A    between atoms: O_10  and  C_11
REMARK    7  A    between atoms: C_14  and  C_15
REMARK                            x       y       z     vdW  Elec       q    Type
REMARK                         _______ _______ _______ _____ _____    ______ ____
ROOT
ATOM      1  C   UNL     1      -0.018   1.465   0.010  0.00  0.00    +0.105 C 
ATOM      2  N   UNL     1       0.002  -0.004   0.002  0.00  0.00    -0.294 NA
ENDROOT
BRANCH   2   3
ATOM      3  C   UNL     1       0.706  -0.527   1.180  0.00  0.00    +0.119 C 
BRANCH   3   4
ATOM      4  C   UNL     1       2.163  -0.149   1.104  0.00  0.00    -0.033 A 
ATOM      5  C   UNL     1       3.062  -0.989   0.474  0.00  0.00    +0.008 A 
ATOM      6  C   UNL     1       4.398  -0.644   0.403  0.00  0.00    +0.046 A 
ATOM      7  C   UNL     1       4.837   0.546   0.965  0.00  0.00    +0.127 A 
ATOM      8  C   UNL     1       3.932   1.387   1.597  0.00  0.00    +0.046 A 
ATOM      9  C   UNL     1       2.597   1.041   1.660  0.00  0.00    +0.008 A 
BRANCH   7  10
ATOM     10  O   UNL     1       6.151   0.887   0.898  0.00  0.00    -0.434 OA
BRANCH  10  11
ATOM     11  C   UNL     1       6.531   2.127   1.498  0.00  0.00    +0.541 C 
ATOM     12  F   UNL     1       5.838   3.175   0.882  0.00  0.00    -0.166 F 
ATOM     13  F   UNL     1       6.219   2.100   2.861  0.00  0.00    -0.166 F 
ENDBRANCH  10  11
ENDBRANCH   7  10
ENDBRANCH   3   4
ENDBRANCH   2   3
BRANCH   2  14
ATOM     14  C   UNL     1      -1.360  -0.549  -0.083  0.00  0.00    +0.160 C 
BRANCH  14  15
ATOM     15  C   UNL     1      -1.962  -0.191  -1.417  0.00  0.00    +0.150 A 
ATOM     16  N   UNL     1      -2.636   0.938  -1.554  0.00  0.00    -0.198 NA
ATOM     17  C   UNL     1      -3.169   1.257  -2.732  0.00  0.00    +0.217 A 
ATOM     18  N   UNL     1      -3.022   0.440  -3.769  0.00  0.00    -0.181 NA
ATOM     19  C   UNL     1      -2.344  -0.693  -3.627  0.00  0.00    +0.217 A 
ATOM     20  N   UNL     1      -1.810  -1.004  -2.448  0.00  0.00    -0.198 NA
ATOM     21  N   UNL     1      -2.189  -1.545  -4.701  0.00  0.00    -0.327 N 
ATOM     22  N   UNL     1      -3.873   2.435  -2.874  0.00  0.00    -0.327 N 
ATOM     23  H   UNL     1      -2.576  -1.317  -5.561  0.00  0.00    +0.145 HD
ATOM     24  H   UNL     1      -1.694  -2.373  -4.596  0.00  0.00    +0.145 HD
ATOM     25  H   UNL     1      -3.979   3.031  -2.116  0.00  0.00    +0.145 HD
ATOM     26  H   UNL     1      -4.261   2.668  -3.732  0.00  0.00    +0.145 HD
ENDBRANCH  14  15
ENDBRANCH   2  14
TORSDOF 6
