REMARK  Name = ZINC39152563
REMARK  8 active torsions:
REMARK  status: ('A' for Active; 'I' for Inactive)
REMARK    1  A    between atoms: C_1  and  N_2
REMARK    2  A    between atoms: N_2  and  C_3
REMARK    3  A    between atoms: N_2  and  S_4
REMARK    4  A    between atoms: S_4  and  C_7
REMARK    5  A    between atoms: C_10  and  N_13
REMARK    6  A    between atoms: C_14  and  C_16
REMARK    7  A    between atoms: C_16  and  S_17
REMARK    8  A    between atoms: S_17  and  C_18
REMARK                            x       y       z     vdW  Elec       q    Type
REMARK                         _______ _______ _______ _____ _____    ______ ____
ROOT
ATOM      1  N   UNL     1       5.659  -1.615  -3.013  0.00  0.00    -0.285 N 
ATOM      2  C   UNL     1       6.351  -2.670  -2.536  0.00  0.00    +0.227 C 
ATOM      3  O   UNL     1       5.791  -3.505  -1.858  0.00  0.00    -0.275 OA
ATOM      4  H   UNL     1       6.087  -0.988  -3.617  0.00  0.00    +0.155 HD
ENDROOT
BRANCH   1   8
ATOM      5  C   UNL     1       1.688  -1.048  -1.890  0.00  0.00    +0.106 A 
ATOM      6  C   UNL     1       2.584  -1.608  -0.998  0.00  0.00    +0.030 A 
ATOM      7  C   UNL     1       3.901  -1.797  -1.367  0.00  0.00    +0.025 A 
ATOM      8  C   UNL     1       4.325  -1.425  -2.636  0.00  0.00    +0.034 A 
ATOM      9  C   UNL     1       3.423  -0.864  -3.530  0.00  0.00    +0.025 A 
ATOM     10  C   UNL     1       2.106  -0.681  -3.156  0.00  0.00    +0.030 A 
BRANCH   5  11
ATOM     11  S   UNL     1       0.008  -0.808  -1.415  0.00  0.00    +0.060 S 
ATOM     12  O   UNL     1      -0.504   0.229  -2.241  0.00  0.00    -0.153 OA
ATOM     13  O   UNL     1      -0.006  -0.728   0.004  0.00  0.00    -0.153 OA
BRANCH  11  15
ATOM     14  C   UNL     1      -0.928  -3.283  -0.855  0.00  0.00    +0.131 C 
ATOM     15  N   UNL     1      -0.817  -2.186  -1.819  0.00  0.00    -0.183 NA
ATOM     16  C   UNL     1      -1.435  -2.308  -3.142  0.00  0.00    +0.131 C 
ENDBRANCH  11  15
ENDBRANCH   5  11
ENDBRANCH   1   8
BRANCH   2  17
ATOM     17  C   UNL     1       7.819  -2.810  -2.846  0.00  0.00    +0.173 C 
BRANCH  17  18
ATOM     18  S   UNL     1       8.459  -4.319  -2.069  0.00  0.00    -0.079 S 
BRANCH  18  19
ATOM     19  C   UNL     1      10.163  -4.340  -2.517  0.00  0.00    +0.182 C 
ATOM     20  N   UNL     1      10.630  -3.351  -3.260  0.00  0.00    -0.151 NA
ATOM     21  C   UNL     1      11.902  -3.285  -3.653  0.00  0.00    +0.272 C 
ATOM     22  O   UNL     1      12.300  -2.356  -4.337  0.00  0.00    -0.268 OA
ATOM     23  C   UNL     1      12.828  -4.385  -3.230  0.00  0.00    +0.071 C 
ATOM     24  C   UNL     1      14.119  -4.547  -3.563  0.00  0.00    -0.042 C 
ATOM     25  C   UNL     1      14.844  -3.693  -4.599  0.00  0.00    +0.033 C 
ATOM     26  C   UNL     1      15.436  -4.660  -5.633  0.00  0.00    +0.004 C 
ATOM     27  C   UNL     1      16.276  -5.729  -4.937  0.00  0.00    +0.002 C 
ATOM     28  C   UNL     1      15.406  -6.590  -4.016  0.00  0.00    +0.019 C 
ATOM     29  C   UNL     1      14.855  -5.704  -2.896  0.00  0.00    +0.079 C 
ATOM     30  S   UNL     1      13.495  -6.570  -2.024  0.00  0.00    -0.097 S 
ATOM     31  C   UNL     1      12.190  -5.425  -2.394  0.00  0.00    +0.112 C 
ATOM     32  N   UNL     1      10.920  -5.349  -2.087  0.00  0.00    -0.217 NA
ENDBRANCH  18  19
ENDBRANCH  17  18
ENDBRANCH   2  17
TORSDOF 6
