REMARK  Name = ZINC39615949
REMARK  11 active torsions:
REMARK  status: ('A' for Active; 'I' for Inactive)
REMARK    1  A    between atoms: C_1  and  N_2
REMARK    2  A    between atoms: N_2  and  C_30
REMARK    3  A    between atoms: C_3  and  C_5
REMARK    4  A    between atoms: C_5  and  O_6
REMARK    5  A    between atoms: O_6  and  C_7
REMARK    6  A    between atoms: C_7  and  C_9
REMARK    7  A    between atoms: C_9  and  C_11
REMARK    8  A    between atoms: C_9  and  N_22
REMARK    9  A    between atoms: C_11  and  C_12
REMARK   10  A    between atoms: C_23  and  C_25
REMARK   11  A    between atoms: C_30  and  C_36
REMARK                            x       y       z     vdW  Elec       q    Type
REMARK                         _______ _______ _______ _____ _____    ______ ____
ROOT
ATOM      1  C   UNL     1       0.076  -1.290   5.989  0.00  0.00    +0.186 C 
ENDROOT
BRANCH   1   2
ATOM      2  N   UNL     1      -0.395  -0.571   7.175  0.00  0.00    -0.298 N 
ATOM      3  C   UNL     1       0.261   0.526   7.602  0.00  0.00    +0.251 C 
ATOM      4  O   UNL     1       1.244   0.920   7.002  0.00  0.00    -0.270 OA
ATOM      5  H   UNL     1      -1.178  -0.885   7.653  0.00  0.00    +0.150 HD
BRANCH   3   6
ATOM      6  C   UNL     1      -0.211   1.246   8.789  0.00  0.00    +0.074 A 
ATOM      7  C   UNL     1       0.309   2.385   9.384  0.00  0.00    +0.021 A 
ATOM      8  C   UNL     1      -0.357   2.833  10.500  0.00  0.00    +0.008 A 
ATOM      9  C   UNL     1      -1.446   2.152  10.935  0.00  0.00    +0.046 A 
ATOM     10  S   UNL     1      -1.606   0.888   9.839  0.00  0.00    -0.092 S 
ENDBRANCH   3   6
ENDBRANCH   1   2
BRANCH   1  11
ATOM     11  C   UNL     1       0.052  -0.366   4.799  0.00  0.00    +0.328 C 
ATOM     12  O   UNL     1       0.038   0.831   4.964  0.00  0.00    -0.249 OA
BRANCH  11  13
ATOM     13  O   UNL     1       0.048  -0.872   3.556  0.00  0.00    -0.454 OA
BRANCH  13  14
ATOM     14  C   UNL     1       0.025   0.062   2.475  0.00  0.00    +0.327 C 
BRANCH  14  17
ATOM     15  C   UNL     1      -0.018   1.461   0.010  0.00  0.00    +0.133 C 
ATOM     16  N   UNL     1       0.002  -0.004   0.002  0.00  0.00    -0.283 N 
ATOM     17  C   UNL     1       0.022  -0.684   1.165  0.00  0.00    +0.254 C 
ATOM     18  O   UNL     1       0.039  -1.897   1.159  0.00  0.00    -0.272 OA
BRANCH  16  19
ATOM     19  C   UNL     1      -0.000  -0.730  -1.271  0.00  0.00    +0.124 C 
ATOM     20  C   UNL     1       1.260  -1.592  -1.368  0.00  0.00    +0.041 C 
ATOM     21  C   UNL     1       1.258  -2.350  -2.697  0.00  0.00    +0.003 C 
ATOM     22  C   UNL     1       1.233  -1.349  -3.855  0.00  0.00    +0.000 C 
ATOM     23  C   UNL     1      -0.027  -0.487  -3.757  0.00  0.00    +0.003 C 
ATOM     24  C   UNL     1      -0.025   0.271  -2.428  0.00  0.00    +0.041 C 
BRANCH  19  25
ATOM     25  C   UNL     1      -1.191  -1.592  -1.342  0.00  0.00    +0.089 C 
ATOM     26  N   UNL     1      -2.110  -2.257  -1.397  0.00  0.00    -0.194 NA
ENDBRANCH  19  25
ENDBRANCH  16  19
ENDBRANCH  14  17
ENDBRANCH  13  14
ENDBRANCH  11  13
ENDBRANCH   1  11
BRANCH   1  27
ATOM     27  C   UNL     1       1.506  -1.781   6.224  0.00  0.00    +0.071 C 
BRANCH  27  28
ATOM     28  C   UNL     1       1.511  -2.799   7.335  0.00  0.00    -0.020 A 
ATOM     29  C   UNL     1       1.752  -2.562   8.634  0.00  0.00    +0.087 A 
ATOM     30  N   UNL     1       1.670  -3.729   9.345  0.00  0.00    -0.360 N 
ATOM     31  H   UNL     1       1.805  -3.809  10.302  0.00  0.00    +0.165 HD
ATOM     32  C   UNL     1       1.366  -4.772   8.499  0.00  0.00    +0.047 A 
ATOM     33  C   UNL     1       1.247  -4.234   7.204  0.00  0.00    +0.003 A 
ATOM     34  C   UNL     1       0.934  -5.069   6.129  0.00  0.00    +0.010 A 
ATOM     35  C   UNL     1       0.742  -6.405   6.341  0.00  0.00    +0.001 A 
ATOM     36  C   UNL     1       0.855  -6.939   7.617  0.00  0.00    +0.002 A 
ATOM     37  C   UNL     1       1.171  -6.136   8.691  0.00  0.00    +0.026 A 
ENDBRANCH  27  28
ENDBRANCH   1  27
TORSDOF 10
