REMARK  Name = ZINC38994979
REMARK  4 active torsions:
REMARK  status: ('A' for Active; 'I' for Inactive)
REMARK    1  A    between atoms: C_1  and  C_2
REMARK    2  A    between atoms: C_9  and  C_14
REMARK    3  A    between atoms: C_14  and  N_16
REMARK    4  A    between atoms: C_23  and  C_27
REMARK                            x       y       z     vdW  Elec       q    Type
REMARK                         _______ _______ _______ _____ _____    ______ ____
ROOT
ATOM      1  C   UNL     1      -0.100  -4.711   3.750  0.00  0.00    +0.280 C 
ATOM      2  O   UNL     1       0.523  -4.075   4.579  0.00  0.00    -0.270 OA
ENDROOT
BRANCH   1  11
ATOM      3  C   UNL     1      -0.018   1.503   0.010  0.00  0.00    +0.044 C 
ATOM      4  C   UNL     1       0.002  -0.004   0.002  0.00  0.00    -0.047 A 
ATOM      5  C   UNL     1       0.006  -0.683  -1.206  0.00  0.00    +0.004 A 
ATOM      6  C   UNL     1       0.021  -2.061  -1.227  0.00  0.00    +0.015 A 
ATOM      7  C   UNL     1       0.035  -2.769  -0.024  0.00  0.00    +0.059 A 
ATOM      8  C   UNL     1       0.037  -2.082   1.201  0.00  0.00    +0.132 A 
ATOM      9  C   UNL     1       0.023  -0.693   1.198  0.00  0.00    +0.049 A 
ATOM     10  O   UNL     1       0.065  -2.756   2.374  0.00  0.00    -0.478 OA
ATOM     11  C   UNL     1      -0.388  -4.109   2.399  0.00  0.00    +0.268 C 
ATOM     12  C   UNL     1       0.344  -4.911   1.314  0.00  0.00    +0.134 C 
ATOM     13  C   UNL     1       0.046  -4.242  -0.016  0.00  0.00    +0.171 C 
ATOM     14  O   UNL     1      -0.173  -4.887  -1.020  0.00  0.00    -0.292 OA
ENDBRANCH   1  11
BRANCH   1  15
ATOM     15  N   UNL     1      -0.527  -5.936   4.036  0.00  0.00    -0.153 NA
ATOM     16  C   UNL     1      -0.272  -6.468   5.230  0.00  0.00    +0.164 A 
ATOM     17  N   UNL     1      -0.624  -7.697   5.686  0.00  0.00    -0.335 N 
ATOM     18  H   UNL     1      -1.122  -8.303   5.115  0.00  0.00    +0.168 HD
ATOM     19  C   UNL     1      -0.271  -8.082   6.965  0.00  0.00    +0.055 A 
ATOM     20  C   UNL     1      -0.528  -9.290   7.629  0.00  0.00    +0.027 A 
ATOM     21  C   UNL     1      -0.090  -9.489   8.917  0.00  0.00    +0.005 A 
ATOM     22  C   UNL     1       0.616  -8.508   9.594  0.00  0.00    -0.049 A 
ATOM     23  C   UNL     1       0.884  -7.307   8.961  0.00  0.00    +0.020 A 
ATOM     24  C   UNL     1       0.446  -7.107   7.673  0.00  0.00    +0.039 A 
ATOM     25  S   UNL     1       0.564  -5.772   6.511  0.00  0.00    -0.052 S 
ATOM     26  C   UNL     1       1.087  -8.745  11.005  0.00  0.00    +0.044 C 
ENDBRANCH   1  15
TORSDOF 2
