REMARK  Name = ZINC14546618
REMARK  3 active torsions:
REMARK  status: ('A' for Active; 'I' for Inactive)
REMARK    1  A    between atoms: C_1  and  C_2
REMARK    2  A    between atoms: C_3  and  N_26
REMARK    3  A    between atoms: C_9  and  C_18
REMARK                            x       y       z     vdW  Elec       q    Type
REMARK                         _______ _______ _______ _____ _____    ______ ____
ROOT
ATOM      1  C   UNL     1      -0.017   5.343   0.044  0.00  0.00    +0.048 C 
ATOM      2  C   UNL     1      -0.021   3.836   0.025  0.00  0.00    +0.001 A 
ATOM      3  C   UNL     1      -1.195   3.162  -0.228  0.00  0.00    +0.131 A 
ATOM      4  C   UNL     1      -1.212   1.779  -0.255  0.00  0.00    +0.033 A 
ATOM      5  C   UNL     1      -0.048   1.076  -0.007  0.00  0.00    +0.008 A 
ATOM      6  C   UNL     1       1.129   1.743   0.256  0.00  0.00    -0.019 A 
ATOM      7  C   UNL     1       1.165   3.140   0.265  0.00  0.00    +0.037 A 
ATOM      8  N   UNL     1       2.320   3.890   0.477  0.00  0.00    -0.336 N 
ATOM      9  C   UNL     1       3.539   3.143   0.830  0.00  0.00    +0.108 C 
ATOM     10  C   UNL     1       3.550   1.885  -0.013  0.00  0.00    +0.029 C 
ATOM     11  C   UNL     1       2.383   1.019   0.557  0.00  0.00    +0.049 C 
ATOM     12  C   UNL     1       2.702  -0.343   0.036  0.00  0.00    -0.023 C 
ATOM     13  C   UNL     1       4.012  -0.437  -0.164  0.00  0.00    -0.030 C 
ATOM     14  C   UNL     1       4.692   0.885   0.203  0.00  0.00    +0.033 C 
ATOM     15  H   UNL     1       2.151   4.637   1.134  0.00  0.00    +0.147 HD
ENDROOT
BRANCH   9  16
ATOM     16  C   UNL     1       4.757   3.976   0.525  0.00  0.00    +0.010 A 
ATOM     17  C   UNL     1       4.849   4.655  -0.677  0.00  0.00    +0.047 A 
ATOM     18  C   UNL     1       5.965   5.424  -0.954  0.00  0.00    +0.020 A 
ATOM     19  C   UNL     1       6.994   5.504  -0.035  0.00  0.00    +0.003 A 
ATOM     20  C   UNL     1       6.906   4.822   1.164  0.00  0.00    +0.020 A 
ATOM     21  C   UNL     1       5.787   4.057   1.444  0.00  0.00    +0.047 A 
ATOM     22 CL   UNL     1       5.677   3.200   2.950  0.00  0.00    -0.083 Cl
ATOM     23 CL   UNL     1       3.559   4.548  -1.835  0.00  0.00    -0.083 Cl
ENDBRANCH   9  16
BRANCH   3  24
ATOM     24  N   UNL     1      -2.441   3.920  -0.479  0.00  0.00    +0.057 N 
ATOM     25  O   UNL     1      -3.501   3.330  -0.591  0.00  0.00    -0.126 OA
ATOM     26  O   UNL     1      -2.407   5.133  -0.575  0.00  0.00    -0.126 OA
ENDBRANCH   3  24
TORSDOF 2
