REMARK  Name = ZINC10645215
REMARK  9 active torsions:
REMARK  status: ('A' for Active; 'I' for Inactive)
REMARK    1  A    between atoms: C_1  and  C_2
REMARK    2  A    between atoms: C_4  and  C_32
REMARK    3  A    between atoms: C_8  and  N_31
REMARK    4  A    between atoms: C_9  and  C_11
REMARK    5  A    between atoms: C_11  and  O_13
REMARK    6  A    between atoms: O_13  and  C_14
REMARK    7  A    between atoms: C_14  and  C_15
REMARK    8  A    between atoms: N_17  and  C_18
REMARK    9  A    between atoms: N_17  and  C_26
REMARK                            x       y       z     vdW  Elec       q    Type
REMARK                         _______ _______ _______ _____ _____    ______ ____
ROOT
ATOM      1  C   UNL     1      -0.929  -1.542   6.347  0.00  0.00    +0.348 C 
ATOM      2  O   UNL     1      -1.121  -0.415   6.764  0.00  0.00    -0.244 OA
ENDROOT
BRANCH   1  11
ATOM      3  C   UNL     1      -4.817  -0.218   2.639  0.00  0.00    +0.044 C 
ATOM      4  C   UNL     1      -4.251  -1.608   2.502  0.00  0.00    -0.037 A 
ATOM      5  C   UNL     1      -4.697  -2.448   1.509  0.00  0.00    +0.025 A 
ATOM      6  C   UNL     1      -4.175  -3.727   1.385  0.00  0.00    +0.014 A 
ATOM      7  N   UNL     1      -3.246  -4.153   2.218  0.00  0.00    -0.353 N 
ATOM      8  C   UNL     1      -2.787  -3.388   3.184  0.00  0.00    +0.088 A 
ATOM      9  C   UNL     1      -3.249  -2.068   3.392  0.00  0.00    +0.030 A 
ATOM     10  C   UNL     1      -2.627  -1.363   4.502  0.00  0.00    +0.055 A 
ATOM     11  C   UNL     1      -1.663  -2.020   5.236  0.00  0.00    +0.119 A 
ATOM     12  S   UNL     1      -1.571  -3.621   4.458  0.00  0.00    -0.062 S 
ATOM     13  C   UNL     1      -4.674  -4.636   0.291  0.00  0.00    +0.063 C 
ATOM     14  H   UNL     1      -2.893  -5.051   2.116  0.00  0.00    +0.166 HD
BRANCH  10  15
ATOM     15  N   UNL     1      -2.995  -0.063   4.815  0.00  0.00    -0.356 N 
ATOM     16  H   UNL     1      -3.315   0.531   4.118  0.00  0.00    +0.142 HD
ATOM     17  H   UNL     1      -2.933   0.252   5.730  0.00  0.00    +0.142 HD
ENDBRANCH  10  15
ENDBRANCH   1  11
BRANCH   1  18
ATOM     18  O   UNL     1      -0.015  -2.337   6.945  0.00  0.00    -0.451 OA
BRANCH  18  19
ATOM     19  C   UNL     1       0.689  -1.789   8.062  0.00  0.00    +0.328 C 
BRANCH  19  20
ATOM     20  C   UNL     1       1.659  -2.812   8.595  0.00  0.00    +0.254 C 
ATOM     21  O   UNL     1       1.804  -3.869   8.017  0.00  0.00    -0.272 OA
ATOM     22  N   UNL     1       2.364  -2.553   9.713  0.00  0.00    -0.291 N 
BRANCH  22  23
ATOM     23  C   UNL     1       3.217  -3.591  10.298  0.00  0.00    +0.099 C 
ATOM     24  C   UNL     1       2.342  -4.761  10.778  0.00  0.00    +0.047 C 
ATOM     25  C   UNL     1       3.275  -5.963  11.098  0.00  0.00    +0.168 C 
ATOM     26  S   UNL     1       4.464  -5.852   9.695  0.00  0.00    -0.029 S 
ATOM     27  O   UNL     1       4.003  -6.675   8.632  0.00  0.00    -0.174 OA
ATOM     28  O   UNL     1       5.784  -6.026  10.192  0.00  0.00    -0.174 OA
ATOM     29  C   UNL     1       4.224  -4.089   9.232  0.00  0.00    +0.188 C 
ENDBRANCH  22  23
BRANCH  22  30
ATOM     30  C   UNL     1       2.278  -1.234  10.345  0.00  0.00    +0.077 C 
ATOM     31  C   UNL     1       1.693  -1.366  11.766  0.00  0.00    +0.022 C 
ATOM     32  C   UNL     1       2.938  -1.425  12.685  0.00  0.00    +0.002 C 
ATOM     33  C   UNL     1       3.906  -0.420  12.015  0.00  0.00    +0.002 C 
ATOM     34  C   UNL     1       3.685  -0.632  10.503  0.00  0.00    +0.022 C 
ENDBRANCH  22  30
ENDBRANCH  19  20
ENDBRANCH  18  19
ENDBRANCH   1  18
TORSDOF 7
