REMARK  Name = ZINC28291653
REMARK  9 active torsions:
REMARK  status: ('A' for Active; 'I' for Inactive)
REMARK    1  A    between atoms: C_1  and  C_2
REMARK    2  A    between atoms: C_11  and  C_13
REMARK    3  A    between atoms: N_15  and  C_16
REMARK    4  A    between atoms: C_16  and  C_17
REMARK    5  A    between atoms: C_17  and  C_19
REMARK    6  A    between atoms: C_17  and  N_28
REMARK    7  A    between atoms: C_22  and  C_25
REMARK    8  A    between atoms: C_25  and  C_26
REMARK    9  A    between atoms: C_25  and  C_27
REMARK                            x       y       z     vdW  Elec       q    Type
REMARK                         _______ _______ _______ _____ _____    ______ ____
ROOT
ATOM      1  C   UNL     1      -4.543  -1.857   0.087  0.00  0.00    +0.128 C 
ENDROOT
BRANCH   1   4
ATOM      2  C   UNL     1      -2.478  -0.776   0.796  0.00  0.00    +0.280 C 
ATOM      3  O   UNL     1      -1.869  -1.755   0.413  0.00  0.00    -0.267 OA
ATOM      4  N   UNL     1      -3.820  -0.728   0.677  0.00  0.00    -0.307 N 
ATOM      5  H   UNL     1      -4.371   0.158   1.024  0.00  0.00    +0.149 HD
BRANCH   2  16
ATOM      6  C   UNL     1      -0.029   5.965   4.126  0.00  0.00    +0.044 C 
ATOM      7  C   UNL     1      -0.666   4.749   3.505  0.00  0.00    -0.050 A 
ATOM      8  C   UNL     1      -2.043   4.701   3.338  0.00  0.00    +0.007 A 
ATOM      9  C   UNL     1      -2.647   3.599   2.773  0.00  0.00    +0.047 A 
ATOM     10  C   UNL     1      -1.871   2.519   2.361  0.00  0.00    +0.139 A 
ATOM     11  C   UNL     1      -0.478   2.576   2.533  0.00  0.00    +0.064 A 
ATOM     12  C   UNL     1       0.115   3.700   3.107  0.00  0.00    +0.018 A 
ATOM     13  C   UNL     1       0.331   1.423   2.091  0.00  0.00    +0.193 A 
ATOM     14  O   UNL     1       1.543   1.410   2.212  0.00  0.00    -0.287 OA
ATOM     15  C   UNL     1      -0.398   0.291   1.499  0.00  0.00    +0.103 A 
ATOM     16  C   UNL     1      -1.746   0.366   1.393  0.00  0.00    +0.193 A 
ATOM     17  O   UNL     1      -2.444   1.433   1.807  0.00  0.00    -0.450 OA
ENDBRANCH   2  16
ENDBRANCH   1   4
BRANCH   1  18
ATOM     18  C   UNL     1      -6.049  -1.600   0.177  0.00  0.00    +0.104 C 
BRANCH  18  19
ATOM     19  C   UNL     1      -6.791  -2.718  -0.510  0.00  0.00    -0.029 A 
ATOM     20  C   UNL     1      -6.381  -3.157  -1.755  0.00  0.00    +0.005 A 
ATOM     21  C   UNL     1      -7.058  -4.185  -2.383  0.00  0.00    +0.004 A 
ATOM     22  C   UNL     1      -8.153  -4.767  -1.771  0.00  0.00    -0.045 A 
ATOM     23  C   UNL     1      -8.566  -4.324  -0.529  0.00  0.00    +0.004 A 
ATOM     24  C   UNL     1      -7.886  -3.300   0.102  0.00  0.00    +0.005 A 
BRANCH  22  25
ATOM     25  C   UNL     1      -8.895  -5.883  -2.459  0.00  0.00    +0.013 C 
ATOM     26  C   UNL     1      -9.442  -5.384  -3.798  0.00  0.00    +0.012 C 
ATOM     27  C   UNL     1      -7.942  -7.055  -2.703  0.00  0.00    +0.012 C 
ENDBRANCH  22  25
ENDBRANCH  18  19
BRANCH  18  28
ATOM     28  N   UNL     1      -6.369  -0.325  -0.478  0.00  0.00    -0.290 NA
ATOM     29  C   UNL     1      -7.751   0.084  -0.190  0.00  0.00    +0.113 C 
ATOM     30  C   UNL     1      -8.022   1.443  -0.840  0.00  0.00    +0.175 C 
ATOM     31  O   UNL     1      -7.766   1.353  -2.244  0.00  0.00    -0.377 OA
ATOM     32  C   UNL     1      -6.428   0.958  -2.561  0.00  0.00    +0.175 C 
ATOM     33  C   UNL     1      -6.141  -0.406  -1.928  0.00  0.00    +0.113 C 
ENDBRANCH  18  28
ENDBRANCH   1  18
TORSDOF 6
