REMARK  Name = ZINC66249646
REMARK  8 active torsions:
REMARK  status: ('A' for Active; 'I' for Inactive)
REMARK    1  A    between atoms: C_1  and  C_2
REMARK    2  A    between atoms: N_11  and  S_12
REMARK    3  A    between atoms: S_12  and  C_15
REMARK    4  A    between atoms: C_18  and  O_21
REMARK    5  A    between atoms: O_21  and  C_22
REMARK    6  A    between atoms: C_22  and  C_23
REMARK    7  A    between atoms: C_23  and  O_24
REMARK    8  A    between atoms: O_24  and  C_25
REMARK                            x       y       z     vdW  Elec       q    Type
REMARK                         _______ _______ _______ _____ _____    ______ ____
ROOT
ATOM      1  S   UNL     1       2.000  -6.957   0.280  0.00  0.00    +0.101 S 
ATOM      2  O   UNL     1       0.651  -7.127  -0.132  0.00  0.00    -0.146 OA
ATOM      3  O   UNL     1       3.033  -6.593  -0.625  0.00  0.00    -0.146 OA
ENDROOT
BRANCH   1  13
ATOM      4  C   UNL     1      -0.019   1.526   0.010  0.00  0.00    +0.008 C 
ATOM      5  C   UNL     1       0.002  -0.004   0.002  0.00  0.00    -0.009 C 
ATOM      6  C   UNL     1       0.727  -0.502  -1.252  0.00  0.00    +0.010 C 
ATOM      7  C   UNL     1       0.548  -2.014  -1.389  0.00  0.00    +0.054 C 
ATOM      8  C   UNL     1       0.969  -2.684  -0.083  0.00  0.00    +0.028 A 
ATOM      9  C   UNL     1       1.044  -1.972   1.048  0.00  0.00    +0.013 A 
ATOM     10  S   UNL     1       1.560  -3.151   2.269  0.00  0.00    -0.053 S 
ATOM     11  C   UNL     1       1.655  -4.574   1.192  0.00  0.00    +0.192 A 
ATOM     12  N   UNL     1       1.283  -4.025  -0.012  0.00  0.00    -0.336 N 
ATOM     13  N   UNL     1       1.990  -5.809   1.473  0.00  0.00    -0.103 NA
ATOM     14  C   UNL     1       0.752  -0.517   1.240  0.00  0.00    +0.047 C 
ATOM     15  H   UNL     1       1.242  -4.578  -0.807  0.00  0.00    +0.168 HD
ENDBRANCH   1  13
BRANCH   1  16
ATOM     16  C   UNL     1       2.494  -8.477   1.023  0.00  0.00    +0.113 A 
ATOM     17  C   UNL     1       3.834  -8.812   1.082  0.00  0.00    +0.032 A 
ATOM     18  C   UNL     1       4.224 -10.003   1.663  0.00  0.00    +0.047 A 
ATOM     19  C   UNL     1       3.270 -10.862   2.189  0.00  0.00    +0.121 A 
ATOM     20  C   UNL     1       1.927 -10.523   2.129  0.00  0.00    +0.047 A 
ATOM     21  C   UNL     1       1.542  -9.329   1.551  0.00  0.00    +0.032 A 
BRANCH  19  22
ATOM     22  O   UNL     1       3.651 -12.035   2.761  0.00  0.00    -0.490 OA
BRANCH  22  23
ATOM     23  C   UNL     1       2.615 -12.870   3.281  0.00  0.00    +0.257 C 
BRANCH  23  24
ATOM     24  C   UNL     1       3.232 -14.135   3.881  0.00  0.00    +0.200 C 
BRANCH  24  25
ATOM     25  O   UNL     1       4.037 -13.784   5.009  0.00  0.00    -0.380 OA
ATOM     26  C   UNL     1       4.663 -14.899   5.646  0.00  0.00    +0.194 C 
ENDBRANCH  24  25
ENDBRANCH  23  24
ENDBRANCH  22  23
ENDBRANCH  19  22
ENDBRANCH   1  16
TORSDOF 6
