REMARK  Name = ZINC16186512
REMARK  7 active torsions:
REMARK  status: ('A' for Active; 'I' for Inactive)
REMARK    1  A    between atoms: C_1  and  N_2
REMARK    2  A    between atoms: N_2  and  C_3
REMARK    3  A    between atoms: N_2  and  C_4
REMARK    4  A    between atoms: C_7  and  C_10
REMARK    5  A    between atoms: C_13  and  C_19
REMARK    6  A    between atoms: C_14  and  N_18
REMARK    7  A    between atoms: C_15  and  C_16
REMARK                            x       y       z     vdW  Elec       q    Type
REMARK                         _______ _______ _______ _____ _____    ______ ____
ROOT
ATOM      1  C   UNL     1       1.188   2.153   0.002  0.00  0.00    +0.005 A 
ATOM      2  C   UNL     1       1.170   3.550   0.010  0.00  0.00    -0.034 A 
ATOM      3  C   UNL     1      -0.028   4.228   0.025  0.00  0.00    -0.024 A 
ATOM      4  C   UNL     1      -1.238   3.520   0.033  0.00  0.00    +0.077 A 
ATOM      5  C   UNL     1      -1.238   2.118   0.019  0.00  0.00    +0.061 A 
ATOM      6  C   UNL     1      -0.017   1.428   0.010  0.00  0.00    +0.082 A 
ATOM      7  C   UNL     1       0.226   5.721   0.031  0.00  0.00    +0.037 C 
ATOM      8  C   UNL     1       1.700   5.877   0.459  0.00  0.00    +0.009 C 
ATOM      9  C   UNL     1       2.318   4.538   0.005  0.00  0.00    +0.036 C 
ENDROOT
BRANCH   1  13
ATOM     10  C   UNL     1       4.901   0.085  -0.044  0.00  0.00    +0.029 A 
ATOM     11  C   UNL     1       4.036  -0.017  -1.129  0.00  0.00    +0.024 A 
ATOM     12  C   UNL     1       2.832   0.652  -1.117  0.00  0.00    +0.010 A 
ATOM     13  C   UNL     1       2.480   1.433  -0.014  0.00  0.00    -0.016 A 
ATOM     14  C   UNL     1       3.353   1.537   1.071  0.00  0.00    +0.010 A 
ATOM     15  C   UNL     1       4.553   0.862   1.056  0.00  0.00    +0.024 A 
BRANCH  10  17
ATOM     16  C   UNL     1       6.487  -1.411  -1.218  0.00  0.00    +0.129 C 
ATOM     17  N   UNL     1       6.119  -0.593  -0.060  0.00  0.00    -0.336 N 
ATOM     18  C   UNL     1       7.031  -0.487   1.082  0.00  0.00    +0.129 C 
ENDBRANCH  10  17
ENDBRANCH   1  13
BRANCH   5  19
ATOM     19  N   UNL     1      -2.433   1.420   0.021  0.00  0.00    -0.356 N 
ATOM     20  H   UNL     1      -2.429   0.450   0.015  0.00  0.00    +0.142 HD
ATOM     21  H   UNL     1      -3.276   1.901   0.027  0.00  0.00    +0.142 HD
ENDBRANCH   5  19
BRANCH   6  22
ATOM     22  C   UNL     1       0.002  -0.004   0.002  0.00  0.00    +0.102 C 
ATOM     23  N   UNL     1       0.018  -1.140  -0.004  0.00  0.00    -0.191 NA
ENDBRANCH   6  22
BRANCH   4  24
ATOM     24  C   UNL     1      -2.481   4.232   0.049  0.00  0.00    +0.101 C 
ATOM     25  N   UNL     1      -3.466   4.797   0.061  0.00  0.00    -0.191 NA
ENDBRANCH   4  24
TORSDOF 5
