REMARK  Name = ZINC03103274
REMARK  10 active torsions:
REMARK  status: ('A' for Active; 'I' for Inactive)
REMARK    1  A    between atoms: C_1  and  C_2
REMARK    2  A    between atoms: C_2  and  O_3
REMARK    3  A    between atoms: O_3  and  C_4
REMARK    4  A    between atoms: C_4  and  C_6
REMARK    5  A    between atoms: C_6  and  C_7
REMARK    6  A    between atoms: C_6  and  N_19
REMARK    7  A    between atoms: C_6  and  N_45
REMARK    8  A    between atoms: C_11  and  C_12
REMARK    9  A    between atoms: C_11  and  N_45
REMARK   10  A    between atoms: C_20  and  C_22
REMARK                            x       y       z     vdW  Elec       q    Type
REMARK                         _______ _______ _______ _____ _____    ______ ____
ROOT
ATOM      1  C   UNL     1      -4.301   0.071  -1.184  0.00  0.00    +0.196 C 
ENDROOT
BRANCH   1   2
ATOM      2  C   UNL     1      -5.692   0.468  -0.685  0.00  0.00    +0.406 C 
ATOM      3  F   UNL     1      -6.063   1.689  -1.257  0.00  0.00    -0.170 F 
ATOM      4  F   UNL     1      -6.617  -0.517  -1.050  0.00  0.00    -0.170 F 
ATOM      5  F   UNL     1      -5.670   0.593   0.708  0.00  0.00    -0.170 F 
ENDBRANCH   1   2
BRANCH   1   6
ATOM      6  N   UNL     1      -3.365   1.172  -0.946  0.00  0.00    -0.305 N 
ATOM      7  C   UNL     1      -3.040   1.520   0.316  0.00  0.00    +0.249 C 
ATOM      8  O   UNL     1      -3.584   0.973   1.256  0.00  0.00    -0.270 OA
ATOM      9  H   UNL     1      -2.979   1.652  -1.695  0.00  0.00    +0.148 HD
BRANCH   7  10
ATOM     10  C   UNL     1      -2.025   2.563   0.555  0.00  0.00    +0.107 A 
ATOM     11  C   UNL     1      -2.407   3.905   0.665  0.00  0.00    +0.138 A 
ATOM     12  C   UNL     1      -1.449   4.876   0.883  0.00  0.00    +0.039 A 
ATOM     13  C   UNL     1      -0.116   4.525   0.999  0.00  0.00    +0.006 A 
ATOM     14  C   UNL     1       0.270   3.201   0.898  0.00  0.00    +0.039 A 
ATOM     15  C   UNL     1      -0.675   2.216   0.679  0.00  0.00    +0.138 A 
ATOM     16  F   UNL     1      -0.296   0.923   0.580  0.00  0.00    -0.205 F 
ATOM     17  F   UNL     1      -3.708   4.250   0.551  0.00  0.00    -0.205 F 
ENDBRANCH   7  10
ENDBRANCH   1   6
BRANCH   1  18
ATOM     18  N   UNL     1      -4.370  -0.215  -2.630  0.00  0.00    +0.409 N 
ATOM     19  H   UNL     1      -4.451   0.669  -3.146  0.00  0.00    -0.081 HD
ATOM     20  H   UNL     1      -5.191  -0.800  -2.821  0.00  0.00    -0.081 HD
BRANCH  18  21
ATOM     21  C   UNL     1      -3.154  -0.925  -3.069  0.00  0.00    -0.042 C 
BRANCH  21  22
ATOM     22  C   UNL     1      -3.213  -1.130  -4.561  0.00  0.00    -0.064 A 
ATOM     23  C   UNL     1      -3.788  -2.275  -5.079  0.00  0.00    +0.004 A 
ATOM     24  C   UNL     1      -3.848  -2.461  -6.447  0.00  0.00    +0.038 A 
ATOM     25  C   UNL     1      -3.321  -1.505  -7.298  0.00  0.00    +0.123 A 
ATOM     26  C   UNL     1      -2.740  -0.361  -6.779  0.00  0.00    +0.038 A 
ATOM     27  C   UNL     1      -2.687  -0.175  -5.410  0.00  0.00    +0.004 A 
ATOM     28  F   UNL     1      -3.374  -1.689  -8.636  0.00  0.00    -0.205 F 
ENDBRANCH  21  22
ENDBRANCH  18  21
ENDBRANCH   1  18
BRANCH   1  29
ATOM     29  C   UNL     1      -3.833  -1.155  -0.445  0.00  0.00    +0.322 C 
ATOM     30  O   UNL     1      -2.756  -1.156   0.103  0.00  0.00    -0.250 OA
BRANCH  29  31
ATOM     31  O   UNL     1      -4.612  -2.247  -0.395  0.00  0.00    -0.465 OA
BRANCH  31  33
ATOM     32  C   UNL     1      -5.117  -4.531   0.282  0.00  0.00    +0.048 C 
ATOM     33  C   UNL     1      -4.097  -3.392   0.335  0.00  0.00    +0.229 C 
ENDBRANCH  31  33
ENDBRANCH  29  31
ENDBRANCH   1  29
TORSDOF 9
