REMARK  Name = ZINC09642131
REMARK  9 active torsions:
REMARK  status: ('A' for Active; 'I' for Inactive)
REMARK    1  A    between atoms: C_1  and  C_2
REMARK    2  A    between atoms: C_5  and  C_21
REMARK    3  A    between atoms: C_6  and  O_8
REMARK    4  A    between atoms: O_8  and  C_9
REMARK    5  A    between atoms: C_9  and  C_10
REMARK    6  A    between atoms: N_12  and  C_13
REMARK    7  A    between atoms: C_14  and  C_18
REMARK    8  A    between atoms: C_21  and  C_22
REMARK    9  A    between atoms: C_21  and  C_23
REMARK                            x       y       z     vdW  Elec       q    Type
REMARK                         _______ _______ _______ _____ _____    ______ ____
ROOT
ATOM      1  C   UNL     1       1.715  -2.638  -0.029  0.00  0.00    +0.255 C 
ATOM      2  O   UNL     1       0.502  -2.629  -0.017  0.00  0.00    -0.272 OA
ATOM      3  N   UNL     1       2.397  -1.476  -0.029  0.00  0.00    -0.277 N 
ATOM      4  H   UNL     1       3.367  -1.483  -0.039  0.00  0.00    +0.155 HD
ENDROOT
BRANCH   3   5
ATOM      5  C   UNL     1       1.713  -0.270  -0.016  0.00  0.00    +0.084 A 
ATOM      6  C   UNL     1       2.234   1.018  -0.014  0.00  0.00    +0.065 A 
ATOM      7  C   UNL     1       1.283   2.104   0.001  0.00  0.00    +0.022 A 
ATOM      8  C   UNL     1      -0.022   1.776   0.012  0.00  0.00    +0.048 A 
ATOM      9  S   UNL     1       0.002  -0.004   0.002  0.00  0.00    -0.081 S 
BRANCH   6  10
ATOM     10  C   UNL     1       3.680   1.263  -0.026  0.00  0.00    +0.244 C 
ATOM     11  O   UNL     1       4.456   0.326  -0.038  0.00  0.00    -0.270 OA
ATOM     12  N   UNL     1       4.149   2.527  -0.024  0.00  0.00    -0.325 N 
ATOM     13  H   UNL     1       3.531   3.274  -0.014  0.00  0.00    +0.145 HD
ATOM     14  H   UNL     1       5.106   2.688  -0.032  0.00  0.00    +0.145 HD
ENDBRANCH   6  10
ENDBRANCH   3   5
BRANCH   1  15
ATOM     15  C   UNL     1       2.458  -3.949  -0.043  0.00  0.00    +0.324 C 
BRANCH  15  16
ATOM     16  O   UNL     1       1.522  -5.028  -0.040  0.00  0.00    -0.482 OA
BRANCH  16  22
ATOM     17  C   UNL     1       5.413  -7.973  -0.096  0.00  0.00    +0.044 C 
ATOM     18  C   UNL     1       3.921  -7.762  -0.079  0.00  0.00    -0.047 A 
ATOM     19  C   UNL     1       3.070  -8.852  -0.076  0.00  0.00    +0.004 A 
ATOM     20  C   UNL     1       1.700  -8.662  -0.062  0.00  0.00    +0.008 A 
ATOM     21  C   UNL     1       1.179  -7.382  -0.050  0.00  0.00    -0.003 A 
ATOM     22  C   UNL     1       2.031  -6.287  -0.052  0.00  0.00    +0.125 A 
ATOM     23  C   UNL     1       3.405  -6.481  -0.072  0.00  0.00    +0.049 A 
BRANCH  21  24
ATOM     24  C   UNL     1      -0.313  -7.176  -0.033  0.00  0.00    +0.016 C 
ATOM     25  C   UNL     1      -0.930  -7.813  -1.280  0.00  0.00    +0.012 C 
ATOM     26  C   UNL     1      -0.905  -7.827   1.218  0.00  0.00    +0.012 C 
ENDBRANCH  21  24
ENDBRANCH  16  22
ENDBRANCH  15  16
ENDBRANCH   1  15
TORSDOF 6
