REMARK  Name = ZINC06657707
REMARK  6 active torsions:
REMARK  status: ('A' for Active; 'I' for Inactive)
REMARK    1  A    between atoms: C_1  and  C_2
REMARK    2  A    between atoms: C_4  and  C_29
REMARK    3  A    between atoms: C_6  and  S_8
REMARK    4  A    between atoms: S_8  and  C_9
REMARK    5  A    between atoms: C_9  and  C_10
REMARK    6  A    between atoms: C_15  and  C_16
REMARK                            x       y       z     vdW  Elec       q    Type
REMARK                         _______ _______ _______ _____ _____    ______ ____
ROOT
ATOM      1  C   UNL     1       7.586   0.398   0.038  0.00  0.00    -0.025 A 
ATOM      2  C   UNL     1       8.943   0.498   0.265  0.00  0.00    +0.005 A 
ATOM      3  C   UNL     1       9.576   1.724   0.161  0.00  0.00    +0.000 A 
ATOM      4  C   UNL     1       8.854   2.857  -0.172  0.00  0.00    +0.001 A 
ATOM      5  C   UNL     1       7.498   2.769  -0.406  0.00  0.00    +0.013 A 
ATOM      6  C   UNL     1       6.852   1.537  -0.298  0.00  0.00    +0.041 A 
ENDROOT
BRANCH   6   7
ATOM      7  C   UNL     1       5.398   1.436  -0.543  0.00  0.00    +0.251 C 
ATOM      8  O   UNL     1       4.857   0.348  -0.556  0.00  0.00    -0.270 OA
ATOM      9  N   UNL     1       4.671   2.552  -0.752  0.00  0.00    -0.252 N 
ATOM     10  C   UNL     1       3.310   2.458  -0.982  0.00  0.00    +0.201 A 
ATOM     11  N   UNL     1       2.599   1.293  -1.019  0.00  0.00    -0.326 N 
ATOM     12  H   UNL     1       2.964   0.372  -0.886  0.00  0.00    +0.169 HD
ATOM     13  C   UNL     1       1.280   1.625  -1.274  0.00  0.00    +0.067 A 
ATOM     14  C   UNL     1       0.114   0.888  -1.422  0.00  0.00    +0.028 A 
ATOM     15  C   UNL     1      -1.077   1.533  -1.683  0.00  0.00    +0.002 A 
ATOM     16  C   UNL     1      -1.119   2.916  -1.790  0.00  0.00    +0.002 A 
ATOM     17  C   UNL     1       0.028   3.663  -1.645  0.00  0.00    +0.030 A 
ATOM     18  C   UNL     1       1.244   3.025  -1.385  0.00  0.00    +0.091 A 
ATOM     19  N   UNL     1       2.512   3.473  -1.197  0.00  0.00    -0.214 NA
ATOM     20  H   UNL     1       5.103   3.421  -0.742  0.00  0.00    +0.158 HD
ENDBRANCH   6   7
BRANCH   1  21
ATOM     21  C   UNL     1       6.898  -0.938   0.152  0.00  0.00    +0.113 C 
BRANCH  21  22
ATOM     22  S   UNL     1       6.744  -1.680  -1.491  0.00  0.00    -0.081 S 
BRANCH  22  28
ATOM     23  C   UNL     1       4.696  -4.823   1.990  0.00  0.00    +0.066 C 
ATOM     24  C   UNL     1       5.026  -4.551   0.545  0.00  0.00    +0.043 A 
ATOM     25  C   UNL     1       4.693  -5.473  -0.436  0.00  0.00    +0.046 A 
ATOM     26  C   UNL     1       5.014  -5.185  -1.753  0.00  0.00    +0.043 A 
ATOM     27  N   UNL     1       5.625  -4.046  -2.034  0.00  0.00    -0.227 NA
ATOM     28  C   UNL     1       5.930  -3.186  -1.072  0.00  0.00    +0.189 A 
ATOM     29  N   UNL     1       5.641  -3.433   0.197  0.00  0.00    -0.227 NA
ATOM     30  C   UNL     1       4.671  -6.157  -2.852  0.00  0.00    +0.066 C 
ENDBRANCH  22  28
ENDBRANCH  21  22
ENDBRANCH   1  21
TORSDOF 4
