REMARK  Name = ZINC12635580
REMARK  12 active torsions:
REMARK  status: ('A' for Active; 'I' for Inactive)
REMARK    1  A    between atoms: C_1  and  C_2
REMARK    2  A    between atoms: C_2  and  O_3
REMARK    3  A    between atoms: O_3  and  C_4
REMARK    4  A    between atoms: C_4  and  C_6
REMARK    5  A    between atoms: C_6  and  C_35
REMARK    6  A    between atoms: C_11  and  C_13
REMARK    7  A    between atoms: C_16  and  C_19
REMARK    8  A    between atoms: C_19  and  C_20
REMARK    9  A    between atoms: C_19  and  C_21
REMARK   10  A    between atoms: N_24  and  C_27
REMARK   11  A    between atoms: C_30  and  O_33
REMARK   12  A    between atoms: O_33  and  C_34
REMARK                            x       y       z     vdW  Elec       q    Type
REMARK                         _______ _______ _______ _____ _____    ______ ____
ROOT
ATOM      1  C   UNL     1       2.524   2.008   0.508  0.00  0.00    +0.041 C 
ATOM      2  C   UNL     1       1.131   2.115   0.003  0.00  0.00    +0.086 C 
ATOM      3  C   UNL     1       0.561   3.261   0.928  0.00  0.00    +0.077 C 
ATOM      4  C   UNL     1       1.678   4.258   0.735  0.00  0.00    -0.027 C 
ATOM      5  C   UNL     1      -0.798   3.324   0.345  0.00  0.00    +0.229 C 
ATOM      6  O   UNL     1      -1.485   4.310   0.185  0.00  0.00    -0.275 OA
ATOM      7  N   UNL     1      -1.113   2.030   0.018  0.00  0.00    -0.210 N 
ATOM      8  C   UNL     1      -0.014   1.208   0.009  0.00  0.00    +0.229 C 
ATOM      9  O   UNL     1       0.002  -0.004   0.002  0.00  0.00    -0.275 OA
ATOM     10  C   UNL     1       3.449   1.472  -0.587  0.00  0.00    +0.002 C 
ATOM     11  N   UNL     1       2.891   3.398   0.880  0.00  0.00    +0.395 N 
ATOM     12  H   UNL     1       3.634   3.739   0.259  0.00  0.00    -0.083 HD
ATOM     13  H   UNL     1       3.219   3.422   1.852  0.00  0.00    -0.083 HD
ENDROOT
BRANCH   4  14
ATOM     14  C   UNL     1       1.633   5.326   1.798  0.00  0.00    -0.061 A 
ATOM     15  C   UNL     1       2.141   5.070   3.057  0.00  0.00    +0.002 A 
ATOM     16  C   UNL     1       2.104   6.051   4.030  0.00  0.00    +0.004 A 
ATOM     17  C   UNL     1       1.549   7.285   3.747  0.00  0.00    -0.045 A 
ATOM     18  C   UNL     1       1.035   7.539   2.489  0.00  0.00    +0.004 A 
ATOM     19  C   UNL     1       1.077   6.560   1.515  0.00  0.00    +0.002 A 
BRANCH  17  20
ATOM     20  C   UNL     1       1.505   8.353   4.809  0.00  0.00    +0.013 C 
ATOM     21  C   UNL     1       0.694   7.849   6.005  0.00  0.00    +0.012 C 
ATOM     22  C   UNL     1       2.929   8.682   5.261  0.00  0.00    +0.012 C 
ENDBRANCH  17  20
ENDBRANCH   4  14
BRANCH   7  23
ATOM     23  C   UNL     1      -2.415   1.594  -0.273  0.00  0.00    +0.044 A 
ATOM     24  C   UNL     1      -2.645   0.264  -0.598  0.00  0.00    +0.027 A 
ATOM     25  C   UNL     1      -3.927  -0.166  -0.880  0.00  0.00    +0.047 A 
ATOM     26  C   UNL     1      -4.983   0.733  -0.848  0.00  0.00    +0.120 A 
ATOM     27  C   UNL     1      -4.753   2.063  -0.528  0.00  0.00    +0.047 A 
ATOM     28  C   UNL     1      -3.472   2.493  -0.242  0.00  0.00    +0.027 A 
BRANCH  26  29
ATOM     29  O   UNL     1      -6.244   0.310  -1.131  0.00  0.00    -0.495 OA
ATOM     30  C   UNL     1      -6.408  -1.073  -1.453  0.00  0.00    +0.277 C 
ENDBRANCH  26  29
ENDBRANCH   7  23
BRANCH   1  31
ATOM     31  C   UNL     1       2.576   1.118   1.723  0.00  0.00    +0.297 C 
ATOM     32  O   UNL     1       1.727   0.275   1.891  0.00  0.00    -0.252 OA
BRANCH  31  33
ATOM     33  O   UNL     1       3.564   1.263   2.619  0.00  0.00    -0.466 OA
BRANCH  33  35
ATOM     34  C   UNL     1       4.746   0.684   4.669  0.00  0.00    +0.048 C 
ATOM     35  C   UNL     1       3.551   0.371   3.765  0.00  0.00    +0.228 C 
ENDBRANCH  33  35
ENDBRANCH  31  33
ENDBRANCH   1  31
TORSDOF 7
