REMARK  Name = ZINC20205604
REMARK  12 active torsions:
REMARK  status: ('A' for Active; 'I' for Inactive)
REMARK    1  A    between atoms: C_1  and  C_2
REMARK    2  A    between atoms: C_2  and  O_3
REMARK    3  A    between atoms: O_3  and  C_4
REMARK    4  A    between atoms: C_6  and  C_15
REMARK    5  A    between atoms: C_9  and  O_10
REMARK    6  A    between atoms: O_10  and  S_11
REMARK    7  A    between atoms: S_11  and  C_14
REMARK    8  A    between atoms: C_26  and  S_27
REMARK    9  A    between atoms: S_27  and  C_28
REMARK   10  A    between atoms: C_28  and  C_29
REMARK   11  A    between atoms: C_29  and  C_30
REMARK   12  A    between atoms: C_29  and  C_31
REMARK                            x       y       z     vdW  Elec       q    Type
REMARK                         _______ _______ _______ _____ _____    ______ ____
ROOT
ATOM      1  C   UNL     1       0.608  -4.949  -0.018  0.00  0.00    +0.024 C 
ATOM      2  C   UNL     1       0.442  -6.311   0.080  0.00  0.00    +0.079 C 
ATOM      3  C   UNL     1       1.605  -7.240   0.190  0.00  0.00    +0.137 C 
ATOM      4  N   UNL     1       2.720  -6.927   0.792  0.00  0.00    -0.284 NA
ATOM      5  N   UNL     1       1.376  -8.490  -0.420  0.00  0.00    -0.211 N 
ATOM      6  C   UNL     1       0.072  -8.910  -0.588  0.00  0.00    +0.183 C 
ATOM      7  N   UNL     1      -1.015  -8.216  -0.327  0.00  0.00    -0.152 NA
ATOM      8  C   UNL     1      -0.902  -6.939   0.089  0.00  0.00    +0.273 C 
ATOM      9  O   UNL     1      -1.882  -6.312   0.460  0.00  0.00    -0.268 OA
ATOM     10  S   UNL     1       0.240 -10.451  -1.201  0.00  0.00    +0.048 S 
ATOM     11  N   UNL     1       1.909 -10.511  -1.340  0.00  0.00    -0.185 NA
ATOM     12  C   UNL     1       2.312  -9.363  -0.870  0.00  0.00    +0.176 C 
ATOM     13  H   UNL     1       2.824  -6.051   1.196  0.00  0.00    +0.188 HD
ENDROOT
BRANCH   1  16
ATOM     14  C   UNL     1      -1.736  -2.025   0.019  0.00  0.00    +0.165 A 
ATOM     15  C   UNL     1      -0.649  -2.829   0.296  0.00  0.00    +0.057 A 
ATOM     16  C   UNL     1      -0.543  -4.090  -0.307  0.00  0.00    -0.021 A 
ATOM     17  C   UNL     1      -1.543  -4.527  -1.188  0.00  0.00    +0.012 A 
ATOM     18  C   UNL     1      -2.623  -3.717  -1.457  0.00  0.00    +0.053 A 
ATOM     19  C   UNL     1      -2.729  -2.470  -0.855  0.00  0.00    +0.198 A 
BRANCH  14  20
ATOM     20  O   UNL     1      -1.842  -0.801   0.602  0.00  0.00    -0.488 OA
BRANCH  20  22
ATOM     21  C   UNL     1      -1.082   0.986   2.041  0.00  0.00    +0.048 C 
ATOM     22  C   UNL     1      -0.789  -0.410   1.485  0.00  0.00    +0.226 C 
ENDBRANCH  20  22
ENDBRANCH  14  20
BRANCH  19  23
ATOM     23  O   UNL     1      -3.800  -1.679  -1.120  0.00  0.00    -0.343 OA
BRANCH  23  24
ATOM     24  S   UNL     1      -3.603  -0.750  -2.310  0.00  0.00    +0.118 S 
ATOM     25  O   UNL     1      -4.702   0.150  -2.253  0.00  0.00    -0.137 OA
ATOM     26  O   UNL     1      -2.271  -0.274  -2.182  0.00  0.00    -0.137 OA
ATOM     27  C   UNL     1      -3.748  -1.820  -3.767  0.00  0.00    +0.242 C 
ENDBRANCH  23  24
ENDBRANCH  19  23
ENDBRANCH   1  16
BRANCH  12  28
ATOM     28  S   UNL     1       4.026  -8.957  -0.820  0.00  0.00    -0.089 S 
BRANCH  28  29
ATOM     29  C   UNL     1       4.844 -10.419  -1.517  0.00  0.00    +0.080 C 
BRANCH  29  30
ATOM     30  C   UNL     1       6.358 -10.198  -1.532  0.00  0.00    -0.007 C 
ATOM     31  C   UNL     1       6.872 -10.093  -0.095  0.00  0.00    +0.008 C 
ATOM     32  C   UNL     1       7.038 -11.376  -2.233  0.00  0.00    +0.008 C 
ENDBRANCH  29  30
ENDBRANCH  28  29
ENDBRANCH  12  28
TORSDOF 8
