REMARK  Name = ZINC63308228
REMARK  15 active torsions:
REMARK  status: ('A' for Active; 'I' for Inactive)
REMARK    1  A    between atoms: C_1  and  C_2
REMARK    2  A    between atoms: C_2  and  O_4
REMARK    3  A    between atoms: O_4  and  C_5
REMARK    4  A    between atoms: C_5  and  C_6
REMARK    5  A    between atoms: C_8  and  O_35
REMARK    6  A    between atoms: C_10  and  O_31
REMARK    7  A    between atoms: C_12  and  O_27
REMARK    8  A    between atoms: C_14  and  S_17
REMARK    9  A    between atoms: S_17  and  C_18
REMARK   10  A    between atoms: O_27  and  C_28
REMARK   11  A    between atoms: C_28  and  C_30
REMARK   12  A    between atoms: O_31  and  C_32
REMARK   13  A    between atoms: C_32  and  C_34
REMARK   14  A    between atoms: O_35  and  C_36
REMARK   15  A    between atoms: C_36  and  C_38
REMARK                            x       y       z     vdW  Elec       q    Type
REMARK                         _______ _______ _______ _____ _____    ______ ____
ROOT
ATOM      1  C   UNL     1      -0.166  -2.792  -2.564  0.00  0.00    +0.202 C 
ATOM      2  C   UNL     1      -0.071  -4.309  -2.376  0.00  0.00    +0.252 C 
ATOM      3  C   UNL     1      -1.279  -4.792  -1.569  0.00  0.00    +0.263 C 
ATOM      4  C   UNL     1      -2.563  -4.376  -2.294  0.00  0.00    +0.259 C 
ATOM      5  C   UNL     1      -2.562  -2.857  -2.485  0.00  0.00    +0.224 C 
ATOM      6  O   UNL     1      -1.397  -2.471  -3.216  0.00  0.00    -0.352 OA
ENDROOT
BRANCH   1   7
ATOM      7  C   UNL     1      -0.118  -2.105  -1.198  0.00  0.00    +0.267 C 
BRANCH   7   8
ATOM      8  O   UNL     1      -0.109  -0.687  -1.379  0.00  0.00    -0.462 OA
BRANCH   8  10
ATOM      9  C   UNL     1      -0.058   1.567  -0.373  0.00  0.00    +0.136 C 
ATOM     10  C   UNL     1       0.037   0.066  -0.277  0.00  0.00    +0.304 C 
ATOM     11  O   UNL     1       0.244  -0.459   0.791  0.00  0.00    -0.251 OA
ENDBRANCH   8  10
ENDBRANCH   7   8
ENDBRANCH   1   7
BRANCH   5  12
ATOM     12  S   UNL     1      -4.045  -2.363  -3.405  0.00  0.00    -0.080 S 
BRANCH  12  13
ATOM     13  C   UNL     1      -5.120  -1.626  -2.143  0.00  0.00    +0.238 C 
ATOM     14  N   UNL     1      -4.471  -0.448  -1.554  0.00  0.00    -0.355 N 
ATOM     15  C   UNL     1      -4.323  -0.679  -0.282  0.00  0.00    +0.061 A 
ATOM     16  C   UNL     1      -3.748   0.111   0.816  0.00  0.00    +0.027 A 
ATOM     17  C   UNL     1      -3.731  -0.400   2.064  0.00  0.00    +0.002 A 
ATOM     18  C   UNL     1      -4.245  -1.673   2.369  0.00  0.00    +0.002 A 
ATOM     19  C   UNL     1      -4.794  -2.478   1.438  0.00  0.00    +0.027 A 
ATOM     20  C   UNL     1      -4.866  -2.026   0.041  0.00  0.00    +0.061 A 
ATOM     21  N   UNL     1      -5.330  -2.576  -1.044  0.00  0.00    -0.355 N 
ATOM     22  H   UNL     1      -4.203   0.355  -2.027  0.00  0.00    +0.162 HD
ATOM     23  H   UNL     1      -5.740  -3.453  -1.113  0.00  0.00    +0.162 HD
ENDBRANCH  12  13
ENDBRANCH   5  12
BRANCH   4  24
ATOM     24  O   UNL     1      -2.621  -5.019  -3.569  0.00  0.00    -0.454 OA
BRANCH  24  25
ATOM     25  C   UNL     1      -3.841  -5.292  -4.059  0.00  0.00    +0.304 C 
ATOM     26  O   UNL     1      -4.827  -4.995  -3.426  0.00  0.00    -0.251 OA
ATOM     27  C   UNL     1      -3.981  -5.969  -5.398  0.00  0.00    +0.136 C 
ENDBRANCH  24  25
ENDBRANCH   4  24
BRANCH   3  28
ATOM     28  O   UNL     1      -1.236  -6.216  -1.450  0.00  0.00    -0.454 OA
BRANCH  28  29
ATOM     29  C   UNL     1      -1.779  -6.752  -0.346  0.00  0.00    +0.304 C 
ATOM     30  O   UNL     1      -2.276  -6.036   0.492  0.00  0.00    -0.251 OA
ATOM     31  C   UNL     1      -1.770  -8.246  -0.150  0.00  0.00    +0.136 C 
ENDBRANCH  28  29
ENDBRANCH   3  28
BRANCH   2  32
ATOM     32  O   UNL     1       1.132  -4.628  -1.674  0.00  0.00    -0.455 OA
BRANCH  32  33
ATOM     33  C   UNL     1       2.228  -4.856  -2.416  0.00  0.00    +0.304 C 
ATOM     34  O   UNL     1       2.167  -4.787  -3.620  0.00  0.00    -0.251 OA
ATOM     35  C   UNL     1       3.534  -5.198  -1.745  0.00  0.00    +0.136 C 
ENDBRANCH  32  33
ENDBRANCH   2  32
TORSDOF 11
