REMARK  Name = ZINC10785039
REMARK  8 active torsions:
REMARK  status: ('A' for Active; 'I' for Inactive)
REMARK    1  A    between atoms: C_1  and  C_2
REMARK    2  A    between atoms: C_5  and  C_8
REMARK    3  A    between atoms: C_11  and  S_14
REMARK    4  A    between atoms: N_12  and  N_13
REMARK    5  A    between atoms: S_14  and  C_15
REMARK    6  A    between atoms: C_15  and  C_16
REMARK    7  A    between atoms: N_18  and  C_19
REMARK    8  A    between atoms: C_22  and  N_26
REMARK                            x       y       z     vdW  Elec       q    Type
REMARK                         _______ _______ _______ _____ _____    ______ ____
ROOT
ATOM      1  S   UNL     1      -0.061   1.957  -0.285  0.00  0.00    -0.075 S 
ENDROOT
BRANCH   1   5
ATOM      2  C   UNL     1       3.658   3.135  -0.070  0.00  0.00    +0.182 A 
ATOM      3  N   UNL     1       3.759   1.834   0.072  0.00  0.00    -0.127 NA
ATOM      4  N   UNL     1       2.593   1.296   0.027  0.00  0.00    -0.121 NA
ATOM      5  C   UNL     1       1.676   2.220  -0.155  0.00  0.00    +0.209 A 
ATOM      6  N   UNL     1       2.321   3.422  -0.221  0.00  0.00    -0.224 N 
BRANCH   2  11
ATOM      7  C   UNL     1       7.990   6.923  -0.067  0.00  0.00    +0.044 C 
ATOM      8  C   UNL     1       6.856   5.931  -0.068  0.00  0.00    -0.050 A 
ATOM      9  C   UNL     1       5.558   6.369   0.127  0.00  0.00    +0.004 A 
ATOM     10  C   UNL     1       4.514   5.466   0.128  0.00  0.00    +0.012 A 
ATOM     11  C   UNL     1       4.771   4.108  -0.070  0.00  0.00    +0.021 A 
ATOM     12  C   UNL     1       6.083   3.672  -0.260  0.00  0.00    +0.012 A 
ATOM     13  C   UNL     1       7.117   4.586  -0.263  0.00  0.00    +0.004 A 
ENDBRANCH   2  11
BRANCH   6  14
ATOM     14  N   UNL     1       1.756   4.653  -0.398  0.00  0.00    -0.295 N 
ATOM     15  H   UNL     1       1.606   5.113   0.488  0.00  0.00    +0.163 HD
ATOM     16  H   UNL     1       2.318   5.224  -1.011  0.00  0.00    +0.163 HD
ENDBRANCH   6  14
ENDBRANCH   1   5
BRANCH   1  17
ATOM     17  C   UNL     1      -0.121   0.157  -0.106  0.00  0.00    +0.173 C 
BRANCH  17  18
ATOM     18  C   UNL     1      -1.552  -0.308  -0.187  0.00  0.00    +0.228 C 
ATOM     19  O   UNL     1      -2.444   0.498  -0.349  0.00  0.00    -0.275 OA
ATOM     20  N   UNL     1      -1.841  -1.620  -0.078  0.00  0.00    -0.284 N 
ATOM     21  H   UNL     1      -1.125  -2.272  -0.021  0.00  0.00    +0.155 HD
BRANCH  20  22
ATOM     22  C   UNL     1      -3.175  -2.043  -0.049  0.00  0.00    +0.048 A 
ATOM     23  C   UNL     1      -4.138  -1.361  -0.782  0.00  0.00    +0.026 A 
ATOM     24  C   UNL     1      -5.453  -1.780  -0.750  0.00  0.00    +0.034 A 
ATOM     25  C   UNL     1      -5.813  -2.878   0.009  0.00  0.00    +0.127 A 
ATOM     26  C   UNL     1      -4.858  -3.560   0.740  0.00  0.00    +0.049 A 
ATOM     27  C   UNL     1      -3.539  -3.149   0.709  0.00  0.00    +0.041 A 
ATOM     28 BR   UNL     1      -2.231  -4.087   1.702  0.00  0.00    -0.048 Br
BRANCH  25  29
ATOM     29  N   UNL     1      -7.224  -3.325   0.039  0.00  0.00    +0.056 N 
ATOM     30  O   UNL     1      -8.066  -2.726  -0.605  0.00  0.00    -0.126 OA
ATOM     31  O   UNL     1      -7.542  -4.293   0.707  0.00  0.00    -0.126 OA
ENDBRANCH  25  29
ENDBRANCH  20  22
ENDBRANCH  17  18
ENDBRANCH   1  17
TORSDOF 7
