REMARK  Name = ZINC00184621
REMARK  4 active torsions:
REMARK  status: ('A' for Active; 'I' for Inactive)
REMARK    1  A    between atoms: C_7  and  C_14
REMARK    2  A    between atoms: C_9  and  C_11
REMARK    3  A    between atoms: N_16  and  N_17
REMARK    4  A    between atoms: C_18  and  C_19
REMARK                            x       y       z     vdW  Elec       q    Type
REMARK                         _______ _______ _______ _____ _____    ______ ____
ROOT
ATOM      1  C   UNL     1      -0.017   1.358  -0.044  0.00  0.00    +0.001 A 
ATOM      2  C   UNL     1       1.170   2.089  -0.051  0.00  0.00    +0.002 A 
ATOM      3  C   UNL     1       2.379   1.464  -0.049  0.00  0.00    +0.028 A 
ATOM      4  C   UNL     1       2.438   0.058  -0.039  0.00  0.00    +0.072 A 
ATOM      5  C   UNL     1       1.229  -0.680  -0.031  0.00  0.00    +0.013 A 
ATOM      6  C   UNL     1       0.002  -0.004  -0.035  0.00  0.00    +0.011 A 
ATOM      7  C   UNL     1       1.291  -2.097  -0.021  0.00  0.00    +0.049 A 
ATOM      8  C   UNL     1       2.548  -2.690  -0.019  0.00  0.00    +0.037 A 
ATOM      9  C   UNL     1       3.686  -1.888  -0.027  0.00  0.00    +0.046 A 
ATOM     10  N   UNL     1       3.611  -0.580  -0.035  0.00  0.00    -0.251 NA
ENDROOT
BRANCH   7  11
ATOM     11  C   UNL     1       0.060  -2.916  -0.013  0.00  0.00    +0.264 C 
ATOM     12  O   UNL     1      -1.026  -2.379   0.092  0.00  0.00    -0.268 OA
ATOM     13  N   UNL     1       0.142  -4.256  -0.122  0.00  0.00    -0.203 N 
ATOM     14  H   UNL     1       1.008  -4.684  -0.206  0.00  0.00    +0.178 HD
BRANCH  13  15
ATOM     15  N   UNL     1      -1.025  -5.032  -0.114  0.00  0.00    -0.186 NA
ATOM     16  C   UNL     1      -0.946  -6.324  -0.219  0.00  0.00    +0.158 C 
BRANCH  16  17
ATOM     17  C   UNL     1      -2.173  -7.140  -0.211  0.00  0.00    +0.083 A 
ATOM     18  C   UNL     1      -2.083  -8.530  -0.319  0.00  0.00    +0.029 A 
ATOM     19  C   UNL     1      -3.244  -9.282  -0.309  0.00  0.00    +0.004 A 
ATOM     20  C   UNL     1      -4.460  -8.622  -0.193  0.00  0.00    +0.020 A 
ATOM     21  C   UNL     1      -4.478  -7.243  -0.090  0.00  0.00    +0.111 A 
ATOM     22  N   UNL     1      -3.358  -6.549  -0.096  0.00  0.00    -0.254 NA
ENDBRANCH  16  17
ENDBRANCH  13  15
ENDBRANCH   7  11
BRANCH   9  23
ATOM     23  C   UNL     1       5.043  -2.543  -0.024  0.00  0.00    +0.038 C 
ATOM     24  C   UNL     1       5.112  -4.026  -0.396  0.00  0.00    +0.010 C 
ATOM     25  C   UNL     1       5.625  -2.967  -1.374  0.00  0.00    +0.010 C 
ENDBRANCH   9  23
TORSDOF 4
