REMARK  Name = ZINC46772906
REMARK  5 active torsions:
REMARK  status: ('A' for Active; 'I' for Inactive)
REMARK    1  A    between atoms: C_3  and  C_9
REMARK    2  A    between atoms: N_11  and  N_12
REMARK    3  A    between atoms: N_12  and  C_13
REMARK    4  A    between atoms: C_13  and  N_15
REMARK    5  A    between atoms: N_15  and  C_16
REMARK                            x       y       z     vdW  Elec       q    Type
REMARK                         _______ _______ _______ _____ _____    ______ ____
ROOT
ATOM      1  N   UNL     1       4.789   4.206   0.210  0.00  0.00    -0.245 N 
ATOM      2  H   UNL     1       5.609   3.716   0.378  0.00  0.00    +0.172 HD
ENDROOT
BRANCH   1   5
ATOM      3  C   UNL     1       3.598   2.165  -0.080  0.00  0.00    +0.261 C 
ATOM      4  O   UNL     1       4.626   1.551   0.131  0.00  0.00    -0.269 OA
ATOM      5  N   UNL     1       3.601   3.512  -0.057  0.00  0.00    -0.231 N 
ATOM      6  H   UNL     1       2.781   4.002  -0.225  0.00  0.00    +0.173 HD
BRANCH   3   9
ATOM      7  C   UNL     1      -0.002   1.448  -0.865  0.00  0.00    +0.039 A 
ATOM      8  C   UNL     1       1.164   2.136  -0.603  0.00  0.00    +0.017 A 
ATOM      9  C   UNL     1       2.346   1.433  -0.361  0.00  0.00    +0.052 A 
ATOM     10  C   UNL     1       2.341   0.036  -0.385  0.00  0.00    +0.033 A 
ATOM     11  C   UNL     1       1.168  -0.641  -0.649  0.00  0.00    +0.054 A 
ATOM     12  C   UNL     1      -0.002   0.062  -0.889  0.00  0.00    +0.124 A 
ATOM     13  F   UNL     1      -1.148  -0.606  -1.146  0.00  0.00    -0.205 F 
ATOM     14 BR   UNL     1       3.937  -0.924  -0.059  0.00  0.00    -0.049 Br
ENDBRANCH   3   9
ENDBRANCH   1   5
BRANCH   1  15
ATOM     15  C   UNL     1       4.792   5.553   0.233  0.00  0.00    +0.151 C 
ATOM     16  S   UNL     1       6.243   6.401   0.558  0.00  0.00    -0.017 S 
BRANCH  15  17
ATOM     17  N   UNL     1       3.652   6.234  -0.001  0.00  0.00    -0.295 N 
ATOM     18  H   UNL     1       2.844   5.756  -0.247  0.00  0.00    +0.154 HD
BRANCH  17  19
ATOM     19  C   UNL     1       3.634   7.629   0.112  0.00  0.00    +0.051 A 
ATOM     20  C   UNL     1       4.631   8.388  -0.485  0.00  0.00    +0.026 A 
ATOM     21  C   UNL     1       4.611   9.764  -0.373  0.00  0.00    +0.022 A 
ATOM     22  C   UNL     1       3.598  10.388   0.334  0.00  0.00    +0.042 A 
ATOM     23  C   UNL     1       2.602   9.635   0.930  0.00  0.00    +0.041 A 
ATOM     24  C   UNL     1       2.615   8.257   0.817  0.00  0.00    +0.063 A 
ATOM     25 CL   UNL     1       1.361   7.313   1.560  0.00  0.00    -0.082 Cl
ATOM     26 CL   UNL     1       3.576  12.118   0.473  0.00  0.00    -0.083 Cl
ENDBRANCH  17  19
ENDBRANCH  15  17
ENDBRANCH   1  15
TORSDOF 5
