REMARK  Name = ZINC11882212
REMARK  12 active torsions:
REMARK  status: ('A' for Active; 'I' for Inactive)
REMARK    1  A    between atoms: C_1  and  N_2
REMARK    2  A    between atoms: N_2  and  C_3
REMARK    3  A    between atoms: C_3  and  C_4
REMARK    4  A    between atoms: C_9  and  C_11
REMARK    5  A    between atoms: C_12  and  O_33
REMARK    6  A    between atoms: C_22  and  C_23
REMARK    7  A    between atoms: C_22  and  N_66
REMARK    8  A    between atoms: C_24  and  O_31
REMARK    9  A    between atoms: C_28  and  O_29
REMARK   10  A    between atoms: O_29  and  C_30
REMARK   11  A    between atoms: O_31  and  C_32
REMARK   12  A    between atoms: O_33  and  C_34
REMARK                            x       y       z     vdW  Elec       q    Type
REMARK                         _______ _______ _______ _____ _____    ______ ____
ROOT
ATOM      1  C   UNL     1      -0.779  -1.190  -4.329  0.00  0.00    +0.098 A 
ATOM      2  C   UNL     1      -1.742  -2.107  -4.938  0.00  0.00    +0.139 A 
ATOM      3  C   UNL     1      -2.492  -2.905  -4.096  0.00  0.00    +0.116 A 
ATOM      4  C   UNL     1      -2.289  -2.814  -2.719  0.00  0.00    +0.255 A 
ATOM      5  O   UNL     1      -2.960  -3.512  -1.976  0.00  0.00    -0.268 OA
ATOM      6  N   UNL     1      -1.372  -1.977  -2.179  0.00  0.00    -0.313 N 
ATOM      7  C   UNL     1      -0.646  -1.156  -2.948  0.00  0.00    +0.036 A 
ATOM      8  C   UNL     1       0.325  -0.146  -2.386  0.00  0.00    +0.036 C 
ATOM      9  C   UNL     1       0.914  -0.617  -1.059  0.00  0.00    -0.072 C 
ATOM     10  C   UNL     1      -1.305  -0.631  -0.107  0.00  0.00    -0.056 C 
ATOM     11  C   UNL     1      -1.221  -2.030  -0.721  0.00  0.00    +0.106 C 
ATOM     12  N   UNL     1       0.072  -0.127   0.051  0.00  0.00    +0.384 N 
ATOM     13  H   UNL     1       0.455  -0.472   0.939  0.00  0.00    -0.081 HD
ENDROOT
BRANCH   1  16
ATOM     14  C   UNL     1       1.805  -1.991  -5.124  0.00  0.00    +0.132 C 
ATOM     15  N   UNL     1       1.299  -0.670  -5.506  0.00  0.00    -0.296 N 
ATOM     16  C   UNL     1       0.044  -0.308  -5.175  0.00  0.00    +0.252 C 
ATOM     17  O   UNL     1      -0.410   0.747  -5.575  0.00  0.00    -0.270 OA
BRANCH  15  18
ATOM     18  C   UNL     1       2.157   0.256  -6.247  0.00  0.00    +0.143 C 
BRANCH  18  19
ATOM     19  C   UNL     1       2.930   1.112  -5.276  0.00  0.00    -0.023 A 
ATOM     20  C   UNL     1       2.414   2.317  -4.839  0.00  0.00    +0.013 A 
ATOM     21  C   UNL     1       3.132   3.059  -3.961  0.00  0.00    +0.045 A 
ATOM     22  S   UNL     1       4.592   2.057  -3.738  0.00  0.00    -0.105 S 
ATOM     23  C   UNL     1       4.144   0.713  -4.823  0.00  0.00    +0.050 A 
ENDBRANCH  18  19
ENDBRANCH  15  18
ENDBRANCH   1  16
BRANCH   2  24
ATOM     24  O   UNL     1      -1.894  -2.171  -6.281  0.00  0.00    -0.494 OA
ATOM     25  C   UNL     1      -2.775  -3.176  -6.787  0.00  0.00    +0.277 C 
ENDBRANCH   2  24
BRANCH  12  26
ATOM     26  C   UNL     1       0.071   1.352   0.071  0.00  0.00    -0.036 C 
BRANCH  26  27
ATOM     27  C   UNL     1      -0.616   1.822   1.327  0.00  0.00    +0.019 A 
ATOM     28  C   UNL     1      -1.980   2.067   1.323  0.00  0.00    +0.125 A 
ATOM     29  C   UNL     1      -2.611   2.495   2.482  0.00  0.00    +0.046 A 
ATOM     30  C   UNL     1      -1.879   2.688   3.638  0.00  0.00    +0.007 A 
ATOM     31  C   UNL     1      -0.518   2.449   3.644  0.00  0.00    +0.046 A 
ATOM     32  C   UNL     1       0.117   2.016   2.488  0.00  0.00    +0.125 A 
BRANCH  32  33
ATOM     33  O   UNL     1       1.456   1.782   2.495  0.00  0.00    -0.495 OA
ATOM     34  C   UNL     1       2.147   2.003   3.726  0.00  0.00    +0.277 C 
ENDBRANCH  32  33
BRANCH  28  35
ATOM     35  O   UNL     1      -2.700   1.883   0.185  0.00  0.00    -0.495 OA
ATOM     36  C   UNL     1      -4.101   2.155   0.253  0.00  0.00    +0.277 C 
ENDBRANCH  28  35
ENDBRANCH  26  27
ENDBRANCH  12  26
TORSDOF 8
