REMARK  Name = ZINC06803390
REMARK  10 active torsions:
REMARK  status: ('A' for Active; 'I' for Inactive)
REMARK    1  A    between atoms: C_1  and  C_2
REMARK    2  A    between atoms: C_2  and  C_3
REMARK    3  A    between atoms: C_3  and  C_5
REMARK    4  A    between atoms: C_3  and  N_17
REMARK    5  A    between atoms: N_7  and  C_8
REMARK    6  A    between atoms: C_9  and  C_16
REMARK    7  A    between atoms: C_11  and  C_15
REMARK    8  A    between atoms: C_13  and  C_14
REMARK    9  A    between atoms: C_24  and  C_32
REMARK   10  A    between atoms: C_29  and  C_31
REMARK                            x       y       z     vdW  Elec       q    Type
REMARK                         _______ _______ _______ _____ _____    ______ ____
ROOT
ATOM      1  C   UNL     1      -1.912  -0.504   4.207  0.00  0.00    +0.197 C 
ENDROOT
BRANCH   1   2
ATOM      2  N   UNL     1      -0.776  -0.256   3.315  0.00  0.00    -0.214 N 
ATOM      3  C   UNL     1      -0.478   1.007   2.935  0.00  0.00    +0.292 A 
ATOM      4  O   UNL     1      -1.141   1.951   3.324  0.00  0.00    -0.264 OA
ATOM      5  C   UNL     1       0.671   1.207   2.038  0.00  0.00    +0.115 A 
ATOM      6  C   UNL     1       1.220   2.320   1.486  0.00  0.00    +0.041 A 
ATOM      7  C   UNL     1       2.322   1.911   0.698  0.00  0.00    +0.001 A 
ATOM      8  C   UNL     1       3.249   2.606  -0.091  0.00  0.00    +0.013 A 
ATOM      9  C   UNL     1       4.226   1.920  -0.751  0.00  0.00    -0.050 A 
ATOM     10  C   UNL     1       4.312   0.536  -0.649  0.00  0.00    +0.005 A 
ATOM     11  C   UNL     1       3.414  -0.168   0.120  0.00  0.00    +0.027 A 
ATOM     12  C   UNL     1       2.407   0.509   0.803  0.00  0.00    +0.056 A 
ATOM     13  N   UNL     1       1.391   0.093   1.632  0.00  0.00    -0.291 N 
ATOM     14  C   UNL     1       1.006  -1.159   2.070  0.00  0.00    +0.132 A 
ATOM     15  N   UNL     1      -0.002  -1.325   2.856  0.00  0.00    -0.154 NA
ATOM     16  C   UNL     1       1.790  -2.365   1.621  0.00  0.00    +0.088 C 
ATOM     17  C   UNL     1       5.221   2.669  -1.599  0.00  0.00    +0.044 C 
ENDBRANCH   1   2
BRANCH   1  18
ATOM     18  C   UNL     1      -2.905  -1.404   3.518  0.00  0.00    +0.242 C 
ATOM     19  O   UNL     1      -2.686  -1.799   2.392  0.00  0.00    -0.273 OA
ATOM     20  N   UNL     1      -4.037  -1.769   4.152  0.00  0.00    -0.283 N 
ATOM     21  H   UNL     1      -4.188  -1.496   5.070  0.00  0.00    +0.155 HD
BRANCH  20  22
ATOM     22  C   UNL     1      -4.994  -2.542   3.485  0.00  0.00    +0.039 A 
ATOM     23  C   UNL     1      -5.477  -2.137   2.248  0.00  0.00    -0.029 A 
ATOM     24  C   UNL     1      -6.418  -2.904   1.590  0.00  0.00    +0.008 A 
ATOM     25  C   UNL     1      -6.887  -4.070   2.167  0.00  0.00    -0.050 A 
ATOM     26  C   UNL     1      -6.413  -4.473   3.402  0.00  0.00    +0.008 A 
ATOM     27  C   UNL     1      -5.468  -3.713   4.062  0.00  0.00    -0.029 A 
ATOM     28  C   UNL     1      -4.951  -4.153   5.408  0.00  0.00    +0.045 C 
ATOM     29  C   UNL     1      -7.918  -4.902   1.450  0.00  0.00    +0.044 C 
ATOM     30  C   UNL     1      -4.969  -0.864   1.620  0.00  0.00    +0.045 C 
ENDBRANCH  20  22
ENDBRANCH   1  18
BRANCH   1  32
ATOM     31  C   UNL     1      -0.505  -0.215   6.251  0.00  0.00    +0.006 C 
ATOM     32  C   UNL     1      -1.416  -1.178   5.488  0.00  0.00    +0.033 C 
ENDBRANCH   1  32
TORSDOF 4
