REMARK  Name = ZINC39710944
REMARK  9 active torsions:
REMARK  status: ('A' for Active; 'I' for Inactive)
REMARK    1  A    between atoms: C_1  and  C_2
REMARK    2  A    between atoms: C_8  and  C_14
REMARK    3  A    between atoms: C_14  and  C_16
REMARK    4  A    between atoms: C_14  and  N_27
REMARK    5  A    between atoms: N_21  and  C_22
REMARK    6  A    between atoms: N_27  and  C_28
REMARK    7  A    between atoms: N_27  and  C_35
REMARK    8  A    between atoms: C_28  and  C_29
REMARK    9  A    between atoms: C_35  and  C_36
REMARK                            x       y       z     vdW  Elec       q    Type
REMARK                         _______ _______ _______ _____ _____    ______ ____
ROOT
ATOM      1  C   UNL     1      -0.385  -2.010   4.045  0.00  0.00    -0.009 C 
ENDROOT
BRANCH   1   9
ATOM      2  C   UNL     1       1.865   1.411  -0.528  0.00  0.00    +0.045 C 
ATOM      3  C   UNL     1       1.850  -0.080  -0.311  0.00  0.00    -0.029 A 
ATOM      4  C   UNL     1       2.113  -0.914  -1.351  0.00  0.00    +0.005 A 
ATOM      5  C   UNL     1       2.117  -2.303  -1.219  0.00  0.00    +0.001 A 
ATOM      6  C   UNL     1       1.854  -2.901  -0.028  0.00  0.00    +0.009 A 
ATOM      7  C   UNL     1       1.563  -2.061   1.134  0.00  0.00    -0.007 A 
ATOM      8  C   UNL     1       1.294  -2.617   2.349  0.00  0.00    -0.006 C 
ATOM      9  C   UNL     1       1.003  -1.671   3.498  0.00  0.00    +0.088 C 
ATOM     10  C   UNL     1       1.035  -0.189   3.202  0.00  0.00    +0.223 C 
ATOM     11  O   UNL     1       0.809   0.616   4.087  0.00  0.00    -0.275 OA
ATOM     12  N   UNL     1       1.310   0.231   1.978  0.00  0.00    -0.284 N 
ATOM     13  C   UNL     1       1.571  -0.598   0.967  0.00  0.00    +0.043 A 
ATOM     14  H   UNL     1       1.325   1.186   1.809  0.00  0.00    +0.155 HD
ENDBRANCH   1   9
BRANCH   1  15
ATOM     15  C   UNL     1      -1.447  -1.643   3.006  0.00  0.00    +0.205 C 
ATOM     16  N   UNL     1      -1.127  -2.254   1.709  0.00  0.00    -0.152 NA
ATOM     17  N   UNL     1      -0.962  -1.360   0.876  0.00  0.00    -0.070 NA
ATOM     18  N   UNL     1      -1.126  -0.083   1.412  0.00  0.00    -0.179 N 
ATOM     19  N   UNL     1      -1.433  -0.188   2.746  0.00  0.00    -0.185 NA
ATOM     20  H   UNL     1      -1.037   0.748   0.920  0.00  0.00    +0.191 HD
BRANCH  19  21
ATOM     21  C   UNL     1      -2.743   0.411   3.035  0.00  0.00    +0.080 C 
ATOM     22  C   UNL     1      -3.790  -0.093   2.021  0.00  0.00    +0.021 C 
ATOM     23  C   UNL     1      -4.692   1.139   1.762  0.00  0.00    +0.002 C 
ATOM     24  C   UNL     1      -3.678   2.311   1.763  0.00  0.00    +0.002 C 
ATOM     25  C   UNL     1      -2.672   1.939   2.871  0.00  0.00    +0.021 C 
ENDBRANCH  19  21
ENDBRANCH   1  15
BRANCH   1  26
ATOM     26  N   UNL     1      -0.624  -1.249   5.279  0.00  0.00    +0.390 N 
ATOM     27  H   UNL     1      -0.658  -0.263   5.065  0.00  0.00    -0.080 HD
BRANCH  26  28
ATOM     28  C   UNL     1      -1.903  -1.665   5.871  0.00  0.00    -0.042 C 
BRANCH  28  29
ATOM     29  C   UNL     1      -1.913  -3.162   6.043  0.00  0.00    -0.064 A 
ATOM     30  C   UNL     1      -2.287  -3.976   4.991  0.00  0.00    +0.002 A 
ATOM     31  C   UNL     1      -2.297  -5.350   5.149  0.00  0.00    +0.000 A 
ATOM     32  C   UNL     1      -1.931  -5.909   6.359  0.00  0.00    +0.000 A 
ATOM     33  C   UNL     1      -1.556  -5.094   7.411  0.00  0.00    +0.000 A 
ATOM     34  C   UNL     1      -1.542  -3.721   7.252  0.00  0.00    +0.002 A 
ENDBRANCH  28  29
ENDBRANCH  26  28
BRANCH  26  35
ATOM     35  C   UNL     1       0.464  -1.507   6.232  0.00  0.00    -0.042 C 
BRANCH  35  36
ATOM     36  C   UNL     1       0.320  -0.589   7.418  0.00  0.00    -0.064 A 
ATOM     37  C   UNL     1       0.466   0.776   7.257  0.00  0.00    +0.004 A 
ATOM     38  C   UNL     1       0.334   1.619   8.344  0.00  0.00    +0.038 A 
ATOM     39  C   UNL     1       0.056   1.096   9.595  0.00  0.00    +0.123 A 
ATOM     40  C   UNL     1      -0.089  -0.272   9.756  0.00  0.00    +0.038 A 
ATOM     41  C   UNL     1       0.037  -1.112   8.666  0.00  0.00    +0.004 A 
ATOM     42  F   UNL     1      -0.072   1.919  10.659  0.00  0.00    -0.205 F 
ENDBRANCH  35  36
ENDBRANCH  26  35
ENDBRANCH   1  26
TORSDOF 8
