REMARK  Name = ZINC04198173
REMARK  9 active torsions:
REMARK  status: ('A' for Active; 'I' for Inactive)
REMARK    1  A    between atoms: C_1  and  C_2
REMARK    2  A    between atoms: C_2  and  C_3
REMARK    3  A    between atoms: C_2  and  N_4
REMARK    4  A    between atoms: N_4  and  C_5
REMARK    5  A    between atoms: C_5  and  C_6
REMARK    6  A    between atoms: C_10  and  O_12
REMARK    7  A    between atoms: O_12  and  S_13
REMARK    8  A    between atoms: S_13  and  C_16
REMARK    9  A    between atoms: N_19  and  C_20
REMARK                            x       y       z     vdW  Elec       q    Type
REMARK                         _______ _______ _______ _____ _____    ______ ____
ROOT
ATOM      1  N   UNL     1      -0.061   5.862  -1.385  0.00  0.00    -0.279 N 
ATOM      2  C   UNL     1       1.167   6.037  -1.911  0.00  0.00    +0.303 C 
ATOM      3  O   UNL     1       2.152   5.700  -1.283  0.00  0.00    -0.253 OA
ATOM      4  N   UNL     1       1.304   6.586  -3.135  0.00  0.00    -0.294 N 
ATOM      5  H   UNL     1       0.525   6.920  -3.606  0.00  0.00    +0.151 HD
ENDROOT
BRANCH   4   6
ATOM      6  C   UNL     1       2.629   6.678  -3.752  0.00  0.00    +0.037 C 
ATOM      7  C   UNL     1       3.548   7.520  -2.865  0.00  0.00    +0.029 C 
ATOM      8  C   UNL     1       4.932   7.616  -3.510  0.00  0.00    -0.008 C 
ATOM      9  C   UNL     1       4.809   8.274  -4.886  0.00  0.00    +0.007 C 
ATOM     10  C   UNL     1       3.890   7.432  -5.774  0.00  0.00    -0.008 C 
ATOM     11  C   UNL     1       2.506   7.336  -5.128  0.00  0.00    +0.029 C 
ATOM     12  C   UNL     1       4.478   6.028  -5.930  0.00  0.00    +0.007 C 
ATOM     13  C   UNL     1       4.602   5.371  -4.554  0.00  0.00    -0.008 C 
ATOM     14  C   UNL     1       5.521   6.213  -3.667  0.00  0.00    +0.007 C 
ATOM     15  C   UNL     1       3.218   5.274  -3.909  0.00  0.00    +0.029 C 
ENDBRANCH   4   6
BRANCH   1  17
ATOM     16  C   UNL     1      -1.297   7.673  -2.468  0.00  0.00    +0.028 C 
ATOM     17  C   UNL     1      -1.250   6.170  -2.182  0.00  0.00    +0.072 C 
ATOM     18  C   UNL     1      -1.192   5.401  -3.503  0.00  0.00    +0.028 C 
ENDBRANCH   1  17
BRANCH   1  19
ATOM     19  C   UNL     1      -0.206   5.363  -0.015  0.00  0.00    +0.144 C 
BRANCH  19  20
ATOM     20  C   UNL     1      -0.274   3.858  -0.033  0.00  0.00    -0.027 A 
ATOM     21  C   UNL     1       0.886   3.112   0.065  0.00  0.00    +0.005 A 
ATOM     22  C   UNL     1       0.827   1.731   0.049  0.00  0.00    +0.004 A 
ATOM     23  C   UNL     1      -0.393   1.093  -0.066  0.00  0.00    +0.048 A 
ATOM     24  C   UNL     1      -1.558   1.838  -0.170  0.00  0.00    +0.157 A 
ATOM     25  C   UNL     1      -1.496   3.224  -0.148  0.00  0.00    +0.053 A 
BRANCH  24  26
ATOM     26  O   UNL     1      -2.759   1.212  -0.288  0.00  0.00    -0.346 OA
BRANCH  26  27
ATOM     27  S   UNL     1      -3.436   0.916   1.042  0.00  0.00    +0.118 S 
ATOM     28  O   UNL     1      -4.514   0.049   0.715  0.00  0.00    -0.137 OA
ATOM     29  O   UNL     1      -2.386   0.477   1.894  0.00  0.00    -0.137 OA
ATOM     30  C   UNL     1      -4.072   2.517   1.609  0.00  0.00    +0.242 C 
ENDBRANCH  26  27
ENDBRANCH  24  26
ENDBRANCH  19  20
ENDBRANCH   1  19
TORSDOF 6
