REMARK  Name = ZINC12053110
REMARK  6 active torsions:
REMARK  status: ('A' for Active; 'I' for Inactive)
REMARK    1  A    between atoms: C_1  and  C_2
REMARK    2  A    between atoms: C_6  and  S_31
REMARK    3  A    between atoms: C_16  and  N_63
REMARK    4  A    between atoms: C_20  and  C_21
REMARK    5  A    between atoms: C_20  and  N_63
REMARK    6  A    between atoms: S_31  and  C_34
REMARK                            x       y       z     vdW  Elec       q    Type
REMARK                         _______ _______ _______ _____ _____    ______ ____
ROOT
ATOM      1  C   UNL     1      -3.760   3.158   0.051  0.00  0.00    +0.066 C 
ATOM      2  C   UNL     1      -2.428   3.864   0.043  0.00  0.00    +0.051 A 
ATOM      3  C   UNL     1      -1.226   3.133   0.030  0.00  0.00    +0.022 A 
ATOM      4  C   UNL     1      -1.207   1.731   0.017  0.00  0.00    +0.013 A 
ATOM      5  C   UNL     1      -0.013   1.076   0.008  0.00  0.00    +0.028 A 
ATOM      6  C   UNL     1       1.190   1.779   0.000  0.00  0.00    +0.090 A 
ATOM      7  C   UNL     1       1.209   3.141   0.007  0.00  0.00    +0.055 A 
ATOM      8  C   UNL     1      -0.002   3.850   0.022  0.00  0.00    +0.078 A 
ATOM      9  N   UNL     1      -0.039   5.188   0.029  0.00  0.00    -0.214 NA
ATOM     10  C   UNL     1      -1.196   5.820   0.042  0.00  0.00    +0.219 A 
ATOM     11  N   UNL     1      -2.364   5.179   0.049  0.00  0.00    -0.219 NA
ATOM     12  N   UNL     1      -1.198   7.203   0.048  0.00  0.00    -0.300 N 
ATOM     13  C   UNL     1      -0.438   7.739  -1.101  0.00  0.00    +0.108 C 
ATOM     14  C   UNL     1      -0.880   9.070  -1.502  0.00  0.00    +0.017 C 
ATOM     15  C   UNL     1      -0.691  10.099  -0.365  0.00  0.00    -0.014 C 
ATOM     16  C   UNL     1      -1.790   9.914   0.645  0.00  0.00    -0.070 C 
ATOM     17  C   UNL     1      -1.405   8.950   1.787  0.00  0.00    +0.003 C 
ATOM     18  C   UNL     1      -0.639   7.715   1.276  0.00  0.00    +0.106 C 
ENDROOT
BRANCH   6  19
ATOM     19  S   UNL     1       2.712   0.892  -0.018  0.00  0.00    -0.006 S 
ATOM     20  O   UNL     1       3.653   1.773   0.580  0.00  0.00    -0.170 OA
ATOM     21  O   UNL     1       2.410  -0.361   0.581  0.00  0.00    -0.170 OA
ATOM     22  C   UNL     1       3.099   0.666  -1.776  0.00  0.00    +0.200 C 
ENDBRANCH   6  19
BRANCH  16  23
ATOM     23  N   UNL     1      -2.119  11.230   1.224  0.00  0.00    +0.384 N 
ATOM     24  H   UNL     1      -2.020  11.952   0.501  0.00  0.00    -0.085 HD
ATOM     25  H   UNL     1      -1.474  11.431   1.998  0.00  0.00    -0.085 HD
BRANCH  23  26
ATOM     26  C   UNL     1      -3.504  11.235   1.731  0.00  0.00    -0.046 C 
BRANCH  26  27
ATOM     27  C   UNL     1      -3.811  12.590   2.315  0.00  0.00    -0.057 A 
ATOM     28  C   UNL     1      -3.767  12.780   3.663  0.00  0.00    +0.002 A 
ATOM     29  C   UNL     1      -4.044  14.026   4.221  0.00  0.00    +0.001 A 
ATOM     30  C   UNL     1      -4.375  15.088   3.436  0.00  0.00    +0.008 A 
ATOM     31  C   UNL     1      -4.435  14.929   2.041  0.00  0.00    -0.018 A 
ATOM     32  C   UNL     1      -4.150  13.662   1.473  0.00  0.00    -0.017 A 
ATOM     33  C   UNL     1      -4.210  13.504   0.078  0.00  0.00    +0.009 A 
ATOM     34  C   UNL     1      -4.540  14.565  -0.707  0.00  0.00    +0.001 A 
ATOM     35  C   UNL     1      -4.821  15.811  -0.148  0.00  0.00    +0.001 A 
ATOM     36  C   UNL     1      -4.773  16.002   1.198  0.00  0.00    +0.008 A 
ENDBRANCH  26  27
ENDBRANCH  23  26
ENDBRANCH  16  23
TORSDOF 4
