REMARK  Name = ZINC08791352
REMARK  8 active torsions:
REMARK  status: ('A' for Active; 'I' for Inactive)
REMARK    1  A    between atoms: C_1  and  C_2
REMARK    2  A    between atoms: C_13  and  C_15
REMARK    3  A    between atoms: C_15  and  C_16
REMARK    4  A    between atoms: N_28  and  C_31
REMARK    5  A    between atoms: C_31  and  C_32
REMARK    6  A    between atoms: C_32  and  C_33
REMARK    7  A    between atoms: C_33  and  O_34
REMARK    8  A    between atoms: O_34  and  C_35
REMARK                            x       y       z     vdW  Elec       q    Type
REMARK                         _______ _______ _______ _____ _____    ______ ____
ROOT
ATOM      1  C   UNL     1       3.111   0.863  -4.375  0.00  0.00    +0.044 C 
ATOM      2  C   UNL     1       2.757  -0.556  -4.011  0.00  0.00    -0.050 A 
ATOM      3  C   UNL     1       2.926  -1.571  -4.934  0.00  0.00    +0.005 A 
ATOM      4  C   UNL     1       2.603  -2.871  -4.606  0.00  0.00    +0.024 A 
ATOM      5  C   UNL     1       2.103  -3.172  -3.341  0.00  0.00    +0.036 A 
ATOM      6  C   UNL     1       1.937  -2.142  -2.420  0.00  0.00    -0.027 A 
ATOM      7  C   UNL     1       2.261  -0.845  -2.752  0.00  0.00    +0.008 A 
ATOM      8  C   UNL     1       1.390  -2.786  -1.178  0.00  0.00    +0.050 C 
ATOM      9  C   UNL     1       0.030  -2.195  -0.787  0.00  0.00    +0.088 C 
ATOM     10  C   UNL     1       0.034  -2.202   0.767  0.00  0.00    +0.073 C 
ATOM     11  C   UNL     1       1.397  -2.811   1.157  0.00  0.00    -0.053 C 
ATOM     12  C   UNL     1       0.022  -0.734   1.123  0.00  0.00    +0.224 C 
ATOM     13  O   UNL     1       0.030  -0.286   2.250  0.00  0.00    -0.275 OA
ATOM     14  N   UNL     1       0.002  -0.004   0.002  0.00  0.00    -0.242 N 
ATOM     15  C   UNL     1      -0.004  -0.722  -1.127  0.00  0.00    +0.225 C 
ATOM     16  O   UNL     1      -0.031  -0.262  -2.249  0.00  0.00    -0.275 OA
ATOM     17  C   UNL     1       1.277  -4.249  -1.514  0.00  0.00    +0.211 C 
ATOM     18  O   UNL     1       0.875  -5.130  -0.784  0.00  0.00    -0.277 OA
ATOM     19  N   UNL     1       1.710  -4.389  -2.781  0.00  0.00    -0.286 N 
ATOM     20  H   UNL     1       1.745  -5.237  -3.251  0.00  0.00    +0.155 HD
ATOM     21  N   UNL     1       2.239  -2.578  -0.018  0.00  0.00    +0.394 N 
ATOM     22  H   UNL     1       2.600  -1.616  -0.011  0.00  0.00    -0.083 HD
ATOM     23  H   UNL     1       3.025  -3.238  -0.029  0.00  0.00    -0.083 HD
ENDROOT
BRANCH  11  24
ATOM     24  C   UNL     1       1.958  -2.110   2.397  0.00  0.00    +0.022 C 
BRANCH  24  25
ATOM     25  C   UNL     1       3.226  -2.798   2.833  0.00  0.00    -0.024 A 
ATOM     26  C   UNL     1       3.333  -3.758   3.765  0.00  0.00    +0.087 A 
ATOM     27  N   UNL     1       4.641  -4.142   3.890  0.00  0.00    -0.360 N 
ATOM     28  H   UNL     1       4.965  -4.822   4.502  0.00  0.00    +0.165 HD
ATOM     29  C   UNL     1       5.426  -3.420   3.020  0.00  0.00    +0.047 A 
ATOM     30  C   UNL     1       4.574  -2.551   2.315  0.00  0.00    +0.003 A 
ATOM     31  C   UNL     1       5.101  -1.683   1.358  0.00  0.00    +0.010 A 
ATOM     32  C   UNL     1       6.444  -1.690   1.101  0.00  0.00    +0.001 A 
ATOM     33  C   UNL     1       7.288  -2.550   1.790  0.00  0.00    +0.002 A 
ATOM     34  C   UNL     1       6.789  -3.411   2.743  0.00  0.00    +0.026 A 
ENDBRANCH  24  25
ENDBRANCH  11  24
BRANCH  14  35
ATOM     35  C   UNL     1      -0.018   1.461   0.010  0.00  0.00    +0.118 C 
BRANCH  35  36
ATOM     36  C   UNL     1       1.418   1.990  -0.001  0.00  0.00    +0.047 C 
BRANCH  36  37
ATOM     37  C   UNL     1       1.397   3.520   0.008  0.00  0.00    +0.161 C 
BRANCH  37  38
ATOM     38  O   UNL     1       2.737   4.015  -0.003  0.00  0.00    -0.383 OA
ATOM     39  C   UNL     1       2.831   5.441   0.004  0.00  0.00    +0.193 C 
ENDBRANCH  37  38
ENDBRANCH  36  37
ENDBRANCH  35  36
ENDBRANCH  14  35
TORSDOF 6
