REMARK  Name = ZINC23196931
REMARK  15 active torsions:
REMARK  status: ('A' for Active; 'I' for Inactive)
REMARK    1  A    between atoms: C_1  and  C_2
REMARK    2  A    between atoms: C_2  and  N_3
REMARK    3  A    between atoms: N_3  and  C_4
REMARK    4  A    between atoms: N_3  and  C_6
REMARK    5  A    between atoms: C_4  and  C_5
REMARK    6  A    between atoms: C_6  and  C_8
REMARK    7  A    between atoms: C_6  and  C_15
REMARK    8  A    between atoms: C_8  and  C_9
REMARK    9  A    between atoms: C_15  and  N_16
REMARK   10  A    between atoms: C_17  and  C_19
REMARK   11  A    between atoms: C_19  and  N_20
REMARK   12  A    between atoms: C_23  and  C_27
REMARK   13  A    between atoms: C_23  and  C_28
REMARK   14  A    between atoms: C_31  and  O_34
REMARK   15  A    between atoms: O_34  and  C_35
REMARK                            x       y       z     vdW  Elec       q    Type
REMARK                         _______ _______ _______ _____ _____    ______ ____
ROOT
ATOM      1  N   UNL     1      -0.912  -2.187   2.967  0.00  0.00    -0.316 N 
ATOM      2  C   UNL     1      -0.863  -3.466   3.389  0.00  0.00    +0.231 C 
ATOM      3  O   UNL     1      -0.419  -4.328   2.661  0.00  0.00    -0.274 OA
ATOM      4  H   UNL     1      -1.236  -1.392   3.655  0.00  0.00    +0.149 HD
ENDROOT
BRANCH   1   5
ATOM      5  C   UNL     1      -0.534  -1.855   1.591  0.00  0.00    +0.089 C 
BRANCH   5   6
ATOM      6  C   UNL     1      -0.607  -0.339   1.394  0.00  0.00    -0.047 C 
BRANCH   6   7
ATOM      7  N   UNL     1      -1.986   0.117   1.609  0.00  0.00    +0.382 N 
ATOM      8  H   UNL     1      -2.176   0.955   0.922  0.00  0.00    -0.081 HD
BRANCH   7  10
ATOM      9  C   UNL     1      -3.064  -1.105  -0.219  0.00  0.00    -0.017 C 
ATOM     10  C   UNL     1      -2.948  -0.949   1.299  0.00  0.00    -0.082 C 
ENDBRANCH   7  10
BRANCH   7  11
ATOM     11  C   UNL     1      -2.170   0.609   2.981  0.00  0.00    -0.082 C 
ATOM     12  C   UNL     1      -1.548   2.001   3.112  0.00  0.00    -0.017 C 
ENDBRANCH   7  11
ENDBRANCH   6   7
BRANCH   6  13
ATOM     13  C   UNL     1      -0.170   0.011  -0.030  0.00  0.00    +0.021 C 
BRANCH  13  14
ATOM     14  C   UNL     1      -0.143   1.509  -0.193  0.00  0.00    -0.049 A 
ATOM     15  C   UNL     1      -1.234   2.166  -0.731  0.00  0.00    +0.003 A 
ATOM     16  C   UNL     1      -1.211   3.540  -0.876  0.00  0.00    +0.000 A 
ATOM     17  C   UNL     1      -0.093   4.257  -0.493  0.00  0.00    +0.000 A 
ATOM     18  C   UNL     1       1.000   3.600   0.040  0.00  0.00    +0.000 A 
ATOM     19  C   UNL     1       0.975   2.226   0.190  0.00  0.00    +0.003 A 
ENDBRANCH  13  14
ENDBRANCH   6  13
ENDBRANCH   5   6
ENDBRANCH   1   5
BRANCH   2  20
ATOM     20  C   UNL     1      -1.360  -3.824   4.766  0.00  0.00    +0.213 C 
BRANCH  20  21
ATOM     21  N   UNL     1      -1.089  -5.239   5.030  0.00  0.00    -0.215 N 
ATOM     22  C   UNL     1       0.044  -5.701   5.595  0.00  0.00    +0.251 C 
ATOM     23  O   UNL     1       0.996  -5.049   5.965  0.00  0.00    -0.272 OA
ATOM     24  C   UNL     1      -0.120  -7.206   5.670  0.00  0.00    +0.135 C 
ATOM     25  N   UNL     1      -1.451  -7.439   5.083  0.00  0.00    -0.281 N 
ATOM     26  C   UNL     1      -1.939  -6.232   4.745  0.00  0.00    +0.310 C 
ATOM     27  O   UNL     1      -3.029  -6.063   4.235  0.00  0.00    -0.252 OA
ATOM     28  C   UNL     1      -0.077  -7.681   7.124  0.00  0.00    +0.047 C 
ATOM     29  H   UNL     1      -1.844  -8.463   5.001  0.00  0.00    +0.152 HD
BRANCH  24  30
ATOM     30  C   UNL     1       0.946  -7.896   4.857  0.00  0.00    -0.015 A 
ATOM     31  C   UNL     1       2.184  -7.303   4.696  0.00  0.00    +0.010 A 
ATOM     32  C   UNL     1       3.164  -7.936   3.957  0.00  0.00    +0.046 A 
ATOM     33  C   UNL     1       2.901  -9.163   3.366  0.00  0.00    +0.120 A 
ATOM     34  C   UNL     1       1.656  -9.754   3.525  0.00  0.00    +0.046 A 
ATOM     35  C   UNL     1       0.681  -9.120   4.269  0.00  0.00    +0.010 A 
BRANCH  33  36
ATOM     36  O   UNL     1       3.862  -9.786   2.634  0.00  0.00    -0.495 OA
ATOM     37  C   UNL     1       5.120  -9.119   2.514  0.00  0.00    +0.277 C 
ENDBRANCH  33  36
ENDBRANCH  24  30
ENDBRANCH  20  21
ENDBRANCH   2  20
TORSDOF 11
