REMARK  Name = ZINC14184744
REMARK  9 active torsions:
REMARK  status: ('A' for Active; 'I' for Inactive)
REMARK    1  A    between atoms: C_1  and  O_2
REMARK    2  A    between atoms: O_2  and  C_3
REMARK    3  A    between atoms: C_6  and  C_9
REMARK    4  A    between atoms: C_9  and  C_11
REMARK    5  A    between atoms: C_9  and  N_66
REMARK    6  A    between atoms: C_11  and  N_12
REMARK    7  A    between atoms: C_13  and  C_15
REMARK    8  A    between atoms: N_20  and  S_22
REMARK    9  A    between atoms: S_22  and  C_25
REMARK                            x       y       z     vdW  Elec       q    Type
REMARK                         _______ _______ _______ _____ _____    ______ ____
ROOT
ATOM      1  N   UNL     1       3.357   0.440   7.732  0.00  0.00    -0.316 N 
ATOM      2  C   UNL     1       4.414   1.089   8.259  0.00  0.00    +0.217 C 
ATOM      3  O   UNL     1       4.905   2.027   7.667  0.00  0.00    -0.275 OA
ATOM      4  H   UNL     1       2.964  -0.310   8.206  0.00  0.00    +0.149 HD
ENDROOT
BRANCH   2   5
ATOM      5  C   UNL     1       4.987   0.650   9.582  0.00  0.00    +0.091 C 
ATOM      6  C   UNL     1       3.912   0.761  10.665  0.00  0.00    +0.015 C 
ATOM      7  C   UNL     1       4.482   0.284  12.003  0.00  0.00    +0.018 C 
ATOM      8  C   UNL     1       5.662   1.177  12.398  0.00  0.00    +0.109 C 
ATOM      9  N   UNL     1       6.635   1.190  11.297  0.00  0.00    -0.176 NA
ATOM     10  C   UNL     1       6.172   1.547   9.949  0.00  0.00    +0.122 C 
BRANCH   9  11
ATOM     11  S   UNL     1       8.224   0.810  11.571  0.00  0.00    +0.061 S 
ATOM     12  O   UNL     1       8.253   0.004  12.741  0.00  0.00    -0.153 OA
ATOM     13  O   UNL     1       8.755   0.369  10.329  0.00  0.00    -0.153 OA
BRANCH  11  14
ATOM     14  C   UNL     1       9.057   2.310  11.971  0.00  0.00    +0.106 A 
ATOM     15  C   UNL     1       9.630   3.071  10.969  0.00  0.00    +0.031 A 
ATOM     16  C   UNL     1      10.279   4.250  11.281  0.00  0.00    +0.040 A 
ATOM     17  C   UNL     1      10.365   4.664  12.600  0.00  0.00    +0.124 A 
ATOM     18  C   UNL     1       9.796   3.899  13.603  0.00  0.00    +0.040 A 
ATOM     19  C   UNL     1       9.142   2.723  13.288  0.00  0.00    +0.031 A 
ATOM     20  F   UNL     1      11.005   5.814  12.907  0.00  0.00    -0.205 F 
ENDBRANCH  11  14
ENDBRANCH   9  11
ENDBRANCH   2   5
BRANCH   1  21
ATOM     21  C   UNL     1       2.801   0.867   6.446  0.00  0.00    +0.093 C 
BRANCH  21  22
ATOM     22  C   UNL     1       1.539   0.058   6.142  0.00  0.00    -0.020 C 
BRANCH  22  26
ATOM     23  C   UNL     1      -1.479   0.986   9.022  0.00  0.00    +0.120 A 
ATOM     24  C   UNL     1      -1.255   1.838   7.951  0.00  0.00    +0.046 A 
ATOM     25  C   UNL     1      -0.275   1.539   7.025  0.00  0.00    +0.005 A 
ATOM     26  C   UNL     1       0.475   0.385   7.158  0.00  0.00    -0.059 A 
ATOM     27  C   UNL     1       0.250  -0.469   8.222  0.00  0.00    +0.005 A 
ATOM     28  C   UNL     1      -0.725  -0.172   9.154  0.00  0.00    +0.046 A 
BRANCH  23  30
ATOM     29  C   UNL     1      -3.175   2.489   9.739  0.00  0.00    +0.277 C 
ATOM     30  O   UNL     1      -2.438   1.281   9.938  0.00  0.00    -0.495 OA
ENDBRANCH  23  30
ENDBRANCH  22  26
BRANCH  22  35
ATOM     31  C   UNL     1       2.087   0.109   3.770  0.00  0.00    -0.078 C 
ATOM     32  C   UNL     1       1.266   0.008   2.460  0.00  0.00    -0.020 C 
ATOM     33  C   UNL     1      -0.032  -0.694   2.918  0.00  0.00    -0.020 C 
ATOM     34  C   UNL     1      -0.117  -0.433   4.434  0.00  0.00    -0.078 C 
ATOM     35  N   UNL     1       1.045   0.389   4.771  0.00  0.00    +0.385 N 
ATOM     36  H   UNL     1       0.789   1.382   4.737  0.00  0.00    -0.081 HD
ENDBRANCH  22  35
ENDBRANCH  21  22
ENDBRANCH   1  21
TORSDOF 8
