REMARK  Name = ZINC09408990
REMARK  9 active torsions:
REMARK  status: ('A' for Active; 'I' for Inactive)
REMARK    1  A    between atoms: C_1  and  C_2
REMARK    2  A    between atoms: C_2  and  C_3
REMARK    3  A    between atoms: C_3  and  O_4
REMARK    4  A    between atoms: O_4  and  C_5
REMARK    5  A    between atoms: C_8  and  C_11
REMARK    6  A    between atoms: C_14  and  C_28
REMARK    7  A    between atoms: N_21  and  C_22
REMARK    8  A    between atoms: C_22  and  C_23
REMARK    9  A    between atoms: C_33  and  O_34
REMARK                            x       y       z     vdW  Elec       q    Type
REMARK                         _______ _______ _______ _____ _____    ______ ____
ROOT
ATOM      1  C   UNL     1      -5.918  -4.641  -0.138  0.00  0.00    +0.142 C 
ATOM      2  C   UNL     1      -6.592  -4.979  -1.440  0.00  0.00    +0.035 A 
ATOM      3  C   UNL     1      -7.106  -4.519  -2.656  0.00  0.00    +0.102 A 
ATOM      4  N   UNL     1      -7.574  -5.565  -3.309  0.00  0.00    -0.173 NA
ATOM      5  N   UNL     1      -7.405  -6.640  -2.625  0.00  0.00    -0.272 N 
ATOM      6  H   UNL     1      -7.672  -7.529  -2.909  0.00  0.00    +0.189 HD
ATOM      7  C   UNL     1      -6.794  -6.346  -1.439  0.00  0.00    +0.126 A 
ATOM      8  C   UNL     1      -6.272  -6.894  -0.182  0.00  0.00    +0.266 C 
ATOM      9  O   UNL     1      -6.299  -8.070   0.127  0.00  0.00    -0.268 OA
ATOM     10  N   UNL     1      -5.761  -5.910   0.583  0.00  0.00    -0.278 N 
ENDROOT
BRANCH   1  14
ATOM     11  C   UNL     1      -2.092  -2.886  -0.876  0.00  0.00    +0.121 A 
ATOM     12  C   UNL     1      -2.310  -4.225  -1.165  0.00  0.00    +0.046 A 
ATOM     13  C   UNL     1      -3.547  -4.790  -0.926  0.00  0.00    +0.009 A 
ATOM     14  C   UNL     1      -4.569  -4.022  -0.398  0.00  0.00    -0.022 A 
ATOM     15  C   UNL     1      -4.355  -2.687  -0.109  0.00  0.00    +0.009 A 
ATOM     16  C   UNL     1      -3.117  -2.119  -0.342  0.00  0.00    +0.046 A 
BRANCH  11  17
ATOM     17  O   UNL     1      -0.875  -2.328  -1.110  0.00  0.00    -0.492 OA
BRANCH  17  18
ATOM     18  C   UNL     1       0.133  -3.177  -1.662  0.00  0.00    +0.229 C 
BRANCH  18  20
ATOM     19  C   UNL     1       2.503  -3.289  -2.445  0.00  0.00    +0.007 C 
ATOM     20  C   UNL     1       1.423  -2.379  -1.854  0.00  0.00    +0.038 C 
ENDBRANCH  18  20
ENDBRANCH  17  18
ENDBRANCH  11  17
ENDBRANCH   1  14
BRANCH   3  21
ATOM     21  C   UNL     1      -7.124  -3.111  -3.126  0.00  0.00    +0.044 A 
ATOM     22  C   UNL     1      -6.707  -2.086  -2.281  0.00  0.00    +0.014 A 
ATOM     23  C   UNL     1      -6.725  -0.779  -2.722  0.00  0.00    +0.001 A 
ATOM     24  C   UNL     1      -7.156  -0.481  -4.003  0.00  0.00    +0.004 A 
ATOM     25  C   UNL     1      -7.572  -1.491  -4.850  0.00  0.00    +0.046 A 
ATOM     26  C   UNL     1      -7.553  -2.809  -4.421  0.00  0.00    +0.126 A 
BRANCH  26  27
ATOM     27  O   UNL     1      -7.956  -3.803  -5.255  0.00  0.00    -0.506 OA
ATOM     28  H   UNL     1      -8.901  -4.002  -5.202  0.00  0.00    +0.292 HD
ENDBRANCH  26  27
ENDBRANCH   3  21
BRANCH  10  29
ATOM     29  C   UNL     1      -5.153  -6.077   1.905  0.00  0.00    +0.183 C 
BRANCH  29  30
ATOM     30  C   UNL     1      -6.215  -5.946   2.966  0.00  0.00    +0.122 A 
ATOM     31  C   UNL     1      -6.949  -6.952   3.474  0.00  0.00    +0.046 A 
ATOM     32  C   UNL     1      -7.816  -6.383   4.435  0.00  0.00    +0.041 A 
ATOM     33  C   UNL     1      -7.559  -5.063   4.458  0.00  0.00    +0.195 A 
ATOM     34  O   UNL     1      -6.585  -4.805   3.571  0.00  0.00    -0.466 OA
ENDBRANCH  29  30
ENDBRANCH  10  29
TORSDOF 8
