REMARK  Name = ZINC21246986
REMARK  3 active torsions:
REMARK  status: ('A' for Active; 'I' for Inactive)
REMARK    1  A    between atoms: C_1  and  C_2
REMARK    2  A    between atoms: C_5  and  C_8
REMARK    3  A    between atoms: C_13  and  C_23
REMARK                            x       y       z     vdW  Elec       q    Type
REMARK                         _______ _______ _______ _____ _____    ______ ____
ROOT
ATOM      1  C   UNL     1       3.230   1.286  -4.238  0.00  0.00    +0.032 C 
ATOM      2  C   UNL     1       3.548  -0.079  -3.630  0.00  0.00    +0.059 C 
ATOM      3  C   UNL     1       3.019  -0.151  -2.208  0.00  0.00    +0.017 C 
ATOM      4  C   UNL     1       2.967   0.953  -1.442  0.00  0.00    +0.036 C 
ATOM      5  C   UNL     1       2.474   1.019  -0.017  0.00  0.00    +0.136 C 
ATOM      6  N   UNL     1       2.278  -0.270   0.611  0.00  0.00    -0.331 N 
ATOM      7  C   UNL     1       1.312  -1.158   0.147  0.00  0.00    +0.049 A 
ATOM      8  C   UNL     1       0.190  -1.467   0.899  0.00  0.00    +0.025 A 
ATOM      9  C   UNL     1      -0.798  -2.264   0.350  0.00  0.00    +0.002 A 
ATOM     10  C   UNL     1      -0.670  -2.751  -0.939  0.00  0.00    +0.002 A 
ATOM     11  C   UNL     1       0.460  -2.461  -1.685  0.00  0.00    +0.025 A 
ATOM     12  C   UNL     1       1.458  -1.679  -1.130  0.00  0.00    +0.052 A 
ATOM     13  N   UNL     1       2.638  -1.389  -1.804  0.00  0.00    -0.316 N 
ATOM     14  C   UNL     1       3.396   2.198  -1.958  0.00  0.00    +0.163 C 
ATOM     15  O   UNL     1       3.357   3.177  -1.238  0.00  0.00    -0.292 OA
ATOM     16  C   UNL     1       3.898   2.353  -3.362  0.00  0.00    +0.088 C 
ATOM     17  H   UNL     1       2.899  -0.564   1.470  0.00  0.00    +0.147 HD
ATOM     18  H   UNL     1       3.284  -2.257  -2.006  0.00  0.00    +0.152 HD
ENDROOT
BRANCH   5  19
ATOM     19  C   UNL     1       1.163   1.762   0.000  0.00  0.00    -0.015 A 
ATOM     20  C   UNL     1       0.457   1.931  -1.151  0.00  0.00    +0.006 A 
ATOM     21  C   UNL     1      -0.753   2.621  -1.156  0.00  0.00    +0.001 A 
ATOM     22  C   UNL     1      -1.272   3.135  -0.007  0.00  0.00    +0.008 A 
ATOM     23  C   UNL     1      -0.572   2.981   1.201  0.00  0.00    -0.018 A 
ATOM     24  C   UNL     1       0.663   2.284   1.205  0.00  0.00    -0.013 A 
ATOM     25  C   UNL     1       1.363   2.131   2.414  0.00  0.00    +0.009 A 
ATOM     26  C   UNL     1       0.848   2.650   3.561  0.00  0.00    +0.001 A 
ATOM     27  C   UNL     1      -0.366   3.335   3.557  0.00  0.00    +0.001 A 
ATOM     28  C   UNL     1      -1.072   3.503   2.406  0.00  0.00    +0.008 A 
ENDBRANCH   5  19
BRANCH   1  33
ATOM     29  C   UNL     1       5.328   1.571  -9.615  0.00  0.00    +0.044 C 
ATOM     30  C   UNL     1       4.781   1.497  -8.213  0.00  0.00    -0.050 A 
ATOM     31  C   UNL     1       3.430   1.684  -7.987  0.00  0.00    +0.003 A 
ATOM     32  C   UNL     1       2.928   1.616  -6.701  0.00  0.00    +0.004 A 
ATOM     33  C   UNL     1       3.777   1.361  -5.640  0.00  0.00    -0.043 A 
ATOM     34  C   UNL     1       5.129   1.179  -5.865  0.00  0.00    +0.004 A 
ATOM     35  C   UNL     1       5.630   1.242  -7.152  0.00  0.00    +0.003 A 
ENDBRANCH   1  33
TORSDOF 2
