REMARK  Name = ZINC24596884
REMARK  11 active torsions:
REMARK  status: ('A' for Active; 'I' for Inactive)
REMARK    1  A    between atoms: C_1  and  C_2
REMARK    2  A    between atoms: C_9  and  N_17
REMARK    3  A    between atoms: C_10  and  C_11
REMARK    4  A    between atoms: C_11  and  O_13
REMARK    5  A    between atoms: O_13  and  C_14
REMARK    6  A    between atoms: C_14  and  C_15
REMARK    7  A    between atoms: C_14  and  C_16
REMARK    8  A    between atoms: C_18  and  C_20
REMARK    9  A    between atoms: C_20  and  C_22
REMARK   10  A    between atoms: C_20  and  N_23
REMARK   11  A    between atoms: C_29  and  C_31
REMARK                            x       y       z     vdW  Elec       q    Type
REMARK                         _______ _______ _______ _____ _____    ______ ____
ROOT
ATOM      1  N   UNL     1      -2.363  -5.877   0.860  0.00  0.00    -0.281 N 
ATOM      2  C   UNL     1      -3.555  -6.216   0.330  0.00  0.00    +0.204 C 
ATOM      3  O   UNL     1      -4.204  -5.392  -0.280  0.00  0.00    -0.277 OA
ATOM      4  H   UNL     1      -1.775  -6.624   1.413  0.00  0.00    +0.155 HD
ENDROOT
BRANCH   1  12
ATOM      5  C   UNL     1       0.051   1.473  -0.297  0.00  0.00    +0.008 C 
ATOM      6  C   UNL     1       0.065  -0.049  -0.141  0.00  0.00    -0.009 C 
ATOM      7  C   UNL     1       0.597  -0.418   1.247  0.00  0.00    +0.008 C 
ATOM      8  C   UNL     1       0.848  -1.925   1.323  0.00  0.00    +0.037 C 
ATOM      9  C   UNL     1      -0.414  -2.656   0.880  0.00  0.00    -0.021 A 
ATOM     10  C   UNL     1      -1.370  -2.022   0.167  0.00  0.00    -0.004 A 
ATOM     11  S   UNL     1      -2.616  -3.249  -0.110  0.00  0.00    -0.077 S 
ATOM     12  C   UNL     1      -1.879  -4.586   0.709  0.00  0.00    +0.086 A 
ATOM     13  C   UNL     1      -0.686  -4.052   1.178  0.00  0.00    +0.091 A 
ATOM     14  C   UNL     1      -1.363  -0.595  -0.285  0.00  0.00    +0.046 C 
BRANCH  13  15
ATOM     15  C   UNL     1       0.261  -4.864   1.944  0.00  0.00    +0.342 C 
ATOM     16  O   UNL     1       0.176  -4.918   3.156  0.00  0.00    -0.245 OA
BRANCH  15  17
ATOM     17  O   UNL     1       1.229  -5.554   1.305  0.00  0.00    -0.458 OA
BRANCH  17  18
ATOM     18  C   UNL     1       2.132  -6.338   2.128  0.00  0.00    +0.171 C 
ATOM     19  C   UNL     1       2.618  -7.553   1.336  0.00  0.00    +0.052 C 
ATOM     20  C   UNL     1       3.333  -5.478   2.529  0.00  0.00    +0.052 C 
ENDBRANCH  17  18
ENDBRANCH  15  17
ENDBRANCH  13  15
ENDBRANCH   1  12
BRANCH   2  21
ATOM     21  C   UNL     1      -4.081  -7.618   0.494  0.00  0.00    +0.017 C 
ATOM     22  C   UNL     1      -3.315  -8.562  -0.435  0.00  0.00    -0.004 C 
BRANCH  21  23
ATOM     23  N   UNL     1      -5.510  -7.649   0.152  0.00  0.00    +0.389 N 
ATOM     24  C   UNL     1      -6.147  -8.870   0.661  0.00  0.00    -0.058 C 
ATOM     25  C   UNL     1      -7.661  -8.780   0.445  0.00  0.00    +0.089 C 
ATOM     26  N   UNL     1      -7.915  -8.492  -0.975  0.00  0.00    -0.305 N 
ATOM     27  C   UNL     1      -7.204  -7.362  -1.593  0.00  0.00    +0.089 C 
ATOM     28  C   UNL     1      -5.707  -7.508  -1.297  0.00  0.00    -0.058 C 
ATOM     29  C   UNL     1      -8.775  -9.243  -1.690  0.00  0.00    +0.219 C 
ATOM     30  O   UNL     1      -8.973  -8.991  -2.860  0.00  0.00    -0.275 OA
ATOM     31  H   UNL     1      -5.994  -6.790   0.641  0.00  0.00    -0.081 HD
BRANCH  29  32
ATOM     32  C   UNL     1      -9.493 -10.396  -1.036  0.00  0.00    +0.075 C 
ATOM     33  C   UNL     1      -9.111 -11.809  -1.481  0.00  0.00    +0.013 C 
ATOM     34  C   UNL     1     -10.456 -11.211  -1.902  0.00  0.00    +0.013 C 
ENDBRANCH  29  32
ENDBRANCH  21  23
ENDBRANCH   2  21
TORSDOF 7
