REMARK  Name = ZINC40408648
REMARK  18 active torsions:
REMARK  status: ('A' for Active; 'I' for Inactive)
REMARK    1  A    between atoms: C_1  and  C_2
REMARK    2  A    between atoms: C_2  and  C_3
REMARK    3  A    between atoms: C_3  and  C_4
REMARK    4  A    between atoms: C_4  and  O_5
REMARK    5  A    between atoms: O_5  and  C_6
REMARK    6  A    between atoms: C_6  and  C_7
REMARK    7  A    between atoms: C_7  and  C_9
REMARK    8  A    between atoms: C_7  and  O_38
REMARK    9  A    between atoms: C_9  and  N_10
REMARK   10  A    between atoms: N_10  and  C_11
REMARK   11  A    between atoms: N_10  and  C_17
REMARK   12  A    between atoms: C_11  and  C_12
REMARK   13  A    between atoms: C_17  and  C_18
REMARK   14  A    between atoms: C_19  and  C_37
REMARK   15  A    between atoms: N_21  and  C_31
REMARK   16  A    between atoms: C_22  and  O_23
REMARK   17  A    between atoms: O_23  and  C_24
REMARK   18  A    between atoms: C_28  and  C_30
REMARK                            x       y       z     vdW  Elec       q    Type
REMARK                         _______ _______ _______ _____ _____    ______ ____
ROOT
ATOM      1  C   UNL     1       4.652  -7.814   6.381  0.00  0.00    +0.021 A 
ATOM      2  C   UNL     1       5.997  -7.520   6.138  0.00  0.00    +0.065 A 
ATOM      3  N   UNL     1       6.625  -7.480   7.285  0.00  0.00    -0.168 NA
ATOM      4  N   UNL     1       5.703  -7.748   8.305  0.00  0.00    -0.200 N 
ATOM      5  C   UNL     1       4.489  -7.946   7.724  0.00  0.00    +0.225 A 
ATOM      6  C   UNL     1       6.618  -7.288   4.785  0.00  0.00    +0.068 C 
ENDROOT
BRANCH   4   7
ATOM      7  C   UNL     1       5.980  -7.798   9.678  0.00  0.00    +0.069 A 
ATOM      8  C   UNL     1       5.069  -7.284  10.590  0.00  0.00    +0.028 A 
ATOM      9  C   UNL     1       5.345  -7.335  11.943  0.00  0.00    +0.002 A 
ATOM     10  C   UNL     1       6.528  -7.897  12.388  0.00  0.00    +0.000 A 
ATOM     11  C   UNL     1       7.437  -8.410  11.481  0.00  0.00    +0.002 A 
ATOM     12  C   UNL     1       7.164  -8.367  10.128  0.00  0.00    +0.028 A 
ENDBRANCH   4   7
BRANCH   1  13
ATOM     13  C   UNL     1       3.572  -7.952   5.339  0.00  0.00    -0.035 C 
BRANCH  13  14
ATOM     14  N   UNL     1       2.845  -6.682   5.214  0.00  0.00    +0.389 N 
ATOM     15  H   UNL     1       2.508  -6.397   6.121  0.00  0.00    -0.081 HD
BRANCH  14  16
ATOM     16  C   UNL     1       3.748  -5.652   4.681  0.00  0.00    -0.044 C 
BRANCH  16  17
ATOM     17  C   UNL     1       3.054  -4.290   4.732  0.00  0.00    +0.124 C 
BRANCH  17  18
ATOM     18  O   UNL     1       1.968  -4.273   3.803  0.00  0.00    -0.391 OA
ATOM     19  H   UNL     1       2.233  -4.423   2.886  0.00  0.00    +0.210 HD
ENDBRANCH  17  18
BRANCH  17  20
ATOM     20  C   UNL     1       4.056  -3.193   4.366  0.00  0.00    +0.189 C 
BRANCH  20  21
ATOM     21  O   UNL     1       3.441  -1.913   4.527  0.00  0.00    -0.377 OA
BRANCH  21  22
ATOM     22  C   UNL     1       4.296  -0.813   4.209  0.00  0.00    +0.160 C 
BRANCH  22  23
ATOM     23  C   UNL     1       3.537   0.499   4.416  0.00  0.00    +0.028 C 
BRANCH  23  25
ATOM     24  C   UNL     1       3.694   2.989   4.283  0.00  0.00    +0.004 C 
ATOM     25  C   UNL     1       4.453   1.677   4.076  0.00  0.00    -0.001 C 
ENDBRANCH  23  25
ENDBRANCH  22  23
ENDBRANCH  21  22
ENDBRANCH  20  21
ENDBRANCH  17  20
ENDBRANCH  16  17
ENDBRANCH  14  16
BRANCH  14  26
ATOM     26  C   UNL     1       1.708  -6.856   4.301  0.00  0.00    -0.003 C 
BRANCH  26  27
ATOM     27  C   UNL     1       0.740  -7.850   4.888  0.00  0.00    +0.089 A 
ATOM     28  C   UNL     1      -0.335  -7.552   5.641  0.00  0.00    +0.042 A 
ATOM     29  C   UNL     1      -0.954  -8.778   5.975  0.00  0.00    +0.041 A 
ATOM     30  C   UNL     1      -0.221  -9.752   5.407  0.00  0.00    +0.195 A 
ATOM     31  O   UNL     1       0.800  -9.184   4.745  0.00  0.00    -0.470 OA
ENDBRANCH  26  27
ENDBRANCH  14  26
ENDBRANCH  13  14
ENDBRANCH   1  13
BRANCH   5  32
ATOM     32  O   UNL     1       3.328  -8.228   8.368  0.00  0.00    -0.438 OA
BRANCH  32  33
ATOM     33  C   UNL     1       3.061  -9.527   8.665  0.00  0.00    +0.131 A 
ATOM     34  C   UNL     1       4.011 -10.506   8.412  0.00  0.00    +0.046 A 
ATOM     35  C   UNL     1       3.738 -11.826   8.715  0.00  0.00    +0.004 A 
ATOM     36  C   UNL     1       2.519 -12.171   9.270  0.00  0.00    +0.003 A 
ATOM     37  C   UNL     1       1.571 -11.197   9.523  0.00  0.00    -0.047 A 
ATOM     38  C   UNL     1       1.842  -9.875   9.227  0.00  0.00    +0.049 A 
ATOM     39  C   UNL     1       0.244 -11.578  10.127  0.00  0.00    +0.044 C 
ENDBRANCH  32  33
ENDBRANCH   5  32
TORSDOF 15
