REMARK  Name = ZINC46587680
REMARK  4 active torsions:
REMARK  status: ('A' for Active; 'I' for Inactive)
REMARK    1  A    between atoms: C_10  and  N_14
REMARK    2  A    between atoms: C_15  and  C_17
REMARK    3  A    between atoms: C_19  and  S_22
REMARK    4  A    between atoms: S_22  and  N_25
REMARK                            x       y       z     vdW  Elec       q    Type
REMARK                         _______ _______ _______ _____ _____    ______ ____
ROOT
ATOM      1  N   UNL     1       3.624  -5.744  -0.067  0.00  0.00    -0.281 N 
ATOM      2  C   UNL     1       4.781  -5.868  -0.748  0.00  0.00    +0.249 C 
ATOM      3  O   UNL     1       5.284  -4.894  -1.275  0.00  0.00    -0.270 OA
ATOM      4  H   UNL     1       3.258  -6.505   0.409  0.00  0.00    +0.155 HD
ENDROOT
BRANCH   1  14
ATOM      5  C   UNL     1       0.010   1.388   0.053  0.00  0.00    +0.001 A 
ATOM      6  C   UNL     1       1.202   2.095   0.056  0.00  0.00    +0.004 A 
ATOM      7  C   UNL     1       2.411   1.433   0.039  0.00  0.00    +0.047 A 
ATOM      8  C   UNL     1       2.445   0.044   0.020  0.00  0.00    +0.136 A 
ATOM      9  C   UNL     1       1.238  -0.669   0.018  0.00  0.00    +0.028 A 
ATOM     10  C   UNL     1       0.024   0.009   0.035  0.00  0.00    +0.012 A 
ATOM     11  C   UNL     1       1.616  -2.095  -0.004  0.00  0.00    +0.028 A 
ATOM     12  C   UNL     1       0.895  -3.285  -0.016  0.00  0.00    +0.014 A 
ATOM     13  C   UNL     1       1.562  -4.490  -0.037  0.00  0.00    +0.024 A 
ATOM     14  C   UNL     1       2.954  -4.517  -0.046  0.00  0.00    +0.037 A 
ATOM     15  C   UNL     1       3.679  -3.337  -0.033  0.00  0.00    +0.070 A 
ATOM     16  C   UNL     1       3.018  -2.115  -0.013  0.00  0.00    +0.138 A 
ATOM     17  O   UNL     1       3.466  -0.841   0.002  0.00  0.00    -0.455 OA
ENDBRANCH   1  14
BRANCH   2  18
ATOM     18  C   UNL     1       5.435  -7.182  -0.854  0.00  0.00    +0.046 A 
ATOM     19  C   UNL     1       6.676  -7.353  -1.570  0.00  0.00    +0.049 A 
ATOM     20  C   UNL     1       7.171  -8.607  -1.594  0.00  0.00    +0.143 A 
ATOM     21  S   UNL     1       5.971  -9.532  -0.660  0.00  0.00    -0.076 S 
ATOM     22  C   UNL     1       4.894  -8.306  -0.270  0.00  0.00    +0.060 A 
BRANCH  20  23
ATOM     23  S   UNL     1       8.646  -9.188  -2.362  0.00  0.00    +0.062 S 
ATOM     24  O   UNL     1       8.461 -10.577  -2.598  0.00  0.00    -0.153 OA
ATOM     25  O   UNL     1       8.949  -8.271  -3.405  0.00  0.00    -0.153 OA
BRANCH  23  26
ATOM     26  N   UNL     1       9.864  -9.055  -1.247  0.00  0.00    -0.203 NA
ATOM     27  H   UNL     1      10.610  -9.674  -1.268  0.00  0.00    +0.144 HD
ATOM     28  H   UNL     1       9.830  -8.358  -0.573  0.00  0.00    +0.144 HD
ENDBRANCH  23  26
ENDBRANCH  20  23
ENDBRANCH   2  18
TORSDOF 4
