REMARK  Name = ZINC59384936
REMARK  8 active torsions:
REMARK  status: ('A' for Active; 'I' for Inactive)
REMARK    1  A    between atoms: C_1  and  C_2
REMARK    2  A    between atoms: C_2  and  O_3
REMARK    3  A    between atoms: O_3  and  C_4
REMARK    4  A    between atoms: C_7  and  C_10
REMARK    5  A    between atoms: N_11  and  N_12
REMARK    6  A    between atoms: C_13  and  C_15
REMARK    7  A    between atoms: C_16  and  C_31
REMARK    8  A    between atoms: C_21  and  C_23
REMARK                            x       y       z     vdW  Elec       q    Type
REMARK                         _______ _______ _______ _____ _____    ______ ____
ROOT
ATOM      1  C   UNL     1       2.569  -9.709  -4.472  0.00  0.00    +0.057 C 
ATOM      2  C   UNL     1       3.207 -10.187  -5.562  0.00  0.00    +0.017 C 
ATOM      3  N   UNL     1       3.344 -11.530  -5.766  0.00  0.00    -0.300 N 
ATOM      4  C   UNL     1       2.871 -12.461  -4.928  0.00  0.00    +0.135 C 
ATOM      5  S   UNL     1       3.111 -14.113  -5.304  0.00  0.00    -0.019 S 
ATOM      6  N   UNL     1       2.212 -12.139  -3.797  0.00  0.00    -0.315 N 
ATOM      7  C   UNL     1       2.016 -10.714  -3.482  0.00  0.00    +0.141 C 
ATOM      8  C   UNL     1       3.777  -9.221  -6.569  0.00  0.00    +0.061 C 
ATOM      9  H   UNL     1       3.809 -11.826  -6.564  0.00  0.00    +0.154 HD
ATOM     10  H   UNL     1       1.878 -12.829  -3.204  0.00  0.00    +0.149 HD
ENDROOT
BRANCH   7  11
ATOM     11  C   UNL     1       2.647 -10.440  -2.141  0.00  0.00    -0.004 A 
ATOM     12  C   UNL     1       3.807 -11.097  -1.775  0.00  0.00    +0.008 A 
ATOM     13  C   UNL     1       4.385 -10.847  -0.545  0.00  0.00    +0.020 A 
ATOM     14  C   UNL     1       3.804  -9.937   0.321  0.00  0.00    +0.042 A 
ATOM     15  C   UNL     1       2.644  -9.278  -0.045  0.00  0.00    +0.040 A 
ATOM     16  C   UNL     1       2.068  -9.526  -1.278  0.00  0.00    +0.048 A 
ATOM     17 CL   UNL     1       0.615  -8.696  -1.740  0.00  0.00    -0.083 Cl
ATOM     18 CL   UNL     1       4.531  -9.622   1.865  0.00  0.00    -0.083 Cl
ENDBRANCH   7  11
BRANCH   1  20
ATOM     19  N   UNL     1       3.454  -7.604  -3.754  0.00  0.00    -0.203 N 
ATOM     20  C   UNL     1       2.427  -8.316  -4.258  0.00  0.00    +0.263 C 
ATOM     21  O   UNL     1       1.377  -7.762  -4.530  0.00  0.00    -0.269 OA
ATOM     22  H   UNL     1       4.313  -8.029  -3.606  0.00  0.00    +0.178 HD
BRANCH  19  24
ATOM     23  C   UNL     1       4.294  -5.538  -3.051  0.00  0.00    +0.138 C 
ATOM     24  N   UNL     1       3.281  -6.248  -3.444  0.00  0.00    -0.187 NA
BRANCH  23  28
ATOM     25  C   UNL     1       3.841  -1.365  -2.418  0.00  0.00    +0.121 A 
ATOM     26  C   UNL     1       5.074  -1.968  -2.204  0.00  0.00    +0.046 A 
ATOM     27  C   UNL     1       5.225  -3.322  -2.408  0.00  0.00    +0.013 A 
ATOM     28  C   UNL     1       4.136  -4.089  -2.831  0.00  0.00    -0.005 A 
ATOM     29  C   UNL     1       2.898  -3.478  -3.045  0.00  0.00    +0.013 A 
ATOM     30  C   UNL     1       2.755  -2.124  -2.833  0.00  0.00    +0.046 A 
BRANCH  25  31
ATOM     31  O   UNL     1       3.696  -0.029  -2.216  0.00  0.00    -0.492 OA
BRANCH  31  33
ATOM     32  C   UNL     1       4.499   2.170  -1.615  0.00  0.00    +0.048 C 
ATOM     33  C   UNL     1       4.854   0.692  -1.789  0.00  0.00    +0.225 C 
ENDBRANCH  31  33
ENDBRANCH  25  31
ENDBRANCH  23  28
ENDBRANCH  19  24
ENDBRANCH   1  20
TORSDOF 6
