REMARK  Name = ZINC01984117
REMARK  15 active torsions:
REMARK  status: ('A' for Active; 'I' for Inactive)
REMARK    1  A    between atoms: C_1  and  C_2
REMARK    2  A    between atoms: C_2  and  O_3
REMARK    3  A    between atoms: O_3  and  C_4
REMARK    4  A    between atoms: C_4  and  C_6
REMARK    5  A    between atoms: C_7  and  C_30
REMARK    6  A    between atoms: C_8  and  C_27
REMARK    7  A    between atoms: C_10  and  N_11
REMARK    8  A    between atoms: C_12  and  C_14
REMARK    9  A    between atoms: C_14  and  O_15
REMARK   10  A    between atoms: O_15  and  C_16
REMARK   11  A    between atoms: C_18  and  C_26
REMARK   12  A    between atoms: C_21  and  C_22
REMARK   13  A    between atoms: C_22  and  C_23
REMARK   14  A    between atoms: C_22  and  C_24
REMARK   15  A    between atoms: C_27  and  C_29
REMARK                            x       y       z     vdW  Elec       q    Type
REMARK                         _______ _______ _______ _____ _____    ______ ____
ROOT
ATOM      1  N   UNL     1      -1.280  -2.325  -2.490  0.00  0.00    -0.277 N 
ATOM      2  C   UNL     1      -1.323  -3.176  -3.535  0.00  0.00    +0.255 C 
ATOM      3  O   UNL     1      -1.367  -4.372  -3.340  0.00  0.00    -0.272 OA
ATOM      4  H   UNL     1      -1.240  -1.240  -2.667  0.00  0.00    +0.155 HD
ENDROOT
BRANCH   1   9
ATOM      5  C   UNL     1      -1.248  -2.099   0.003  0.00  0.00    +0.091 A 
ATOM      6  C   UNL     1      -1.259  -2.819   1.184  0.00  0.00    -0.017 A 
ATOM      7  C   UNL     1      -1.318  -4.198   1.088  0.00  0.00    +0.060 A 
ATOM      8  S   UNL     1      -1.345  -4.465  -0.675  0.00  0.00    -0.070 S 
ATOM      9  C   UNL     1      -1.287  -2.815  -1.200  0.00  0.00    +0.087 A 
ATOM     10  C   UNL     1      -1.213  -2.129   2.523  0.00  0.00    +0.046 C 
BRANCH   7  11
ATOM     11  C   UNL     1      -1.345  -5.154   2.124  0.00  0.00    +0.167 C 
ATOM     12  O   UNL     1      -1.319  -4.793   3.284  0.00  0.00    -0.292 OA
ATOM     13  C   UNL     1      -1.404  -6.623   1.793  0.00  0.00    +0.092 C 
ENDBRANCH   7  11
BRANCH   5  14
ATOM     14  C   UNL     1      -1.191  -0.632   0.010  0.00  0.00    +0.342 C 
ATOM     15  O   UNL     1      -2.219   0.016   0.023  0.00  0.00    -0.245 OA
BRANCH  14  16
ATOM     16  O   UNL     1       0.002  -0.004   0.002  0.00  0.00    -0.461 OA
BRANCH  16  18
ATOM     17  C   UNL     1       1.418   1.977  -0.001  0.00  0.00    +0.048 C 
ATOM     18  C   UNL     1      -0.018   1.448   0.010  0.00  0.00    +0.229 C 
ENDBRANCH  16  18
ENDBRANCH  14  16
ENDBRANCH   5  14
ENDBRANCH   1   9
BRANCH   2  19
ATOM     19  C   UNL     1      -1.316  -2.641  -4.943  0.00  0.00    +0.324 C 
BRANCH  19  20
ATOM     20  O   UNL     1      -1.366  -3.731  -5.867  0.00  0.00    -0.482 OA
BRANCH  20  21
ATOM     21  C   UNL     1      -1.367  -3.419  -7.190  0.00  0.00    +0.125 A 
ATOM     22  C   UNL     1      -1.320  -2.091  -7.590  0.00  0.00    +0.050 A 
ATOM     23  C   UNL     1      -1.320  -1.776  -8.935  0.00  0.00    -0.033 A 
ATOM     24  C   UNL     1      -1.367  -2.784  -9.883  0.00  0.00    +0.021 A 
ATOM     25  C   UNL     1      -1.413  -4.108  -9.485  0.00  0.00    +0.023 A 
ATOM     26  C   UNL     1      -1.409  -4.427  -8.141  0.00  0.00    -0.002 A 
ATOM     27 BR   UNL     1      -1.366  -2.350 -11.723  0.00  0.00    -0.050 Br
ATOM     28  C   UNL     1      -1.269  -0.335  -9.371  0.00  0.00    +0.045 C 
BRANCH  26  29
ATOM     29  C   UNL     1      -1.454  -5.870  -7.709  0.00  0.00    +0.016 C 
ATOM     30  C   UNL     1      -2.731  -6.523  -8.243  0.00  0.00    +0.012 C 
ATOM     31  C   UNL     1      -0.234  -6.607  -8.264  0.00  0.00    +0.012 C 
ENDBRANCH  26  29
ENDBRANCH  20  21
ENDBRANCH  19  20
ENDBRANCH   2  19
TORSDOF 9
