REMARK  Name = ZINC20906152
REMARK  11 active torsions:
REMARK  status: ('A' for Active; 'I' for Inactive)
REMARK    1  A    between atoms: C_1  and  C_2
REMARK    2  A    between atoms: C_2  and  O_3
REMARK    3  A    between atoms: O_3  and  C_4
REMARK    4  A    between atoms: C_14  and  C_16
REMARK    5  A    between atoms: C_16  and  S_17
REMARK    6  A    between atoms: S_17  and  C_18
REMARK    7  A    between atoms: N_23  and  N_24
REMARK    8  A    between atoms: C_25  and  C_26
REMARK    9  A    between atoms: C_29  and  C_32
REMARK   10  A    between atoms: C_32  and  O_34
REMARK   11  A    between atoms: O_34  and  C_35
REMARK                            x       y       z     vdW  Elec       q    Type
REMARK                         _______ _______ _______ _____ _____    ______ ____
ROOT
ATOM      1  C   UNL     1      -6.902   9.456   0.089  0.00  0.00    +0.211 A 
ATOM      2  N   UNL     1      -7.371   8.169   0.083  0.00  0.00    -0.186 NA
ATOM      3  C   UNL     1      -6.257   7.370   0.074  0.00  0.00    +0.232 A 
ATOM      4  N   UNL     1      -5.214   8.162   0.079  0.00  0.00    -0.245 N 
ATOM      5  N   UNL     1      -5.593   9.390   0.084  0.00  0.00    -0.144 NA
ATOM      6  N   UNL     1      -6.238   5.982   0.066  0.00  0.00    -0.205 N 
ATOM      7  H   UNL     1      -7.183   5.420   0.067  0.00  0.00    +0.177 HD
ATOM      8  H   UNL     1      -4.200   7.736   0.080  0.00  0.00    +0.192 HD
ENDROOT
BRANCH   6   9
ATOM      9  N   UNL     1      -5.016   5.299   0.056  0.00  0.00    -0.188 NA
ATOM     10  C   UNL     1      -4.998   3.999   0.048  0.00  0.00    +0.138 C 
BRANCH  10  11
ATOM     11  C   UNL     1      -3.714   3.280   0.038  0.00  0.00    -0.005 A 
ATOM     12  C   UNL     1      -3.695   1.881   0.030  0.00  0.00    +0.010 A 
ATOM     13  C   UNL     1      -2.503   1.215   0.021  0.00  0.00    +0.015 A 
ATOM     14  C   UNL     1      -1.301   1.931   0.019  0.00  0.00    +0.059 A 
ATOM     15  C   UNL     1      -1.320   3.329   0.032  0.00  0.00    +0.015 A 
ATOM     16  C   UNL     1      -2.511   3.996   0.037  0.00  0.00    +0.010 A 
BRANCH  14  17
ATOM     17  C   UNL     1      -0.014   1.211   0.009  0.00  0.00    +0.339 C 
ATOM     18  O   UNL     1       0.002  -0.004   0.002  0.00  0.00    -0.245 OA
BRANCH  17  19
ATOM     19  O   UNL     1       1.143   1.901   0.001  0.00  0.00    -0.464 OA
ATOM     20  C   UNL     1       2.372   1.127  -0.015  0.00  0.00    +0.280 C 
ENDBRANCH  17  19
ENDBRANCH  14  17
ENDBRANCH  10  11
ENDBRANCH   6   9
BRANCH   1  21
ATOM     21  S   UNL     1      -7.875  10.925   0.103  0.00  0.00    -0.075 S 
BRANCH  21  22
ATOM     22  C   UNL     1      -6.563  12.171   0.105  0.00  0.00    +0.173 C 
BRANCH  22  33
ATOM     23  C   UNL     1      -9.172  20.294   0.170  0.00  0.00    +0.122 A 
ATOM     24  C   UNL     1     -10.207  19.364   0.169  0.00  0.00    +0.048 A 
ATOM     25  C   UNL     1      -9.958  18.017   0.158  0.00  0.00    +0.032 A 
ATOM     26  C   UNL     1      -8.632  17.526   0.148  0.00  0.00    +0.081 A 
ATOM     27  C   UNL     1      -7.605  18.497   0.150  0.00  0.00    +0.044 A 
ATOM     28  C   UNL     1      -7.859  19.846   0.161  0.00  0.00    +0.063 A 
ATOM     29  S   UNL     1      -6.138  17.495   0.144  0.00  0.00    -0.052 S 
ATOM     30  C   UNL     1      -6.952  15.904   0.130  0.00  0.00    +0.165 A 
ATOM     31  N   UNL     1      -8.220  16.239   0.138  0.00  0.00    -0.225 NA
ATOM     32  N   UNL     1      -6.387  14.639   0.120  0.00  0.00    -0.264 N 
ATOM     33  C   UNL     1      -7.178  13.547   0.116  0.00  0.00    +0.229 C 
ATOM     34  O   UNL     1      -8.384  13.673   0.122  0.00  0.00    -0.275 OA
ATOM     35  H   UNL     1      -5.293  14.525   0.114  0.00  0.00    +0.157 HD
BRANCH  23  36
ATOM     36  O   UNL     1      -9.443  21.627   0.181  0.00  0.00    -0.492 OA
BRANCH  36  38
ATOM     37  C   UNL     1     -10.927  23.534   0.202  0.00  0.00    +0.048 C 
ATOM     38  C   UNL     1     -10.821  22.008   0.190  0.00  0.00    +0.225 C 
ENDBRANCH  36  38
ENDBRANCH  23  36
ENDBRANCH  22  33
ENDBRANCH  21  22
ENDBRANCH   1  21
TORSDOF 9
