REMARK  Name = ZINC39675259
REMARK  11 active torsions:
REMARK  status: ('A' for Active; 'I' for Inactive)
REMARK    1  A    between atoms: C_1  and  C_2
REMARK    2  A    between atoms: C_2  and  C_4
REMARK    3  A    between atoms: C_2  and  N_14
REMARK    4  A    between atoms: C_4  and  C_5
REMARK    5  A    between atoms: C_5  and  C_6
REMARK    6  A    between atoms: C_9  and  O_12
REMARK    7  A    between atoms: O_12  and  C_13
REMARK    8  A    between atoms: C_15  and  C_17
REMARK    9  A    between atoms: C_28  and  C_30
REMARK   10  A    between atoms: C_33  and  O_36
REMARK   11  A    between atoms: O_36  and  C_37
REMARK                            x       y       z     vdW  Elec       q    Type
REMARK                         _______ _______ _______ _____ _____    ______ ____
ROOT
ATOM      1  C   UNL     1       2.799  -0.473   2.245  0.00  0.00    +0.100 C 
ATOM      2  C   UNL     1       2.652   0.273   3.590  0.00  0.00    +0.121 C 
ATOM      3  N   UNL     1       3.984   0.155   4.231  0.00  0.00    -0.296 N 
ATOM      4  C   UNL     1       4.946   0.321   3.115  0.00  0.00    +0.115 C 
ATOM      5  C   UNL     1       4.305  -0.439   1.936  0.00  0.00    -0.004 C 
ATOM      6  C   UNL     1       4.560   0.305   0.629  0.00  0.00    -0.010 C 
ATOM      7  C   UNL     1       6.058   0.275   0.313  0.00  0.00    -0.082 C 
ATOM      8  N   UNL     1       6.509  -1.117   0.203  0.00  0.00    +0.379 N 
ATOM      9  C   UNL     1       6.346  -1.800   1.492  0.00  0.00    -0.082 C 
ATOM     10  C   UNL     1       4.860  -1.858   1.858  0.00  0.00    -0.010 C 
ATOM     11  C   UNL     1       4.258  -0.057   5.533  0.00  0.00    +0.247 C 
ATOM     12  O   UNL     1       3.355  -0.283   6.315  0.00  0.00    -0.270 OA
ATOM     13  H   UNL     1       5.961  -1.592  -0.499  0.00  0.00    -0.086 HD
ATOM     14  H   UNL     1       7.481  -1.134  -0.065  0.00  0.00    -0.086 HD
ENDROOT
BRANCH  11  15
ATOM     15  C   UNL     1       5.654  -0.012   6.010  0.00  0.00    +0.037 A 
ATOM     16  C   UNL     1       6.625   0.669   5.272  0.00  0.00    +0.016 A 
ATOM     17  C   UNL     1       7.926   0.709   5.721  0.00  0.00    +0.047 A 
ATOM     18  C   UNL     1       8.274   0.071   6.906  0.00  0.00    +0.130 A 
ATOM     19  C   UNL     1       7.311  -0.608   7.643  0.00  0.00    +0.047 A 
ATOM     20  C   UNL     1       6.007  -0.647   7.204  0.00  0.00    +0.016 A 
BRANCH  18  21
ATOM     21  O   UNL     1       9.558   0.111   7.344  0.00  0.00    -0.406 OA
BRANCH  21  22
ATOM     22  C   UNL     1       9.847  -0.565   8.569  0.00  0.00    +0.575 C 
ATOM     23  F   UNL     1       9.537  -1.923   8.437  0.00  0.00    -0.133 F 
ATOM     24  F   UNL     1      11.206  -0.424   8.871  0.00  0.00    -0.133 F 
ATOM     25  F   UNL     1       9.080  -0.011   9.600  0.00  0.00    -0.133 F 
ENDBRANCH  21  22
ENDBRANCH  18  21
ENDBRANCH  11  15
BRANCH   1  27
ATOM     26  N   UNL     1       1.519  -0.461   0.128  0.00  0.00    -0.312 N 
ATOM     27  C   UNL     1       2.025   0.237   1.164  0.00  0.00    +0.218 C 
ATOM     28  O   UNL     1       1.858   1.437   1.227  0.00  0.00    -0.275 OA
ATOM     29  H   UNL     1       1.653  -1.420   0.078  0.00  0.00    +0.149 HD
BRANCH  26  31
ATOM     30  C   UNL     1      -0.695   0.372  -0.494  0.00  0.00    +0.028 C 
ATOM     31  C   UNL     1       0.767   0.230  -0.923  0.00  0.00    +0.070 C 
BRANCH  31  32
ATOM     32  C   UNL     1       0.843  -0.579  -2.219  0.00  0.00    +0.026 C 
BRANCH  32  33
ATOM     33  C   UNL     1       2.290  -0.615  -2.714  0.00  0.00    +0.037 C 
BRANCH  33  34
ATOM     34  C   UNL     1       2.364  -1.412  -3.991  0.00  0.00    -0.047 A 
ATOM     35  C   UNL     1       2.584  -2.776  -3.942  0.00  0.00    +0.007 A 
ATOM     36  C   UNL     1       2.653  -3.509  -5.111  0.00  0.00    +0.046 A 
ATOM     37  C   UNL     1       2.501  -2.874  -6.335  0.00  0.00    +0.120 A 
ATOM     38  C   UNL     1       2.280  -1.506  -6.382  0.00  0.00    +0.046 A 
ATOM     39  C   UNL     1       2.206  -0.778  -5.210  0.00  0.00    +0.007 A 
BRANCH  37  40
ATOM     40  O   UNL     1       2.569  -3.593  -7.487  0.00  0.00    -0.495 OA
ATOM     41  C   UNL     1       2.403  -2.874  -8.711  0.00  0.00    +0.277 C 
ENDBRANCH  37  40
ENDBRANCH  33  34
ENDBRANCH  32  33
ENDBRANCH  31  32
ENDBRANCH  26  31
ENDBRANCH   1  27
TORSDOF 9
