REMARK  Name = ZINC63166515
REMARK  11 active torsions:
REMARK  status: ('A' for Active; 'I' for Inactive)
REMARK    1  A    between atoms: C_1  and  C_2
REMARK    2  A    between atoms: C_9  and  N_12
REMARK    3  A    between atoms: C_13  and  C_15
REMARK    4  A    between atoms: C_15  and  C_17
REMARK    5  A    between atoms: C_15  and  N_27
REMARK    6  A    between atoms: C_17  and  C_18
REMARK    7  A    between atoms: C_28  and  O_30
REMARK    8  A    between atoms: O_30  and  C_31
REMARK    9  A    between atoms: C_31  and  C_32
REMARK   10  A    between atoms: C_31  and  C_33
REMARK   11  A    between atoms: C_31  and  C_34
REMARK                            x       y       z     vdW  Elec       q    Type
REMARK                         _______ _______ _______ _____ _____    ______ ____
ROOT
ATOM      1  C   UNL     1       2.668  -7.165   2.945  0.00  0.00    +0.166 C 
ENDROOT
BRANCH   1   3
ATOM      2  N   UNL     1       1.291  -5.596   1.619  0.00  0.00    -0.287 N 
ATOM      3  C   UNL     1       1.415  -6.358   2.724  0.00  0.00    +0.236 C 
ATOM      4  O   UNL     1       0.518  -6.394   3.539  0.00  0.00    -0.274 OA
ATOM      5  H   UNL     1       2.008  -5.567   0.967  0.00  0.00    +0.151 HD
BRANCH   2  14
ATOM      6  C   UNL     1      -0.018   1.503   0.010  0.00  0.00    +0.044 C 
ATOM      7  C   UNL     1       0.002  -0.004   0.002  0.00  0.00    -0.049 A 
ATOM      8  C   UNL     1       0.006  -0.700  -1.193  0.00  0.00    +0.005 A 
ATOM      9  C   UNL     1       0.025  -2.075  -1.215  0.00  0.00    +0.024 A 
ATOM     10  C   UNL     1       0.040  -2.822  -0.023  0.00  0.00    +0.043 A 
ATOM     11  C   UNL     1       0.035  -2.090   1.168  0.00  0.00    +0.032 A 
ATOM     12  C   UNL     1       0.023  -0.714   1.191  0.00  0.00    +0.020 A 
ATOM     13  S   UNL     1       0.057  -3.310   2.462  0.00  0.00    -0.082 S 
ATOM     14  C   UNL     1       0.072  -4.811   1.404  0.00  0.00    +0.224 C 
ATOM     15  N   UNL     1       0.059  -4.213   0.062  0.00  0.00    -0.316 N 
ATOM     16  H   UNL     1       0.062  -4.766  -0.735  0.00  0.00    +0.149 HD
ENDBRANCH   2  14
ENDBRANCH   1   3
BRANCH   1  17
ATOM     17  N   UNL     1       2.395  -8.237   3.906  0.00  0.00    -0.269 N 
ATOM     18  C   UNL     1       1.977  -7.936   5.151  0.00  0.00    +0.401 C 
ATOM     19  O   UNL     1       1.827  -6.775   5.478  0.00  0.00    -0.226 OA
ATOM     20  H   UNL     1       2.515  -9.164   3.645  0.00  0.00    +0.153 HD
BRANCH  18  21
ATOM     21  O   UNL     1       1.726  -8.921   6.034  0.00  0.00    -0.445 OA
BRANCH  21  22
ATOM     22  C   UNL     1       1.286  -8.530   7.336  0.00  0.00    +0.107 C 
ATOM     23  C   UNL     1      -0.020  -7.741   7.217  0.00  0.00    +0.055 C 
ATOM     24  C   UNL     1       1.053  -9.776   8.192  0.00  0.00    +0.055 C 
ATOM     25  C   UNL     1       2.354  -7.652   7.992  0.00  0.00    +0.055 C 
ENDBRANCH  21  22
ENDBRANCH  18  21
ENDBRANCH   1  17
BRANCH   1  26
ATOM     26  C   UNL     1       3.769  -6.256   3.495  0.00  0.00    +0.065 C 
BRANCH  26  27
ATOM     27  C   UNL     1       5.056  -7.034   3.601  0.00  0.00    -0.039 C 
ATOM     28  C   UNL     1       6.055  -7.080   2.691  0.00  0.00    -0.001 A 
ATOM     29  C   UNL     1       6.236  -6.446   1.380  0.00  0.00    +0.010 A 
ATOM     30  C   UNL     1       7.371  -6.689   0.685  0.00  0.00    +0.001 A 
ATOM     31  C   UNL     1       8.375  -7.530   1.184  0.00  0.00    +0.002 A 
ATOM     32  C   UNL     1       8.281  -8.148   2.380  0.00  0.00    +0.026 A 
ATOM     33  C   UNL     1       7.131  -7.964   3.196  0.00  0.00    +0.043 A 
ATOM     34  N   UNL     1       6.809  -8.445   4.372  0.00  0.00    -0.380 N 
ATOM     35  C   UNL     1       5.493  -7.915   4.750  0.00  0.00    +0.144 C 
ATOM     36  H   UNL     1       7.351  -9.047   4.905  0.00  0.00    +0.160 HD
ENDBRANCH  26  27
ENDBRANCH   1  26
TORSDOF 7
