REMARK  Name = ZINC40008481
REMARK  18 active torsions:
REMARK  status: ('A' for Active; 'I' for Inactive)
REMARK    1  A    between atoms: C_1  and  C_2
REMARK    2  A    between atoms: C_2  and  C_3
REMARK    3  A    between atoms: C_3  and  C_4
REMARK    4  A    between atoms: C_4  and  O_5
REMARK    5  A    between atoms: O_5  and  C_6
REMARK    6  A    between atoms: C_9  and  C_15
REMARK    7  A    between atoms: C_11  and  O_12
REMARK    8  A    between atoms: O_12  and  C_13
REMARK    9  A    between atoms: C_13  and  C_14
REMARK   10  A    between atoms: C_22  and  C_39
REMARK   11  A    between atoms: N_30  and  C_31
REMARK   12  A    between atoms: C_31  and  C_32
REMARK   13  A    between atoms: C_32  and  C_33
REMARK   14  A    between atoms: C_33  and  N_34
REMARK   15  A    between atoms: N_34  and  C_35
REMARK   16  A    between atoms: N_34  and  C_37
REMARK   17  A    between atoms: C_35  and  C_36
REMARK   18  A    between atoms: C_37  and  C_38
REMARK                            x       y       z     vdW  Elec       q    Type
REMARK                         _______ _______ _______ _____ _____    ______ ____
ROOT
ATOM      1  C   UNL     1       2.258  -7.806   1.447  0.00  0.00    +0.145 C 
ATOM      2  C   UNL     1       3.082  -8.297   0.302  0.00  0.00    +0.072 A 
ATOM      3  C   UNL     1       4.433  -7.937  -0.141  0.00  0.00    +0.199 A 
ATOM      4  O   UNL     1       5.189  -7.245   0.519  0.00  0.00    -0.287 OA
ATOM      5  C   UNL     1       4.792  -8.495  -1.468  0.00  0.00    +0.065 A 
ATOM      6  C   UNL     1       5.957  -8.085  -2.116  0.00  0.00    +0.018 A 
ATOM      7  C   UNL     1       6.272  -8.606  -3.341  0.00  0.00    -0.050 A 
ATOM      8  C   UNL     1       5.435  -9.538  -3.939  0.00  0.00    +0.007 A 
ATOM      9  C   UNL     1       4.282  -9.954  -3.314  0.00  0.00    +0.047 A 
ATOM     10  C   UNL     1       3.941  -9.441  -2.062  0.00  0.00    +0.139 A 
ATOM     11  O   UNL     1       2.808  -9.872  -1.462  0.00  0.00    -0.450 OA
ATOM     12  C   UNL     1       2.345  -9.228  -0.372  0.00  0.00    +0.199 A 
ATOM     13  C   UNL     1       1.041  -9.361   0.301  0.00  0.00    +0.283 C 
ATOM     14  O   UNL     1       0.149 -10.108  -0.051  0.00  0.00    -0.267 OA
ATOM     15  N   UNL     1       0.982  -8.535   1.367  0.00  0.00    -0.284 N 
ATOM     16  C   UNL     1       7.530  -8.165  -4.043  0.00  0.00    +0.044 C 
ENDROOT
BRANCH   1  20
ATOM     17  C   UNL     1       1.575  -3.601   1.076  0.00  0.00    +0.162 A 
ATOM     18  C   UNL     1       0.848  -4.494   0.306  0.00  0.00    +0.050 A 
ATOM     19  C   UNL     1       1.071  -5.853   0.428  0.00  0.00    +0.009 A 
ATOM     20  C   UNL     1       2.019  -6.324   1.318  0.00  0.00    -0.019 A 
ATOM     21  C   UNL     1       2.748  -5.438   2.089  0.00  0.00    +0.055 A 
ATOM     22  C   UNL     1       2.533  -4.074   1.968  0.00  0.00    +0.162 A 
BRANCH  17  23
ATOM     23  O   UNL     1       1.357  -2.264   0.957  0.00  0.00    -0.488 OA
BRANCH  23  24
ATOM     24  C   UNL     1       0.358  -1.850   0.022  0.00  0.00    +0.229 C 
BRANCH  24  25
ATOM     25  C   UNL     1       0.256  -0.323   0.028  0.00  0.00    +0.041 C 
BRANCH  25  27
ATOM     26  C   UNL     1      -0.915   1.646  -0.968  0.00  0.00    +0.004 C 
ATOM     27  C   UNL     1      -0.813   0.120  -0.973  0.00  0.00    -0.000 C 
ENDBRANCH  25  27
ENDBRANCH  24  25
ENDBRANCH  23  24
ENDBRANCH  17  23
BRANCH  22  28
ATOM     28  O   UNL     1       3.253  -3.201   2.722  0.00  0.00    -0.489 OA
BRANCH  28  29
ATOM     29  C   UNL     1       4.219  -3.759   3.615  0.00  0.00    +0.226 C 
ATOM     30  C   UNL     1       4.924  -2.631   4.372  0.00  0.00    +0.048 C 
ENDBRANCH  28  29
ENDBRANCH  22  28
ENDBRANCH   1  20
BRANCH  15  31
ATOM     31  C   UNL     1      -0.152  -8.388   2.283  0.00  0.00    +0.107 C 
BRANCH  31  32
ATOM     32  C   UNL     1      -1.089  -7.296   1.763  0.00  0.00    +0.000 C 
BRANCH  32  33
ATOM     33  C   UNL     1      -2.274  -7.143   2.720  0.00  0.00    -0.077 C 
BRANCH  33  34
ATOM     34  N   UNL     1      -3.173  -6.094   2.221  0.00  0.00    +0.379 N 
ATOM     35  H   UNL     1      -2.652  -5.240   2.086  0.00  0.00    -0.082 HD
BRANCH  34  36
ATOM     36  C   UNL     1      -3.759  -6.518   0.943  0.00  0.00    -0.082 C 
ATOM     37  C   UNL     1      -4.582  -5.371   0.353  0.00  0.00    -0.017 C 
ENDBRANCH  34  36
BRANCH  34  38
ATOM     38  C   UNL     1      -4.246  -5.864   3.199  0.00  0.00    -0.082 C 
ATOM     39  C   UNL     1      -3.649  -5.286   4.484  0.00  0.00    -0.017 C 
ENDBRANCH  34  38
ENDBRANCH  33  34
ENDBRANCH  32  33
ENDBRANCH  31  32
ENDBRANCH  15  31
TORSDOF 13
