REMARK  Name = ZINC35700938
REMARK  16 active torsions:
REMARK  status: ('A' for Active; 'I' for Inactive)
REMARK    1  A    between atoms: C_1  and  C_2
REMARK    2  A    between atoms: C_3  and  C_32
REMARK    3  A    between atoms: C_4  and  C_22
REMARK    4  A    between atoms: C_7  and  C_12
REMARK    5  A    between atoms: C_13  and  N_15
REMARK    6  A    between atoms: N_15  and  C_16
REMARK    7  A    between atoms: C_16  and  C_17
REMARK    8  A    between atoms: C_24  and  O_30
REMARK    9  A    between atoms: C_26  and  O_28
REMARK   10  A    between atoms: O_28  and  C_29
REMARK   11  A    between atoms: O_30  and  C_31
REMARK   12  A    between atoms: C_32  and  O_34
REMARK   13  A    between atoms: O_34  and  C_35
REMARK   14  A    between atoms: C_35  and  C_36
REMARK   15  A    between atoms: C_36  and  O_37
REMARK   16  A    between atoms: O_37  and  C_38
REMARK                            x       y       z     vdW  Elec       q    Type
REMARK                         _______ _______ _______ _____ _____    ______ ____
ROOT
ATOM      1  C   UNL     1      -0.002   1.544   0.236  0.00  0.00    +0.066 C 
ATOM      2  C   UNL     1      -0.005   0.038   0.170  0.00  0.00    +0.053 C 
ATOM      3  C   UNL     1      -1.205  -0.646   0.152  0.00  0.00    +0.082 C 
ATOM      4  C   UNL     1      -1.155  -2.156   0.086  0.00  0.00    +0.150 C 
ATOM      5  N   UNL     1       0.190  -2.787   0.044  0.00  0.00    -0.267 N 
ATOM      6  C   UNL     1       0.473  -4.137  -0.018  0.00  0.00    +0.048 C 
ATOM      7  C   UNL     1       1.774  -4.504  -0.048  0.00  0.00    +0.072 C 
ATOM      8  S   UNL     1       2.603  -2.929   0.013  0.00  0.00    -0.060 S 
ATOM      9  C   UNL     1       1.255  -1.931   0.071  0.00  0.00    +0.166 C 
ATOM     10  N   UNL     1       1.142  -0.619   0.125  0.00  0.00    -0.230 NA
ENDROOT
BRANCH   4  11
ATOM     11  C   UNL     1      -1.909  -2.591  -1.145  0.00  0.00    -0.015 A 
ATOM     12  C   UNL     1      -1.348  -2.417  -2.395  0.00  0.00    +0.051 A 
ATOM     13  C   UNL     1      -2.040  -2.817  -3.529  0.00  0.00    +0.124 A 
ATOM     14  C   UNL     1      -3.296  -3.391  -3.407  0.00  0.00    +0.091 A 
ATOM     15  C   UNL     1      -3.857  -3.564  -2.151  0.00  0.00    +0.124 A 
ATOM     16  C   UNL     1      -3.159  -3.168  -1.020  0.00  0.00    +0.051 A 
BRANCH  15  17
ATOM     17  O   UNL     1      -5.089  -4.126  -2.028  0.00  0.00    -0.495 OA
ATOM     18  C   UNL     1      -5.748  -4.515  -3.235  0.00  0.00    +0.277 C 
ENDBRANCH  15  17
BRANCH  13  19
ATOM     19  O   UNL     1      -1.487  -2.646  -4.759  0.00  0.00    -0.495 OA
ATOM     20  C   UNL     1      -2.256  -3.081  -5.882  0.00  0.00    +0.277 C 
ENDBRANCH  13  19
ENDBRANCH   4  11
BRANCH   6  21
ATOM     21  C   UNL     1      -0.602  -5.139  -0.051  0.00  0.00    +0.091 C 
ATOM     22  C   UNL     1      -0.303  -6.450   0.035  0.00  0.00    +0.239 C 
ATOM     23  O   UNL     1       0.971  -6.840   0.285  0.00  0.00    -0.271 OA
BRANCH  22  24
ATOM     24  N   UNL     1      -1.298  -7.399  -0.133  0.00  0.00    -0.305 N 
ATOM     25  H   UNL     1      -2.221  -7.120  -0.238  0.00  0.00    +0.149 HD
BRANCH  24  26
ATOM     26  C   UNL     1      -0.955  -8.823  -0.151  0.00  0.00    +0.179 C 
BRANCH  26  27
ATOM     27  C   UNL     1      -2.187  -9.632  -0.467  0.00  0.00    +0.122 A 
ATOM     28  C   UNL     1      -2.599  -9.990  -1.697  0.00  0.00    +0.046 A 
ATOM     29  C   UNL     1      -3.789 -10.734  -1.530  0.00  0.00    +0.041 A 
ATOM     30  C   UNL     1      -4.034 -10.787  -0.208  0.00  0.00    +0.195 A 
ATOM     31  O   UNL     1      -3.057 -10.122   0.431  0.00  0.00    -0.466 OA
ENDBRANCH  26  27
ENDBRANCH  24  26
ENDBRANCH  22  24
ENDBRANCH   6  21
BRANCH   3  32
ATOM     32  C   UNL     1      -2.427   0.037   0.195  0.00  0.00    +0.339 C 
ATOM     33  O   UNL     1      -2.444   1.254   0.249  0.00  0.00    -0.245 OA
BRANCH  32  34
ATOM     34  O   UNL     1      -3.588  -0.655   0.177  0.00  0.00    -0.459 OA
BRANCH  34  35
ATOM     35  C   UNL     1      -4.797   0.106   0.223  0.00  0.00    +0.260 C 
BRANCH  35  36
ATOM     36  C   UNL     1      -5.998  -0.843   0.194  0.00  0.00    +0.200 C 
BRANCH  36  37
ATOM     37  O   UNL     1      -6.006  -1.638   1.381  0.00  0.00    -0.380 OA
ATOM     38  C   UNL     1      -7.093  -2.562   1.454  0.00  0.00    +0.194 C 
ENDBRANCH  36  37
ENDBRANCH  35  36
ENDBRANCH  34  35
ENDBRANCH  32  34
ENDBRANCH   3  32
TORSDOF 12
