REMARK  Name = ZINC24295218
REMARK  12 active torsions:
REMARK  status: ('A' for Active; 'I' for Inactive)
REMARK    1  A    between atoms: C_1  and  C_2
REMARK    2  A    between atoms: C_2  and  C_3
REMARK    3  A    between atoms: C_3  and  C_4
REMARK    4  A    between atoms: C_3  and  C_5
REMARK    5  A    between atoms: C_3  and  C_6
REMARK    6  A    between atoms: N_14  and  C_18
REMARK    7  A    between atoms: C_18  and  C_19
REMARK    8  A    between atoms: N_21  and  N_22
REMARK    9  A    between atoms: C_23  and  C_25
REMARK   10  A    between atoms: C_25  and  C_27
REMARK   11  A    between atoms: C_25  and  O_28
REMARK   12  A    between atoms: O_28  and  C_29
REMARK                            x       y       z     vdW  Elec       q    Type
REMARK                         _______ _______ _______ _____ _____    ______ ____
ROOT
ATOM      1  C   UNL     1      -1.141  -7.678   4.706  0.00  0.00    +0.215 C 
ENDROOT
BRANCH   1  10
ATOM      2  C   UNL     1       0.090  -1.862   1.775  0.00  0.00    -0.005 C 
ATOM      3  C   UNL     1      -1.341  -2.335   2.034  0.00  0.00    +0.006 C 
ATOM      4  C   UNL     1      -1.387  -3.865   1.992  0.00  0.00    +0.035 C 
ATOM      5  C   UNL     1      -0.447  -4.433   3.050  0.00  0.00    +0.113 C 
ATOM      6  C   UNL     1       0.981  -3.949   2.820  0.00  0.00    +0.035 C 
ATOM      7  C   UNL     1       1.016  -2.420   2.858  0.00  0.00    +0.006 C 
ATOM      8  C   UNL     1      -0.499  -5.944   3.043  0.00  0.00    +0.247 C 
ATOM      9  O   UNL     1      -0.206  -6.684   2.128  0.00  0.00    -0.273 OA
ATOM     10  N   UNL     1      -0.939  -6.295   4.269  0.00  0.00    -0.215 N 
ATOM     11  C   UNL     1      -1.169  -5.222   5.036  0.00  0.00    +0.310 C 
ATOM     12  O   UNL     1      -1.571  -5.284   6.181  0.00  0.00    -0.252 OA
ATOM     13  N   UNL     1      -0.904  -4.067   4.396  0.00  0.00    -0.285 N 
ATOM     14  H   UNL     1      -0.968  -3.008   4.686  0.00  0.00    +0.151 HD
BRANCH   2  15
ATOM     15  C   UNL     1       0.135  -0.333   1.805  0.00  0.00    -0.032 C 
ATOM     16  C   UNL     1       1.566   0.141   1.545  0.00  0.00    +0.011 C 
ATOM     17  C   UNL     1      -0.326   0.165   3.176  0.00  0.00    +0.011 C 
BRANCH  15  19
ATOM     18  C   UNL     1      -0.747   1.754   0.751  0.00  0.00    +0.004 C 
ATOM     19  C   UNL     1      -0.791   0.225   0.722  0.00  0.00    +0.003 C 
ENDBRANCH  15  19
ENDBRANCH   2  15
ENDBRANCH   1  10
BRANCH   1  20
ATOM     20  C   UNL     1       0.130  -8.201   5.324  0.00  0.00    +0.247 C 
ATOM     21  O   UNL     1       1.108  -7.487   5.393  0.00  0.00    -0.273 OA
ATOM     22  N   UNL     1       0.179  -9.460   5.801  0.00  0.00    -0.233 N 
ATOM     23  H   UNL     1      -0.708 -10.107   5.739  0.00  0.00    +0.173 HD
BRANCH  22  24
ATOM     24  N   UNL     1       1.361  -9.946   6.376  0.00  0.00    -0.231 N 
ATOM     25  C   UNL     1       1.411 -11.206   6.853  0.00  0.00    +0.270 C 
ATOM     26  O   UNL     1       0.432 -11.919   6.784  0.00  0.00    -0.270 OA
ATOM     27  H   UNL     1       2.249  -9.299   6.438  0.00  0.00    +0.173 HD
BRANCH  25  28
ATOM     28  C   UNL     1       2.682 -11.728   7.471  0.00  0.00    +0.257 C 
ATOM     29  C   UNL     1       2.989 -10.941   8.746  0.00  0.00    +0.062 C 
BRANCH  28  30
ATOM     30  O   UNL     1       2.522 -13.111   7.791  0.00  0.00    -0.480 OA
BRANCH  30  31
ATOM     31  C   UNL     1       3.653 -13.862   7.863  0.00  0.00    +0.122 A 
ATOM     32  C   UNL     1       4.896 -13.260   7.734  0.00  0.00    +0.048 A 
ATOM     33  C   UNL     1       6.044 -14.024   7.813  0.00  0.00    +0.042 A 
ATOM     34  C   UNL     1       5.955 -15.392   8.009  0.00  0.00    +0.124 A 
ATOM     35  C   UNL     1       4.715 -15.995   8.132  0.00  0.00    +0.042 A 
ATOM     36  C   UNL     1       3.565 -15.233   8.059  0.00  0.00    +0.048 A 
ATOM     37  F   UNL     1       7.079 -16.138   8.081  0.00  0.00    -0.205 F 
ENDBRANCH  30  31
ENDBRANCH  28  30
ENDBRANCH  25  28
ENDBRANCH  22  24
ENDBRANCH   1  20
TORSDOF 8
