REMARK  Name = ZINC15675783
REMARK  11 active torsions:
REMARK  status: ('A' for Active; 'I' for Inactive)
REMARK    1  A    between atoms: C_1  and  C_2
REMARK    2  A    between atoms: C_11  and  C_22
REMARK    3  A    between atoms: C_11  and  C_23
REMARK    4  A    between atoms: N_12  and  C_15
REMARK    5  A    between atoms: C_15  and  C_16
REMARK    6  A    between atoms: C_16  and  C_17
REMARK    7  A    between atoms: C_17  and  O_18
REMARK    8  A    between atoms: O_18  and  C_19
REMARK    9  A    between atoms: C_19  and  C_20
REMARK   10  A    between atoms: C_19  and  C_21
REMARK   11  A    between atoms: N_25  and  C_26
REMARK                            x       y       z     vdW  Elec       q    Type
REMARK                         _______ _______ _______ _____ _____    ______ ____
ROOT
ATOM      1  C   UNL     1       0.090  -4.302   4.407  0.00  0.00    +0.086 C 
ATOM      2  C   UNL     1       0.544  -3.111   3.602  0.00  0.00    +0.105 A 
ATOM      3  C   UNL     1      -0.174  -2.505   2.641  0.00  0.00    +0.071 A 
ATOM      4  C   UNL     1       0.612  -1.440   2.138  0.00  0.00    +0.088 A 
ATOM      5  C   UNL     1       1.805  -1.465   2.860  0.00  0.00    +0.154 A 
ATOM      6  O   UNL     1       1.729  -2.492   3.734  0.00  0.00    -0.458 OA
ATOM      7  C   UNL     1       2.606  -0.412   2.394  0.00  0.00    +0.079 A 
ATOM      8  C   UNL     1       1.907   0.230   1.415  0.00  0.00    +0.109 A 
ATOM      9  N   UNL     1       0.682  -0.411   1.248  0.00  0.00    -0.331 N 
ATOM     10  C   UNL     1      -0.288   0.033   0.242  0.00  0.00    +0.157 C 
ATOM     11  C   UNL     1      -0.131   1.537   0.023  0.00  0.00    +0.128 C 
ATOM     12  N   UNL     1       1.262   1.937  -0.143  0.00  0.00    -0.281 N 
ATOM     13  C   UNL     1       2.255   1.407   0.608  0.00  0.00    +0.264 C 
ATOM     14  O   UNL     1       3.377   1.879   0.614  0.00  0.00    -0.268 OA
ATOM     15  C   UNL     1      -0.717   2.276   1.228  0.00  0.00    +0.043 C 
ENDROOT
BRANCH  11  16
ATOM     16  C   UNL     1      -0.902   1.933  -1.209  0.00  0.00    +0.238 C 
ATOM     17  O   UNL     1      -1.951   2.532  -1.102  0.00  0.00    -0.273 OA
ATOM     18  N   UNL     1      -0.426   1.621  -2.431  0.00  0.00    -0.311 N 
ATOM     19  H   UNL     1       0.372   1.076  -2.516  0.00  0.00    +0.149 HD
BRANCH  18  20
ATOM     20  C   UNL     1      -1.115   2.104  -3.631  0.00  0.00    +0.073 C 
ATOM     21  C   UNL     1      -2.250   1.143  -3.989  0.00  0.00    +0.022 C 
ATOM     22  C   UNL     1      -3.205   1.825  -4.971  0.00  0.00    +0.002 C 
ATOM     23  C   UNL     1      -3.475   3.258  -4.508  0.00  0.00    +0.000 C 
ATOM     24  C   UNL     1      -2.864   4.241  -5.510  0.00  0.00    +0.000 C 
ATOM     25  C   UNL     1      -1.348   4.292  -5.313  0.00  0.00    +0.000 C 
ATOM     26  C   UNL     1      -0.713   3.036  -5.913  0.00  0.00    +0.002 C 
ATOM     27  C   UNL     1      -0.123   2.177  -4.793  0.00  0.00    +0.022 C 
ENDBRANCH  18  20
ENDBRANCH  11  16
BRANCH  12  28
ATOM     28  C   UNL     1       1.595   2.943  -1.155  0.00  0.00    +0.111 C 
BRANCH  28  29
ATOM     29  C   UNL     1       1.662   4.324  -0.498  0.00  0.00    +0.047 C 
BRANCH  29  30
ATOM     30  C   UNL     1       2.011   5.375  -1.554  0.00  0.00    +0.161 C 
BRANCH  30  31
ATOM     31  O   UNL     1       2.073   6.664  -0.940  0.00  0.00    -0.377 OA
BRANCH  31  32
ATOM     32  C   UNL     1       2.394   7.723  -1.844  0.00  0.00    +0.112 C 
ATOM     33  C   UNL     1       1.105   8.297  -2.436  0.00  0.00    +0.037 C 
ATOM     34  C   UNL     1       3.145   8.824  -1.094  0.00  0.00    +0.037 C 
ENDBRANCH  31  32
ENDBRANCH  30  31
ENDBRANCH  29  30
ENDBRANCH  28  29
ENDBRANCH  12  28
TORSDOF 7
