REMARK  Name = ZINC38656625
REMARK  11 active torsions:
REMARK  status: ('A' for Active; 'I' for Inactive)
REMARK    1  A    between atoms: C_1  and  C_2
REMARK    2  A    between atoms: C_2  and  C_14
REMARK    3  A    between atoms: C_4  and  N_11
REMARK    4  A    between atoms: C_7  and  C_9
REMARK    5  A    between atoms: C_7  and  C_10
REMARK    6  A    between atoms: C_14  and  N_15
REMARK    7  A    between atoms: N_18  and  C_19
REMARK    8  A    between atoms: C_21  and  C_27
REMARK    9  A    between atoms: C_21  and  C_28
REMARK   10  A    between atoms: C_23  and  C_25
REMARK   11  A    between atoms: C_23  and  C_26
REMARK                            x       y       z     vdW  Elec       q    Type
REMARK                         _______ _______ _______ _____ _____    ______ ____
ROOT
ATOM      1  N   UNL     1      -2.222  -0.302  -1.061  0.00  0.00    -0.299 N 
ATOM      2  C   UNL     1      -3.524  -0.617  -1.204  0.00  0.00    +0.300 C 
ATOM      3  O   UNL     1      -4.059  -1.368  -0.412  0.00  0.00    -0.253 OA
ATOM      4  N   UNL     1      -4.235  -0.098  -2.226  0.00  0.00    -0.297 N 
ATOM      5  H   UNL     1      -1.795   0.298  -1.694  0.00  0.00    +0.150 HD
ATOM      6  H   UNL     1      -3.808   0.501  -2.858  0.00  0.00    +0.151 HD
ENDROOT
BRANCH   4   7
ATOM      7  C   UNL     1      -5.654  -0.441  -2.382  0.00  0.00    +0.072 C 
ATOM      8  C   UNL     1      -5.773  -1.733  -3.193  0.00  0.00    +0.009 C 
ATOM      9  C   UNL     1      -7.246  -2.097  -3.374  0.00  0.00    -0.072 C 
ATOM     10  N   UNL     1      -8.014  -1.003  -3.951  0.00  0.00    +0.386 N 
ATOM     11  C   UNL     1      -7.825   0.324  -3.389  0.00  0.00    -0.072 C 
ATOM     12  C   UNL     1      -6.360   0.675  -3.151  0.00  0.00    +0.009 C 
ATOM     13  C   UNL     1      -8.623   0.510  -2.095  0.00  0.00    -0.010 C 
ATOM     14  C   UNL     1      -8.381   1.345  -4.411  0.00  0.00    -0.010 C 
ATOM     15  C   UNL     1      -7.838  -2.581  -2.051  0.00  0.00    -0.010 C 
ATOM     16  C   UNL     1      -7.306  -3.283  -4.364  0.00  0.00    -0.010 C 
ATOM     17  H   UNL     1      -7.809  -0.961  -4.952  0.00  0.00    -0.084 HD
ATOM     18  H   UNL     1      -9.007  -1.241  -3.891  0.00  0.00    -0.084 HD
ENDBRANCH   4   7
BRANCH   1  19
ATOM     19  C   UNL     1      -1.450  -0.866   0.049  0.00  0.00    +0.112 C 
BRANCH  19  21
ATOM     20  C   UNL     1      -0.062   1.179   0.085  0.00  0.00    +0.013 C 
ATOM     21  C   UNL     1       0.008  -0.346  -0.020  0.00  0.00    -0.014 C 
ATOM     22  C   UNL     1       0.574  -0.773  -1.365  0.00  0.00    +0.035 C 
ATOM     23  C   UNL     1       2.082  -0.626  -1.462  0.00  0.00    +0.119 C 
ATOM     24  C   UNL     1       2.793  -1.316  -0.312  0.00  0.00    +0.034 C 
ATOM     25  C   UNL     1       2.271  -0.916   1.058  0.00  0.00    -0.032 C 
ATOM     26  C   UNL     1       0.758  -0.945   1.154  0.00  0.00    +0.014 C 
ATOM     27  C   UNL     1       2.818  -1.948   2.076  0.00  0.00    +0.011 C 
ATOM     28  C   UNL     1       2.825   0.449   1.475  0.00  0.00    +0.011 C 
BRANCH  23  29
ATOM     29  N   UNL     1       2.492   0.767  -1.606  0.00  0.00    -0.202 NA
ATOM     30  C   UNL     1       3.135   1.128  -2.615  0.00  0.00    +0.235 C 
ATOM     31  O   UNL     1       3.756   1.477  -3.591  0.00  0.00    -0.210 OA
ENDBRANCH  23  29
ENDBRANCH  19  21
ENDBRANCH   1  19
TORSDOF 4
