REMARK  Name = ZINC05299775
REMARK  3 active torsions:
REMARK  status: ('A' for Active; 'I' for Inactive)
REMARK    1  A    between atoms: C_1  and  N_2
REMARK    2  A    between atoms: N_2  and  C_3
REMARK    3  A    between atoms: N_11  and  C_12
REMARK                            x       y       z     vdW  Elec       q    Type
REMARK                         _______ _______ _______ _____ _____    ______ ____
ROOT
ATOM      1  C   UNL     1       5.076   0.705  -0.044  0.00  0.00    +0.134 C 
ATOM      2  N   UNL     1       3.994  -0.283  -0.038  0.00  0.00    -0.285 N 
ATOM      3  C   UNL     1       2.709   0.124  -0.024  0.00  0.00    +0.306 C 
ATOM      4  O   UNL     1       1.812  -0.697  -0.019  0.00  0.00    -0.252 OA
ATOM      5  N   UNL     1       2.420   1.440  -0.014  0.00  0.00    -0.267 N 
ATOM      6  H   UNL     1       3.136   2.094  -0.017  0.00  0.00    +0.156 HD
ENDROOT
BRANCH   5   7
ATOM      7  C   UNL     1       1.078   1.865   0.002  0.00  0.00    +0.060 A 
ATOM      8  C   UNL     1      -0.013   1.076   0.008  0.00  0.00    +0.107 A 
ATOM      9  N   UNL     1      -1.147   1.851   0.017  0.00  0.00    -0.359 N 
ATOM     10  H   UNL     1      -2.055   1.509   0.019  0.00  0.00    +0.165 HD
ATOM     11  C   UNL     1      -0.803   3.184   0.027  0.00  0.00    +0.048 A 
ATOM     12  C   UNL     1       0.602   3.253   0.014  0.00  0.00    +0.021 A 
ATOM     13  C   UNL     1       1.238   4.495   0.014  0.00  0.00    +0.012 A 
ATOM     14  C   UNL     1       0.491   5.640   0.028  0.00  0.00    +0.001 A 
ATOM     15  C   UNL     1      -0.895   5.577   0.041  0.00  0.00    +0.002 A 
ATOM     16  C   UNL     1      -1.544   4.362   0.040  0.00  0.00    +0.026 A 
ENDBRANCH   5   7
BRANCH   2  17
ATOM     17  C   UNL     1       4.309  -1.714  -0.049  0.00  0.00    +0.077 C 
ATOM     18  C   UNL     1       5.136  -2.064   1.190  0.00  0.00    +0.022 C 
ATOM     19  C   UNL     1       5.465  -3.558   1.179  0.00  0.00    +0.002 C 
ATOM     20  C   UNL     1       6.266  -3.894  -0.080  0.00  0.00    +0.000 C 
ATOM     21  C   UNL     1       5.440  -3.545  -1.319  0.00  0.00    +0.002 C 
ATOM     22  C   UNL     1       5.111  -2.050  -1.308  0.00  0.00    +0.022 C 
ENDBRANCH   2  17
TORSDOF 2
