REMARK  Name = ZINC12981467
REMARK  5 active torsions:
REMARK  status: ('A' for Active; 'I' for Inactive)
REMARK    1  A    between atoms: C_1  and  C_2
REMARK    2  A    between atoms: C_2  and  C_3
REMARK    3  A    between atoms: C_2  and  N_15
REMARK    4  A    between atoms: N_18  and  S_21
REMARK    5  A    between atoms: S_21  and  C_24
REMARK                            x       y       z     vdW  Elec       q    Type
REMARK                         _______ _______ _______ _____ _____    ______ ____
ROOT
ATOM      1  N   UNL     1       0.690  -0.478  -1.207  0.00  0.00    -0.290 NA
ATOM      2  C   UNL     1       2.069   0.026  -1.259  0.00  0.00    +0.102 C 
ATOM      3  C   UNL     1       2.805  -0.632  -2.431  0.00  0.00    +0.125 C 
ATOM      4  N   UNL     1       2.018  -0.420  -3.656  0.00  0.00    -0.174 NA
ATOM      5  C   UNL     1       0.590  -0.774  -3.635  0.00  0.00    +0.125 C 
ATOM      6  C   UNL     1      -0.059  -0.110  -2.416  0.00  0.00    +0.102 C 
ENDROOT
BRANCH   4   7
ATOM      7  S   UNL     1       2.720   0.201  -5.021  0.00  0.00    +0.061 S 
ATOM      8  O   UNL     1       1.677   0.793  -5.782  0.00  0.00    -0.153 OA
ATOM      9  O   UNL     1       3.861   0.932  -4.594  0.00  0.00    -0.153 OA
BRANCH   7  10
ATOM     10  C   UNL     1       3.320  -1.162  -5.963  0.00  0.00    +0.107 A 
ATOM     11  C   UNL     1       4.604  -1.633  -5.758  0.00  0.00    +0.030 A 
ATOM     12  C   UNL     1       5.075  -2.701  -6.497  0.00  0.00    +0.023 A 
ATOM     13  C   UNL     1       4.263  -3.300  -7.443  0.00  0.00    +0.059 A 
ATOM     14  C   UNL     1       2.977  -2.829  -7.648  0.00  0.00    +0.061 A 
ATOM     15  C   UNL     1       2.505  -1.763  -6.904  0.00  0.00    +0.050 A 
ATOM     16 CL   UNL     1       1.956  -3.580  -8.835  0.00  0.00    -0.082 Cl
ATOM     17 CL   UNL     1       4.855  -4.642  -8.372  0.00  0.00    -0.082 Cl
ENDBRANCH   7  10
ENDBRANCH   4   7
BRANCH   1  19
ATOM     18  C   UNL     1      -0.019   1.526   0.010  0.00  0.00    +0.032 C 
ATOM     19  C   UNL     1       0.002  -0.004   0.002  0.00  0.00    +0.120 C 
BRANCH  19  20
ATOM     20  C   UNL     1       0.731  -0.503   1.223  0.00  0.00    +0.127 A 
ATOM     21  N   UNL     1       0.303  -0.088   2.444  0.00  0.00    -0.309 N 
ATOM     22  H   UNL     1      -0.454   0.515   2.508  0.00  0.00    +0.170 HD
ATOM     23  C   UNL     1       0.923  -0.508   3.571  0.00  0.00    +0.259 A 
ATOM     24  O   UNL     1       0.550  -0.145   4.671  0.00  0.00    -0.267 OA
ATOM     25  C   UNL     1       2.066  -1.421   3.415  0.00  0.00    +0.065 A 
ATOM     26  C   UNL     1       2.773  -1.911   4.511  0.00  0.00    +0.015 A 
ATOM     27  C   UNL     1       3.836  -2.763   4.307  0.00  0.00    +0.001 A 
ATOM     28  C   UNL     1       4.206  -3.136   3.021  0.00  0.00    +0.002 A 
ATOM     29  C   UNL     1       3.520  -2.663   1.925  0.00  0.00    +0.028 A 
ATOM     30  C   UNL     1       2.439  -1.798   2.106  0.00  0.00    +0.078 A 
ATOM     31  N   UNL     1       1.732  -1.312   1.054  0.00  0.00    -0.232 NA
ENDBRANCH  19  20
ENDBRANCH   1  19
TORSDOF 4
