REMARK  Name = ZINC66387578
REMARK  7 active torsions:
REMARK  status: ('A' for Active; 'I' for Inactive)
REMARK    1  A    between atoms: C_1  and  C_2
REMARK    2  A    between atoms: C_3  and  N_13
REMARK    3  A    between atoms: C_5  and  C_11
REMARK    4  A    between atoms: C_7  and  N_8
REMARK    5  A    between atoms: N_13  and  C_14
REMARK    6  A    between atoms: C_20  and  O_22
REMARK    7  A    between atoms: O_22  and  C_23
REMARK                            x       y       z     vdW  Elec       q    Type
REMARK                         _______ _______ _______ _____ _____    ______ ____
ROOT
ATOM      1  C   UNL     1      -0.539   1.447   0.089  0.00  0.00    +0.048 C 
ATOM      2  C   UNL     1      -0.248  -0.031   0.040  0.00  0.00    +0.001 A 
ATOM      3  C   UNL     1      -0.351  -0.718  -1.165  0.00  0.00    +0.034 A 
ATOM      4  C   UNL     1      -0.083  -2.077  -1.213  0.00  0.00    +0.042 A 
ATOM      5  C   UNL     1       0.291  -2.751  -0.049  0.00  0.00    +0.056 A 
ATOM      6  C   UNL     1       0.392  -2.052   1.155  0.00  0.00    +0.052 A 
ATOM      7  C   UNL     1       0.127  -0.698   1.191  0.00  0.00    +0.132 A 
ENDROOT
BRANCH   7   8
ATOM      8  N   UNL     1       0.240   0.042   2.468  0.00  0.00    +0.057 N 
ATOM      9  O   UNL     1       0.674   1.171   2.476  0.00  0.00    -0.126 OA
ATOM     10  O   UNL     1      -0.101  -0.482   3.502  0.00  0.00    -0.126 OA
ENDBRANCH   7   8
BRANCH   5  11
ATOM     11  C   UNL     1       0.569  -4.155  -0.090  0.00  0.00    +0.099 C 
ATOM     12  N   UNL     1       0.790  -5.269  -0.123  0.00  0.00    -0.191 NA
ENDBRANCH   5  11
BRANCH   3  13
ATOM     13  N   UNL     1      -0.726  -0.038  -2.326  0.00  0.00    -0.341 N 
ATOM     14  H   UNL     1      -0.914   0.913  -2.293  0.00  0.00    +0.146 HD
BRANCH  13  15
ATOM     15  C   UNL     1      -0.835  -0.762  -3.595  0.00  0.00    +0.073 C 
ATOM     16  C   UNL     1       0.543  -0.839  -4.258  0.00  0.00    +0.041 C 
ATOM     17  C   UNL     1       0.432  -1.626  -5.568  0.00  0.00    +0.113 C 
ATOM     18  N   UNL     1      -0.607  -1.008  -6.404  0.00  0.00    -0.267 N 
ATOM     19  C   UNL     1      -1.945  -0.804  -5.833  0.00  0.00    +0.113 C 
ATOM     20  C   UNL     1      -1.807  -0.026  -4.520  0.00  0.00    +0.041 C 
ATOM     21  C   UNL     1      -0.337  -0.636  -7.671  0.00  0.00    +0.403 C 
ATOM     22  O   UNL     1       0.774  -0.810  -8.132  0.00  0.00    -0.226 OA
BRANCH  21  23
ATOM     23  O   UNL     1      -1.298  -0.071  -8.426  0.00  0.00    -0.454 OA
ATOM     24  C   UNL     1      -0.943   0.299  -9.759  0.00  0.00    +0.282 C 
ENDBRANCH  21  23
ENDBRANCH  13  15
ENDBRANCH   3  13
TORSDOF 5
