REMARK  Name = ZINC28056228
REMARK  2 active torsions:
REMARK  status: ('A' for Active; 'I' for Inactive)
REMARK    1  A    between atoms: C_5  and  C_7
REMARK    2  A    between atoms: C_24  and  C_26
REMARK                            x       y       z     vdW  Elec       q    Type
REMARK                         _______ _______ _______ _____ _____    ______ ____
ROOT
ATOM      1  C   UNL     1      -0.210  -2.275   0.834  0.00  0.00    +0.237 C 
ATOM      2  C   UNL     1      -1.661  -2.386   0.423  0.00  0.00    +0.026 C 
ATOM      3  C   UNL     1      -2.333  -1.279   0.102  0.00  0.00    +0.050 C 
ATOM      4  C   UNL     1      -1.619   0.020   0.153  0.00  0.00    +0.038 A 
ATOM      5  C   UNL     1      -2.306   1.227   0.177  0.00  0.00    +0.013 A 
ATOM      6  C   UNL     1      -1.597   2.412   0.222  0.00  0.00    +0.001 A 
ATOM      7  C   UNL     1      -0.213   2.399   0.243  0.00  0.00    +0.004 A 
ATOM      8  C   UNL     1       0.478   1.201   0.220  0.00  0.00    +0.046 A 
ATOM      9  C   UNL     1      -0.218   0.007   0.176  0.00  0.00    +0.131 A 
ATOM     10  O   UNL     1       0.422  -1.189   0.156  0.00  0.00    -0.479 OA
ATOM     11  N   UNL     1      -3.678  -1.306  -0.287  0.00  0.00    -0.282 N 
ATOM     12  C   UNL     1      -4.221  -2.540  -0.604  0.00  0.00    +0.240 A 
ATOM     13  N   UNL     1      -5.331  -2.861  -1.204  0.00  0.00    -0.092 NA
ATOM     14  N   UNL     1      -5.431  -4.143  -1.301  0.00  0.00    -0.021 NA
ATOM     15  N   UNL     1      -4.400  -4.717  -0.771  0.00  0.00    -0.042 NA
ATOM     16  N   UNL     1      -3.579  -3.697  -0.294  0.00  0.00    -0.201 N 
ATOM     17  C   UNL     1      -2.298  -3.753   0.397  0.00  0.00    +0.174 C 
ATOM     18  H   UNL     1      -4.256  -0.372  -0.331  0.00  0.00    +0.155 HD
ENDROOT
BRANCH   1  23
ATOM     19  C   UNL     1      -0.228  -0.560   4.198  0.00  0.00    +0.001 A 
ATOM     20  C   UNL     1       0.012  -1.621   5.051  0.00  0.00    +0.003 A 
ATOM     21  C   UNL     1       0.181  -2.894   4.541  0.00  0.00    +0.039 A 
ATOM     22  C   UNL     1       0.105  -3.108   3.175  0.00  0.00    +0.130 A 
ATOM     23  C   UNL     1      -0.131  -2.044   2.321  0.00  0.00    +0.032 A 
ATOM     24  C   UNL     1      -0.300  -0.772   2.833  0.00  0.00    +0.010 A 
ATOM     25  F   UNL     1       0.265  -4.353   2.676  0.00  0.00    -0.205 F 
ENDBRANCH   1  23
BRANCH  17  26
ATOM     26  C   UNL     1      -2.514  -4.231   1.810  0.00  0.00    -0.016 A 
ATOM     27  C   UNL     1      -3.174  -3.425   2.719  0.00  0.00    +0.006 A 
ATOM     28  C   UNL     1      -3.377  -3.864   4.013  0.00  0.00    +0.003 A 
ATOM     29  C   UNL     1      -2.911  -5.105   4.404  0.00  0.00    +0.038 A 
ATOM     30  C   UNL     1      -2.246  -5.911   3.496  0.00  0.00    +0.124 A 
ATOM     31  C   UNL     1      -2.048  -5.473   2.198  0.00  0.00    +0.044 A 
ATOM     32  F   UNL     1      -1.790  -7.125   3.877  0.00  0.00    -0.205 F 
ENDBRANCH  17  26
TORSDOF 2
