REMARK  Name = ZINC63478308
REMARK  10 active torsions:
REMARK  status: ('A' for Active; 'I' for Inactive)
REMARK    1  A    between atoms: C_1  and  C_2
REMARK    2  A    between atoms: C_2  and  C_4
REMARK    3  A    between atoms: C_2  and  S_20
REMARK    4  A    between atoms: N_6  and  C_7
REMARK    5  A    between atoms: C_7  and  C_8
REMARK    6  A    between atoms: C_8  and  C_9
REMARK    7  A    between atoms: C_13  and  O_18
REMARK    8  A    between atoms: O_18  and  C_19
REMARK    9  A    between atoms: S_20  and  C_21
REMARK   10  A    between atoms: N_26  and  C_27
REMARK                            x       y       z     vdW  Elec       q    Type
REMARK                         _______ _______ _______ _____ _____    ______ ____
ROOT
ATOM      1  C   UNL     1      -1.412  -0.526   0.013  0.00  0.00    +0.226 C 
ATOM      2  O   UNL     1      -1.927  -0.901  -1.019  0.00  0.00    -0.275 OA
ATOM      3  N   UNL     1      -2.103  -0.575   1.169  0.00  0.00    -0.314 N 
ATOM      4  H   UNL     1      -1.691  -0.275   1.994  0.00  0.00    +0.149 HD
ENDROOT
BRANCH   1   6
ATOM      5  C   UNL     1      -0.019   1.526   0.010  0.00  0.00    +0.029 C 
ATOM      6  C   UNL     1       0.002  -0.004   0.002  0.00  0.00    +0.133 C 
BRANCH   6   7
ATOM      7  S   UNL     1       0.851  -0.589  -1.490  0.00  0.00    -0.100 S 
BRANCH   7   8
ATOM      8  C   UNL     1       2.558  -0.012  -1.279  0.00  0.00    +0.294 C 
ATOM      9  N   UNL     1       3.120  -0.527  -0.024  0.00  0.00    -0.135 NA
ATOM     10  N   UNL     1       3.421   0.413   0.711  0.00  0.00    -0.066 NA
ATOM     11  N   UNL     1       3.145   1.658   0.145  0.00  0.00    -0.164 N 
ATOM     12  N   UNL     1       2.590   1.455  -1.134  0.00  0.00    -0.201 N 
ATOM     13  H   UNL     1       3.308   2.519   0.562  0.00  0.00    +0.195 HD
BRANCH  12  14
ATOM     14  C   UNL     1       2.167   2.419  -2.053  0.00  0.00    +0.052 A 
ATOM     15  C   UNL     1       1.635   2.029  -3.275  0.00  0.00    +0.026 A 
ATOM     16  C   UNL     1       1.217   2.984  -4.181  0.00  0.00    +0.022 A 
ATOM     17  C   UNL     1       1.329   4.328  -3.873  0.00  0.00    +0.041 A 
ATOM     18  C   UNL     1       1.860   4.720  -2.656  0.00  0.00    +0.022 A 
ATOM     19  C   UNL     1       2.273   3.769  -1.744  0.00  0.00    +0.026 A 
ATOM     20 CL   UNL     1       0.804   5.525  -5.015  0.00  0.00    -0.084 Cl
ENDBRANCH  12  14
ENDBRANCH   7   8
ENDBRANCH   6   7
ENDBRANCH   1   6
BRANCH   3  21
ATOM     21  C   UNL     1      -3.478  -1.082   1.179  0.00  0.00    +0.108 C 
BRANCH  21  22
ATOM     22  C   UNL     1      -4.029  -1.031   2.605  0.00  0.00    +0.052 C 
BRANCH  22  23
ATOM     23  C   UNL     1      -5.443  -1.553   2.616  0.00  0.00    -0.040 C 
ATOM     24  C   UNL     1      -5.841  -2.813   2.898  0.00  0.00    -0.001 A 
ATOM     25  C   UNL     1      -5.103  -4.029   3.265  0.00  0.00    +0.013 A 
ATOM     26  C   UNL     1      -5.789  -5.169   3.493  0.00  0.00    +0.046 A 
ATOM     27  C   UNL     1      -7.192  -5.221   3.386  0.00  0.00    +0.122 A 
ATOM     28  C   UNL     1      -7.938  -4.138   3.051  0.00  0.00    +0.071 A 
ATOM     29  C   UNL     1      -7.316  -2.892   2.792  0.00  0.00    +0.046 A 
ATOM     30  N   UNL     1      -7.810  -1.722   2.457  0.00  0.00    -0.380 N 
ATOM     31  C   UNL     1      -6.702  -0.770   2.320  0.00  0.00    +0.144 C 
ATOM     32  H   UNL     1      -8.750  -1.520   2.326  0.00  0.00    +0.160 HD
BRANCH  27  33
ATOM     33  O   UNL     1      -7.821  -6.398   3.627  0.00  0.00    -0.495 OA
ATOM     34  C   UNL     1      -6.999  -7.514   3.975  0.00  0.00    +0.277 C 
ENDBRANCH  27  33
ENDBRANCH  22  23
ENDBRANCH  21  22
ENDBRANCH   3  21
TORSDOF 8
