REMARK  Name = ZINC14476124
REMARK  8 active torsions:
REMARK  status: ('A' for Active; 'I' for Inactive)
REMARK    1  A    between atoms: C_1  and  C_2
REMARK    2  A    between atoms: C_2  and  C_3
REMARK    3  A    between atoms: C_3  and  C_4
REMARK    4  A    between atoms: C_4  and  O_5
REMARK    5  A    between atoms: O_5  and  C_6
REMARK    6  A    between atoms: C_13  and  C_22
REMARK    7  A    between atoms: C_24  and  N_29
REMARK    8  A    between atoms: C_27  and  O_28
REMARK                            x       y       z     vdW  Elec       q    Type
REMARK                         _______ _______ _______ _____ _____    ______ ____
ROOT
ATOM      1  C   UNL     1      -2.756  -1.647   0.301  0.00  0.00    +0.142 A 
ATOM      2  C   UNL     1      -4.138  -1.600   0.316  0.00  0.00    +0.047 A 
ATOM      3  C   UNL     1      -4.865  -2.767   0.170  0.00  0.00    +0.004 A 
ATOM      4  C   UNL     1      -4.213  -3.972   0.009  0.00  0.00    +0.006 A 
ATOM      5  C   UNL     1      -2.824  -4.032  -0.007  0.00  0.00    -0.016 A 
ATOM      6  C   UNL     1      -2.094  -2.867   0.134  0.00  0.00    +0.074 A 
ATOM      7  N   UNL     1      -0.700  -2.868   0.201  0.00  0.00    -0.334 N 
ATOM      8  C   UNL     1      -0.137  -3.982  -0.562  0.00  0.00    +0.109 C 
ATOM      9  C   UNL     1      -0.652  -5.304   0.011  0.00  0.00    +0.029 C 
ATOM     10  C   UNL     1      -2.181  -5.375  -0.190  0.00  0.00    +0.049 C 
ATOM     11  C   UNL     1      -2.359  -5.863  -1.609  0.00  0.00    -0.023 C 
ATOM     12  C   UNL     1      -1.253  -6.450  -2.025  0.00  0.00    -0.030 C 
ATOM     13  C   UNL     1      -0.206  -6.459  -0.928  0.00  0.00    +0.033 C 
ATOM     14  H   UNL     1      -0.034  -2.169   0.728  0.00  0.00    +0.147 HD
ENDROOT
BRANCH   8  15
ATOM     15  C   UNL     1      -0.553  -3.864  -2.006  0.00  0.00    +0.017 A 
ATOM     16  C   UNL     1      -1.783  -3.325  -2.329  0.00  0.00    +0.041 A 
ATOM     17  C   UNL     1      -2.163  -3.211  -3.653  0.00  0.00    +0.127 A 
ATOM     18  C   UNL     1      -1.318  -3.647  -4.657  0.00  0.00    +0.036 A 
ATOM     19  C   UNL     1      -0.089  -4.192  -4.339  0.00  0.00    +0.048 A 
ATOM     20  C   UNL     1       0.297  -4.302  -3.011  0.00  0.00    +0.122 A 
BRANCH  17  21
ATOM     21  N   UNL     1      -3.479  -2.627  -3.997  0.00  0.00    +0.056 N 
ATOM     22  O   UNL     1      -3.817  -2.531  -5.163  0.00  0.00    -0.126 OA
ATOM     23  O   UNL     1      -4.224  -2.243  -3.113  0.00  0.00    -0.126 OA
ENDBRANCH  17  21
BRANCH  20  24
ATOM     24  O   UNL     1       1.505  -4.838  -2.696  0.00  0.00    -0.506 OA
ATOM     25  H   UNL     1       2.178  -5.185  -3.494  0.00  0.00    +0.292 HD
ENDBRANCH  20  24
ENDBRANCH   8  15
BRANCH   1  26
ATOM     26  O   UNL     1      -2.037  -0.501   0.444  0.00  0.00    -0.490 OA
BRANCH  26  27
ATOM     27  C   UNL     1      -2.776   0.712   0.605  0.00  0.00    +0.229 C 
BRANCH  27  28
ATOM     28  C   UNL     1      -1.804   1.885   0.750  0.00  0.00    +0.041 C 
BRANCH  28  30
ATOM     29  C   UNL     1      -1.624   4.357   1.067  0.00  0.00    +0.004 C 
ATOM     30  C   UNL     1      -2.595   3.183   0.922  0.00  0.00    -0.000 C 
ENDBRANCH  28  30
ENDBRANCH  27  28
ENDBRANCH  26  27
ENDBRANCH   1  26
TORSDOF 7
