REMARK  Name = ZINC22937069
REMARK  6 active torsions:
REMARK  status: ('A' for Active; 'I' for Inactive)
REMARK    1  A    between atoms: C_7  and  C_10
REMARK    2  A    between atoms: N_12  and  C_13
REMARK    3  A    between atoms: C_13  and  C_14
REMARK    4  A    between atoms: C_14  and  C_15
REMARK    5  A    between atoms: C_15  and  N_16
REMARK    6  A    between atoms: N_19  and  C_22
REMARK                            x       y       z     vdW  Elec       q    Type
REMARK                         _______ _______ _______ _____ _____    ______ ____
ROOT
ATOM      1  C   UNL     1       0.476  -3.155  -0.009  0.00  0.00    +0.249 C 
ATOM      2  O   UNL     1      -0.717  -2.913  -0.011  0.00  0.00    -0.270 OA
ATOM      3  N   UNL     1       0.905  -4.432  -0.009  0.00  0.00    -0.311 N 
ATOM      4  H   UNL     1       1.856  -4.625  -0.008  0.00  0.00    +0.149 HD
ENDROOT
BRANCH   1  11
ATOM      5  C   UNL     1      -0.016   1.313   0.009  0.00  0.00    +0.118 A 
ATOM      6  C   UNL     1       1.188   2.019   0.002  0.00  0.00    -0.008 A 
ATOM      7  C   UNL     1       2.363   1.335  -0.018  0.00  0.00    +0.050 A 
ATOM      8  N   UNL     1       2.353  -0.021  -0.007  0.00  0.00    -0.218 N 
ATOM      9  C   UNL     1       1.153  -0.679  -0.003  0.00  0.00    +0.168 A 
ATOM     10  N   UNL     1       0.002  -0.004   0.002  0.00  0.00    -0.235 NA
ATOM     11  C   UNL     1       1.446  -2.056  -0.005  0.00  0.00    +0.100 A 
ATOM     12  C   UNL     1       2.848  -2.176  -0.002  0.00  0.00    +0.150 A 
ATOM     13  N   UNL     1       3.372  -0.980  -0.002  0.00  0.00    -0.172 NA
ATOM     14  C   UNL     1       3.634   2.137  -0.068  0.00  0.00    +0.056 C 
ATOM     15  C   UNL     1       4.075   2.590   1.288  0.00  0.00    +0.006 C 
ATOM     16  C   UNL     1       3.374   3.784   1.904  0.00  0.00    +0.000 C 
ATOM     17  C   UNL     1       1.974   3.386   2.407  0.00  0.00    +0.000 C 
ATOM     18  C   UNL     1       0.930   4.008   1.440  0.00  0.00    +0.005 C 
ATOM     19  C   UNL     1       1.226   3.523   0.021  0.00  0.00    +0.038 C 
ENDBRANCH   1  11
BRANCH   3  20
ATOM     20  C   UNL     1      -0.064  -5.530  -0.013  0.00  0.00    +0.106 C 
BRANCH  20  21
ATOM     21  C   UNL     1       0.679  -6.867  -0.013  0.00  0.00    +0.034 C 
BRANCH  21  22
ATOM     22  C   UNL     1      -0.333  -8.014  -0.018  0.00  0.00    +0.086 C 
BRANCH  22  23
ATOM     23  N   UNL     1       0.381  -9.298  -0.018  0.00  0.00    -0.306 NA
ATOM     24  C   UNL     1       1.122  -9.489  -1.273  0.00  0.00    +0.066 C 
ATOM     25  C   UNL     1       1.898 -10.806  -1.209  0.00  0.00    -0.063 C 
ATOM     26  N   UNL     1       0.960 -11.917  -1.001  0.00  0.00    +0.383 N 
ATOM     27  C   UNL     1       0.245 -11.726   0.268  0.00  0.00    -0.063 C 
ATOM     28  C   UNL     1      -0.544 -10.416   0.217  0.00  0.00    +0.066 C 
ATOM     29  H   UNL     1       0.295 -11.943  -1.760  0.00  0.00    -0.081 HD
BRANCH  26  30
ATOM     30  C   UNL     1       1.703 -13.183  -0.958  0.00  0.00    -0.068 C 
ATOM     31  C   UNL     1       2.446 -13.384  -2.280  0.00  0.00    -0.015 C 
ATOM     32  C   UNL     1       3.220 -14.703  -2.235  0.00  0.00    -0.002 C 
ATOM     33  C   UNL     1       2.243 -15.860  -2.018  0.00  0.00    -0.000 C 
ATOM     34  C   UNL     1       1.500 -15.660  -0.696  0.00  0.00    -0.002 C 
ATOM     35  C   UNL     1       0.726 -14.341  -0.741  0.00  0.00    -0.015 C 
ENDBRANCH  26  30
ENDBRANCH  22  23
ENDBRANCH  21  22
ENDBRANCH  20  21
ENDBRANCH   3  20
TORSDOF 6
