REMARK  Name = ZINC09346231
REMARK  9 active torsions:
REMARK  status: ('A' for Active; 'I' for Inactive)
REMARK    1  A    between atoms: C_1  and  C_2
REMARK    2  A    between atoms: C_2  and  O_3
REMARK    3  A    between atoms: O_3  and  C_4
REMARK    4  A    between atoms: C_7  and  C_12
REMARK    5  A    between atoms: C_9  and  O_10
REMARK    6  A    between atoms: O_10  and  C_11
REMARK    7  A    between atoms: C_23  and  C_25
REMARK    8  A    between atoms: C_35  and  S_37
REMARK    9  A    between atoms: S_37  and  C_38
REMARK                            x       y       z     vdW  Elec       q    Type
REMARK                         _______ _______ _______ _____ _____    ______ ____
ROOT
ATOM      1  C   UNL     1       1.107  -6.044  -1.844  0.00  0.00    +0.159 C 
ATOM      2  C   UNL     1      -0.180  -6.548  -2.458  0.00  0.00    +0.025 C 
ATOM      3  C   UNL     1      -0.884  -7.480  -1.783  0.00  0.00    +0.058 C 
ATOM      4  C   UNL     1      -2.151  -7.957  -2.395  0.00  0.00    +0.040 A 
ATOM      5  C   UNL     1      -2.774  -9.117  -1.959  0.00  0.00    +0.013 A 
ATOM      6  C   UNL     1      -3.951  -9.526  -2.557  0.00  0.00    +0.001 A 
ATOM      7  C   UNL     1      -4.504  -8.783  -3.586  0.00  0.00    +0.004 A 
ATOM      8  C   UNL     1      -3.889  -7.625  -4.025  0.00  0.00    +0.046 A 
ATOM      9  C   UNL     1      -2.711  -7.204  -3.434  0.00  0.00    +0.131 A 
ATOM     10  O   UNL     1      -2.090  -6.068  -3.842  0.00  0.00    -0.479 OA
ATOM     11  C   UNL     1      -0.662  -6.037  -3.784  0.00  0.00    +0.234 C 
ATOM     12  N   UNL     1      -0.458  -7.965  -0.592  0.00  0.00    -0.326 N 
ATOM     13  C   UNL     1       0.647  -7.584   0.012  0.00  0.00    +0.216 C 
ATOM     14  N   UNL     1       1.471  -6.632  -0.548  0.00  0.00    -0.209 N 
ATOM     15  N   UNL     1       2.539  -6.453   0.335  0.00  0.00    -0.239 N 
ATOM     16  C   UNL     1       2.315  -7.302   1.387  0.00  0.00    +0.174 C 
ATOM     17  N   UNL     1       1.203  -7.960   1.178  0.00  0.00    -0.192 NA
ATOM     18  H   UNL     1      -1.004  -8.638  -0.156  0.00  0.00    +0.169 HD
ATOM     19  H   UNL     1       3.289  -5.848   0.225  0.00  0.00    +0.172 HD
ENDROOT
BRANCH   1  23
ATOM     20  C   UNL     1       0.777  -1.811  -1.336  0.00  0.00    +0.162 A 
ATOM     21  C   UNL     1       0.243  -2.669  -0.388  0.00  0.00    +0.050 A 
ATOM     22  C   UNL     1       0.352  -4.037  -0.555  0.00  0.00    +0.009 A 
ATOM     23  C   UNL     1       0.992  -4.552  -1.667  0.00  0.00    -0.017 A 
ATOM     24  C   UNL     1       1.526  -3.702  -2.616  0.00  0.00    +0.055 A 
ATOM     25  C   UNL     1       1.416  -2.330  -2.458  0.00  0.00    +0.162 A 
BRANCH  25  26
ATOM     26  O   UNL     1       1.936  -1.492  -3.394  0.00  0.00    -0.491 OA
ATOM     27  C   UNL     1       2.578  -2.095  -4.520  0.00  0.00    +0.277 C 
ENDBRANCH  25  26
BRANCH  20  28
ATOM     28  O   UNL     1       0.671  -0.465  -1.174  0.00  0.00    -0.489 OA
BRANCH  28  30
ATOM     29  C   UNL     1      -0.019   1.526   0.010  0.00  0.00    +0.048 C 
ATOM     30  C   UNL     1       0.002  -0.004   0.002  0.00  0.00    +0.226 C 
ENDBRANCH  28  30
ENDBRANCH  20  28
ENDBRANCH   1  23
BRANCH  11  31
ATOM     31  C   UNL     1      -0.101  -6.900  -4.885  0.00  0.00    -0.003 A 
ATOM     32  C   UNL     1      -0.751  -8.064  -5.250  0.00  0.00    +0.007 A 
ATOM     33  C   UNL     1      -0.236  -8.856  -6.259  0.00  0.00    +0.000 A 
ATOM     34  C   UNL     1       0.929  -8.483  -6.904  0.00  0.00    +0.000 A 
ATOM     35  C   UNL     1       1.578  -7.319  -6.539  0.00  0.00    +0.000 A 
ATOM     36  C   UNL     1       1.061  -6.525  -5.533  0.00  0.00    +0.007 A 
ENDBRANCH  11  31
BRANCH  16  37
ATOM     37  S   UNL     1       3.361  -7.484   2.793  0.00  0.00    -0.092 S 
ATOM     38  C   UNL     1       2.525  -8.738   3.802  0.00  0.00    +0.093 C 
ENDBRANCH  16  37
TORSDOF 6
