REMARK  Name = ZINC63385762
REMARK  4 active torsions:
REMARK  status: ('A' for Active; 'I' for Inactive)
REMARK    1  A    between atoms: C_1  and  O_2
REMARK    2  A    between atoms: O_2  and  C_3
REMARK    3  A    between atoms: N_23  and  C_26
REMARK    4  A    between atoms: C_26  and  C_27
REMARK                            x       y       z     vdW  Elec       q    Type
REMARK                         _______ _______ _______ _____ _____    ______ ____
ROOT
ATOM      1  C   UNL     1      -1.200  -0.637   0.010  0.00  0.00    +0.121 A 
ATOM      2  C   UNL     1      -2.360   0.151   0.020  0.00  0.00    +0.047 A 
ATOM      3  C   UNL     1      -3.622  -0.348   0.035  0.00  0.00    +0.029 A 
ATOM      4  C   UNL     1      -3.759  -1.810   0.041  0.00  0.00    +0.043 A 
ATOM      5  N   UNL     1      -4.821  -2.559   0.035  0.00  0.00    -0.375 N 
ATOM      6  C   UNL     1      -4.398  -3.955   0.138  0.00  0.00    +0.140 C 
ATOM      7  C   UNL     1      -2.878  -3.931   0.011  0.00  0.00    -0.035 C 
ATOM      8  C   UNL     1      -2.523  -2.654   0.019  0.00  0.00    +0.003 A 
ATOM      9  C   UNL     1      -1.206  -1.999   0.003  0.00  0.00    +0.055 A 
ATOM     10  C   UNL     1      -2.079  -5.197  -0.179  0.00  0.00    +0.048 C 
ATOM     11  C   UNL     1      -2.783  -5.992  -1.294  0.00  0.00    +0.086 C 
ATOM     12  N   UNL     1      -4.216  -6.109  -1.003  0.00  0.00    -0.297 NA
ATOM     13  C   UNL     1      -4.930  -4.824  -0.997  0.00  0.00    +0.148 C 
ATOM     14  C   UNL     1      -4.793  -4.136  -2.318  0.00  0.00    +0.006 A 
ATOM     15  C   UNL     1      -3.685  -3.689  -3.006  0.00  0.00    +0.023 A 
ATOM     16  C   UNL     1      -3.910  -3.080  -4.236  0.00  0.00    +0.018 A 
ATOM     17  C   UNL     1      -5.186  -2.932  -4.743  0.00  0.00    +0.017 A 
ATOM     18  C   UNL     1      -6.304  -3.379  -4.057  0.00  0.00    +0.025 A 
ATOM     19  C   UNL     1      -6.092  -3.992  -2.821  0.00  0.00    +0.042 A 
ATOM     20  N   UNL     1      -7.013  -4.526  -1.935  0.00  0.00    -0.265 N 
ATOM     21  C   UNL     1      -6.420  -5.037  -0.836  0.00  0.00    +0.247 C 
ATOM     22  O   UNL     1      -6.976  -5.569   0.102  0.00  0.00    -0.273 OA
ATOM     23 BR   UNL     1      -2.437  -2.442  -5.236  0.00  0.00    -0.050 Br
ATOM     24  H   UNL     1      -4.660  -6.763  -1.630  0.00  0.00    +0.123 HD
ATOM     25  H   UNL     1      -5.737  -2.246  -0.028  0.00  0.00    +0.160 HD
ENDROOT
BRANCH   1  27
ATOM     26  C   UNL     1      -0.017   1.425   0.010  0.00  0.00    +0.277 C 
ATOM     27  O   UNL     1       0.002  -0.004   0.002  0.00  0.00    -0.495 OA
ENDBRANCH   1  27
BRANCH  20  28
ATOM     28  C   UNL     1      -8.460  -4.534  -2.165  0.00  0.00    +0.140 C 
BRANCH  28  29
ATOM     29  C   UNL     1      -8.847  -5.797  -2.889  0.00  0.00    -0.015 C 
ATOM     30  C   UNL     1      -9.764  -6.586  -2.386  0.00  0.00    +0.005 C 
ENDBRANCH  28  29
ENDBRANCH  20  28
TORSDOF 3
