REMARK  Name = ZINC09948583
REMARK  5 active torsions:
REMARK  status: ('A' for Active; 'I' for Inactive)
REMARK    1  A    between atoms: C_1  and  C_2
REMARK    2  A    between atoms: C_3  and  C_14
REMARK    3  A    between atoms: N_5  and  C_7
REMARK    4  A    between atoms: N_15  and  N_16
REMARK    5  A    between atoms: C_17  and  C_19
REMARK                            x       y       z     vdW  Elec       q    Type
REMARK                         _______ _______ _______ _____ _____    ______ ____
ROOT
ATOM      1  N   UNL     1      -7.167  -0.503   0.568  0.00  0.00    -0.204 N 
ATOM      2  C   UNL     1      -5.965  -0.807   0.041  0.00  0.00    +0.276 C 
ATOM      3  O   UNL     1      -5.879  -1.648  -0.830  0.00  0.00    -0.270 OA
ATOM      4  H   UNL     1      -7.247   0.220   1.209  0.00  0.00    +0.177 HD
ENDROOT
BRANCH   2   5
ATOM      5  C   UNL     1      -4.726  -0.103   0.532  0.00  0.00    +0.297 C 
ATOM      6  C   UNL     1      -4.803   1.388   0.175  0.00  0.00    +0.283 C 
ATOM      7  O   UNL     1      -3.614   2.025   0.652  0.00  0.00    -0.484 OA
ATOM      8  C   UNL     1      -2.434   1.401   0.383  0.00  0.00    +0.163 A 
ATOM      9  C   UNL     1      -1.272   2.113   0.494  0.00  0.00    +0.058 A 
ATOM     10  C   UNL     1      -0.042   1.492   0.224  0.00  0.00    -0.014 A 
ATOM     11  C   UNL     1       1.169   2.198   0.327  0.00  0.00    +0.008 A 
ATOM     12  C   UNL     1       2.344   1.564   0.064  0.00  0.00    +0.001 A 
ATOM     13  C   UNL     1       2.366   0.221  -0.308  0.00  0.00    +0.001 A 
ATOM     14  C   UNL     1       1.213  -0.495  -0.420  0.00  0.00    +0.008 A 
ATOM     15  C   UNL     1      -0.019   0.126  -0.155  0.00  0.00    -0.014 A 
ATOM     16  C   UNL     1      -1.228  -0.580  -0.259  0.00  0.00    +0.058 A 
ATOM     17  C   UNL     1      -2.412   0.050   0.006  0.00  0.00    +0.164 A 
ATOM     18  O   UNL     1      -3.571  -0.657  -0.105  0.00  0.00    -0.472 OA
ENDBRANCH   2   5
BRANCH   1  20
ATOM     19  C   UNL     1      -9.475  -0.872   0.613  0.00  0.00    +0.143 C 
ATOM     20  N   UNL     1      -8.302  -1.232   0.189  0.00  0.00    -0.187 NA
BRANCH  19  23
ATOM     21  C   UNL     1     -10.780  -0.610   3.491  0.00  0.00    +0.068 C 
ATOM     22  C   UNL     1     -10.210   0.510   2.660  0.00  0.00    +0.070 A 
ATOM     23  C   UNL     1      -9.631   0.379   1.378  0.00  0.00    +0.054 A 
ATOM     24  C   UNL     1      -9.245   1.640   0.972  0.00  0.00    +0.142 A 
ATOM     25  N   UNL     1      -9.568   2.498   1.964  0.00  0.00    -0.221 N 
ATOM     26  N   UNL     1     -10.162   1.770   3.001  0.00  0.00    -0.170 NA
ATOM     27 CL   UNL     1      -8.483   2.048  -0.534  0.00  0.00    -0.061 Cl
BRANCH  25  28
ATOM     28  C   UNL     1      -9.346   3.882   1.956  0.00  0.00    +0.067 A 
ATOM     29  C   UNL     1      -8.211   4.401   1.348  0.00  0.00    +0.028 A 
ATOM     30  C   UNL     1      -7.998   5.766   1.337  0.00  0.00    +0.002 A 
ATOM     31  C   UNL     1      -8.909   6.614   1.940  0.00  0.00    +0.000 A 
ATOM     32  C   UNL     1     -10.037   6.099   2.552  0.00  0.00    +0.002 A 
ATOM     33  C   UNL     1     -10.258   4.736   2.562  0.00  0.00    +0.028 A 
ENDBRANCH  25  28
ENDBRANCH  19  23
ENDBRANCH   1  20
TORSDOF 4
