REMARK  Name = ZINC19345572
REMARK  5 active torsions:
REMARK  status: ('A' for Active; 'I' for Inactive)
REMARK    1  A    between atoms: C_6  and  C_7
REMARK    2  A    between atoms: C_7  and  C_9
REMARK    3  A    between atoms: C_7  and  O_28
REMARK    4  A    between atoms: C_9  and  N_10
REMARK    5  A    between atoms: C_17  and  O_27
REMARK                            x       y       z     vdW  Elec       q    Type
REMARK                         _______ _______ _______ _____ _____    ______ ____
ROOT
ATOM      1  N   UNL     1      -0.023   1.432   2.459  0.00  0.00    +0.382 N 
ATOM      2  C   UNL     1       1.412   1.734   2.376  0.00  0.00    -0.075 C 
ATOM      3  C   UNL     1       2.140   1.087   3.556  0.00  0.00    +0.029 C 
ATOM      4  C   UNL     1       1.558   1.623   4.865  0.00  0.00    +0.110 C 
ATOM      5  C   UNL     1       0.055   1.344   4.906  0.00  0.00    +0.029 C 
ATOM      6  C   UNL     1      -0.612   1.983   3.686  0.00  0.00    -0.075 C 
ATOM      7  C   UNL     1       2.241   0.930   6.049  0.00  0.00    +0.084 C 
ATOM      8  C   UNL     1       1.571   1.408   7.340  0.00  0.00    +0.152 C 
ATOM      9  C   UNL     1       1.460   2.912   7.328  0.00  0.00    +0.024 A 
ATOM     10  C   UNL     1       1.240   3.572   8.526  0.00  0.00    +0.029 A 
ATOM     11  C   UNL     1       1.125   4.949   8.551  0.00  0.00    +0.042 A 
ATOM     12  C   UNL     1       1.229   5.673   7.376  0.00  0.00    +0.023 A 
ATOM     13  C   UNL     1       1.451   5.020   6.182  0.00  0.00    +0.047 A 
ATOM     14  C   UNL     1       1.569   3.634   6.153  0.00  0.00    +0.127 A 
ATOM     15  O   UNL     1       1.793   3.027   4.958  0.00  0.00    -0.485 OA
ATOM     16 CL   UNL     1       0.850   5.771  10.056  0.00  0.00    -0.084 Cl
ATOM     17  H   UNL     1      -0.133   0.338   2.497  0.00  0.00    -0.082 HD
ENDROOT
BRANCH   8  18
ATOM     18  O   UNL     1       2.353   0.997   8.463  0.00  0.00    -0.387 OA
ATOM     19  H   UNL     1       2.028   1.250   9.482  0.00  0.00    +0.210 HD
ENDBRANCH   8  18
BRANCH   1  20
ATOM     20  C   UNL     1      -0.733   1.918   1.269  0.00  0.00    -0.042 C 
BRANCH  20  21
ATOM     21  C   UNL     1      -0.034   1.401   0.010  0.00  0.00    +0.128 C 
BRANCH  21  27
ATOM     22  C   UNL     1      -1.925   1.217  -1.617  0.00  0.00    +0.010 A 
ATOM     23  C   UNL     1      -2.616   1.647  -2.736  0.00  0.00    +0.050 A 
ATOM     24  C   UNL     1      -2.155   2.741  -3.448  0.00  0.00    +0.162 A 
ATOM     25  C   UNL     1      -1.005   3.402  -3.040  0.00  0.00    +0.162 A 
ATOM     26  C   UNL     1      -0.319   2.973  -1.917  0.00  0.00    +0.055 A 
ATOM     27  C   UNL     1      -0.780   1.875  -1.210  0.00  0.00    -0.017 A 
ATOM     28  O   UNL     1      -0.559   4.479  -3.749  0.00  0.00    -0.488 OA
ATOM     29  C   UNL     1      -0.062   4.202  -5.060  0.00  0.00    +0.232 C 
ATOM     30  C   UNL     1      -1.199   4.150  -6.069  0.00  0.00    +0.082 C 
ATOM     31  C   UNL     1      -2.157   2.999  -5.802  0.00  0.00    +0.232 C 
ATOM     32  O   UNL     1      -2.827   3.177  -4.553  0.00  0.00    -0.488 OA
ENDBRANCH  21  27
BRANCH  21  33
ATOM     33  O   UNL     1      -0.013  -0.028   0.030  0.00  0.00    -0.389 OA
ATOM     34  H   UNL     1       0.490  -0.559   0.851  0.00  0.00    +0.210 HD
ENDBRANCH  21  33
ENDBRANCH  20  21
ENDBRANCH   1  20
TORSDOF 5
