REMARK  Name = ZINC08713650
REMARK  12 active torsions:
REMARK  status: ('A' for Active; 'I' for Inactive)
REMARK    1  A    between atoms: C_1  and  C_2
REMARK    2  A    between atoms: C_7  and  C_8
REMARK    3  A    between atoms: C_8  and  N_9
REMARK    4  A    between atoms: N_9  and  C_10
REMARK    5  A    between atoms: C_10  and  C_12
REMARK    6  A    between atoms: C_10  and  C_18
REMARK    7  A    between atoms: N_20  and  C_21
REMARK    8  A    between atoms: C_30  and  C_32
REMARK    9  A    between atoms: C_32  and  S_33
REMARK   10  A    between atoms: S_33  and  C_34
REMARK   11  A    between atoms: C_36  and  C_41
REMARK   12  A    between atoms: C_38  and  C_40
REMARK                            x       y       z     vdW  Elec       q    Type
REMARK                         _______ _______ _______ _____ _____    ______ ____
ROOT
ATOM      1  N   UNL     1       4.522   6.119  -0.260  0.00  0.00    -0.281 N 
ATOM      2  C   UNL     1       3.252   5.667  -0.248  0.00  0.00    +0.227 C 
ATOM      3  O   UNL     1       2.344   6.417   0.044  0.00  0.00    -0.275 OA
ENDROOT
BRANCH   1   4
ATOM      4  C   UNL     1       5.603   5.252  -0.736  0.00  0.00    +0.144 C 
BRANCH   4  11
ATOM      5  C   UNL     1       6.098   7.317  -2.695  0.00  0.00    +0.044 C 
ATOM      6  C   UNL     1       5.644   5.950  -3.139  0.00  0.00    -0.046 A 
ATOM      7  C   UNL     1       5.464   5.685  -4.484  0.00  0.00    +0.003 A 
ATOM      8  C   UNL     1       5.048   4.431  -4.891  0.00  0.00    +0.000 A 
ATOM      9  C   UNL     1       4.811   3.443  -3.954  0.00  0.00    +0.000 A 
ATOM     10  C   UNL     1       4.995   3.707  -2.610  0.00  0.00    +0.005 A 
ATOM     11  C   UNL     1       5.407   4.963  -2.202  0.00  0.00    -0.027 A 
ENDBRANCH   4  11
ENDBRANCH   1   4
BRANCH   1  12
ATOM     12  C   UNL     1       4.821   7.476   0.203  0.00  0.00    +0.193 C 
BRANCH  12  13
ATOM     13  C   UNL     1       6.310   7.634   0.367  0.00  0.00    -0.018 A 
ATOM     14  C   UNL     1       7.031   6.691   1.075  0.00  0.00    +0.006 A 
ATOM     15  C   UNL     1       8.398   6.833   1.223  0.00  0.00    +0.000 A 
ATOM     16  C   UNL     1       9.043   7.924   0.669  0.00  0.00    +0.000 A 
ATOM     17  C   UNL     1       8.322   8.870  -0.034  0.00  0.00    +0.000 A 
ATOM     18  C   UNL     1       6.955   8.725  -0.185  0.00  0.00    +0.006 A 
ENDBRANCH  12  13
BRANCH  12  19
ATOM     19  C   UNL     1       4.141   7.717   1.526  0.00  0.00    +0.242 C 
ATOM     20  O   UNL     1       3.472   6.841   2.032  0.00  0.00    -0.273 OA
ATOM     21  N   UNL     1       4.276   8.906   2.146  0.00  0.00    -0.284 N 
ATOM     22  H   UNL     1       4.747   9.631   1.708  0.00  0.00    +0.155 HD
BRANCH  21  23
ATOM     23  C   UNL     1       3.735   9.094   3.425  0.00  0.00    +0.037 A 
ATOM     24  C   UNL     1       3.228  10.335   3.788  0.00  0.00    +0.027 A 
ATOM     25  C   UNL     1       2.691  10.521   5.048  0.00  0.00    +0.051 A 
ATOM     26  C   UNL     1       2.663   9.473   5.954  0.00  0.00    +0.166 A 
ATOM     27  C   UNL     1       3.175   8.229   5.593  0.00  0.00    +0.168 A 
ATOM     28  C   UNL     1       3.710   8.042   4.330  0.00  0.00    +0.072 A 
ATOM     29  O   UNL     1       3.033   7.376   6.650  0.00  0.00    -0.453 OA
ATOM     30  C   UNL     1       2.804   8.217   7.795  0.00  0.00    +0.466 C 
ATOM     31  O   UNL     1       2.200   9.399   7.237  0.00  0.00    -0.453 OA
ENDBRANCH  21  23
ENDBRANCH  12  19
ENDBRANCH   1  12
BRANCH   2  32
ATOM     32  C   UNL     1       2.960   4.231  -0.599  0.00  0.00    +0.173 C 
BRANCH  32  33
ATOM     33  S   UNL     1       1.223   3.865  -0.244  0.00  0.00    -0.077 S 
BRANCH  33  34
ATOM     34  C   UNL     1       1.161   2.173  -0.732  0.00  0.00    +0.189 A 
ATOM     35  N   UNL     1       0.018   1.509  -0.625  0.00  0.00    -0.227 NA
ATOM     36  C   UNL     1      -0.062   0.239  -0.983  0.00  0.00    +0.043 A 
ATOM     37  C   UNL     1       1.067  -0.398  -1.474  0.00  0.00    +0.046 A 
ATOM     38  C   UNL     1       2.246   0.325  -1.573  0.00  0.00    +0.043 A 
ATOM     39  N   UNL     1       2.258   1.593  -1.198  0.00  0.00    -0.227 NA
ATOM     40  C   UNL     1       3.498  -0.327  -2.102  0.00  0.00    +0.066 C 
ATOM     41  C   UNL     1      -1.365  -0.508  -0.857  0.00  0.00    +0.066 C 
ENDBRANCH  33  34
ENDBRANCH  32  33
ENDBRANCH   2  32
TORSDOF 9
