REMARK  Name = ZINC42027057
REMARK  5 active torsions:
REMARK  status: ('A' for Active; 'I' for Inactive)
REMARK    1  A    between atoms: C_1  and  C_2
REMARK    2  A    between atoms: C_5  and  N_8
REMARK    3  A    between atoms: C_9  and  C_13
REMARK    4  A    between atoms: C_16  and  N_20
REMARK    5  A    between atoms: C_18  and  N_19
REMARK                            x       y       z     vdW  Elec       q    Type
REMARK                         _______ _______ _______ _____ _____    ______ ____
ROOT
ATOM      1  N   UNL     1       1.512  -4.082   0.081  0.00  0.00    -0.222 N 
ATOM      2  C   UNL     1       2.610  -4.870  -0.089  0.00  0.00    +0.184 A 
ATOM      3  N   UNL     1       2.188  -6.119  -0.092  0.00  0.00    -0.108 NA
ATOM      4  N   UNL     1       0.915  -6.163   0.063  0.00  0.00    -0.023 NA
ATOM      5  N   UNL     1       0.431  -4.975   0.182  0.00  0.00    -0.043 NA
ENDROOT
BRANCH   1  10
ATOM      6  C   UNL     1      -0.091   1.407   0.448  0.00  0.00    +0.007 C 
ATOM      7  C   UNL     1      -0.045  -0.121   0.375  0.00  0.00    -0.014 C 
ATOM      8  C   UNL     1       0.599  -0.549  -0.945  0.00  0.00    +0.005 C 
ATOM      9  C   UNL     1       0.644  -2.077  -1.018  0.00  0.00    +0.027 C 
ATOM     10  C   UNL     1       1.469  -2.619   0.151  0.00  0.00    +0.111 C 
ATOM     11  C   UNL     1       0.825  -2.190   1.471  0.00  0.00    +0.027 C 
ATOM     12  C   UNL     1       0.779  -0.663   1.544  0.00  0.00    +0.005 C 
ENDBRANCH   1  10
BRANCH   2  13
ATOM     13  C   UNL     1       4.006  -4.413  -0.242  0.00  0.00    +0.041 A 
ATOM     14  C   UNL     1       4.537  -3.475   0.645  0.00  0.00    +0.015 A 
ATOM     15  C   UNL     1       5.840  -3.051   0.501  0.00  0.00    +0.023 A 
ATOM     16  C   UNL     1       6.631  -3.554  -0.528  0.00  0.00    +0.026 A 
ATOM     17  C   UNL     1       6.113  -4.487  -1.415  0.00  0.00    +0.046 A 
ATOM     18  C   UNL     1       4.805  -4.924  -1.276  0.00  0.00    +0.037 A 
BRANCH  18  19
ATOM     19  N   UNL     1       4.284  -5.864  -2.162  0.00  0.00    -0.357 N 
ATOM     20  H   UNL     1       3.342  -6.094  -2.127  0.00  0.00    +0.142 HD
ATOM     21  H   UNL     1       4.863  -6.290  -2.813  0.00  0.00    +0.142 HD
ENDBRANCH  18  19
BRANCH  16  22
ATOM     22  N   UNL     1       7.948  -3.119  -0.667  0.00  0.00    -0.358 N 
ATOM     23  H   UNL     1       8.312  -2.467  -0.048  0.00  0.00    +0.142 HD
ATOM     24  H   UNL     1       8.501  -3.468  -1.384  0.00  0.00    +0.142 HD
ENDBRANCH  16  22
ENDBRANCH   2  13
TORSDOF 4
