REMARK  Name = ZINC63194014
REMARK  7 active torsions:
REMARK  status: ('A' for Active; 'I' for Inactive)
REMARK    1  A    between atoms: C_1  and  C_2
REMARK    2  A    between atoms: C_2  and  C_4
REMARK    3  A    between atoms: C_2  and  N_23
REMARK    4  A    between atoms: N_10  and  S_11
REMARK    5  A    between atoms: S_11  and  C_14
REMARK    6  A    between atoms: C_16  and  C_20
REMARK    7  A    between atoms: N_17  and  C_19
REMARK                            x       y       z     vdW  Elec       q    Type
REMARK                         _______ _______ _______ _____ _____    ______ ____
ROOT
ATOM      1  S   UNL     1      -0.360  -2.595  -0.303  0.00  0.00    +0.062 S 
ATOM      2  O   UNL     1      -1.203  -3.739  -0.346  0.00  0.00    -0.153 OA
ATOM      3  O   UNL     1      -0.866  -1.272  -0.404  0.00  0.00    -0.153 OA
ENDROOT
BRANCH   1   9
ATOM      4  C   UNL     1       0.857  -1.450   1.839  0.00  0.00    +0.065 C 
ATOM      5  C   UNL     1       2.364  -1.483   2.108  0.00  0.00    +0.019 C 
ATOM      6  C   UNL     1       2.718  -2.777   2.846  0.00  0.00    +0.003 C 
ATOM      7  C   UNL     1       2.358  -3.980   1.972  0.00  0.00    +0.017 C 
ATOM      8  C   UNL     1       0.850  -3.975   1.701  0.00  0.00    +0.110 C 
ATOM      9  N   UNL     1       0.474  -2.676   1.125  0.00  0.00    -0.175 NA
BRANCH   4  11
ATOM     10  C   UNL     1       1.294  -0.297  -0.334  0.00  0.00    -0.013 C 
ATOM     11  C   UNL     1       0.516  -0.230   0.981  0.00  0.00    -0.059 C 
BRANCH  11  12
ATOM     12  N   UNL     1       0.883   0.995   1.705  0.00  0.00    +0.381 N 
ATOM     13  H   UNL     1       0.576   1.800   1.180  0.00  0.00    -0.090 HD
ATOM     14  H   UNL     1       0.440   0.995   2.611  0.00  0.00    -0.090 HD
ATOM     15  H   UNL     1       1.884   1.030   1.820  0.00  0.00    -0.090 HD
ENDBRANCH  11  12
ENDBRANCH   4  11
ENDBRANCH   1   9
BRANCH   1  16
ATOM     16  C   UNL     1       0.813  -2.786  -1.604  0.00  0.00    +0.124 A 
ATOM     17  C   UNL     1       1.138  -1.826  -2.567  0.00  0.00    +0.061 A 
ATOM     18  C   UNL     1       2.095  -2.383  -3.388  0.00  0.00    +0.106 A 
ATOM     19  N   UNL     1       2.344  -3.657  -2.929  0.00  0.00    -0.344 N 
ATOM     20  C   UNL     1       1.565  -3.887  -1.844  0.00  0.00    +0.114 A 
ATOM     21  C   UNL     1       3.297  -4.604  -3.513  0.00  0.00    +0.149 C 
BRANCH  18  22
ATOM     22  C   UNL     1       2.731  -1.737  -4.541  0.00  0.00    +0.258 C 
ATOM     23  O   UNL     1       3.500  -2.366  -5.244  0.00  0.00    -0.269 OA
ATOM     24  N   UNL     1       2.464  -0.446  -4.822  0.00  0.00    -0.324 N 
ATOM     25  H   UNL     1       1.915   0.078  -4.219  0.00  0.00    +0.145 HD
ATOM     26  H   UNL     1       2.821  -0.041  -5.628  0.00  0.00    +0.145 HD
ENDBRANCH  18  22
ENDBRANCH   1  16
TORSDOF 5
