REMARK  Name = ZINC38546132
REMARK  7 active torsions:
REMARK  status: ('A' for Active; 'I' for Inactive)
REMARK    1  A    between atoms: C_1  and  S_2
REMARK    2  A    between atoms: S_2  and  C_3
REMARK    3  A    between atoms: C_6  and  C_9
REMARK    4  A    between atoms: C_9  and  C_11
REMARK    5  A    between atoms: C_9  and  N_28
REMARK    6  A    between atoms: C_15  and  N_16
REMARK    7  A    between atoms: C_17  and  C_19
REMARK                            x       y       z     vdW  Elec       q    Type
REMARK                         _______ _______ _______ _____ _____    ______ ____
ROOT
ATOM      1  C   UNL     1       2.068  -1.717   6.116  0.00  0.00    -0.025 A 
ATOM      2  C   UNL     1       1.774  -0.741   7.068  0.00  0.00    -0.033 A 
ATOM      3  C   UNL     1       0.859  -1.073   8.018  0.00  0.00    -0.005 A 
ATOM      4  S   UNL     1       0.398  -2.733   7.604  0.00  0.00    -0.078 S 
ATOM      5  C   UNL     1       1.444  -2.924   6.168  0.00  0.00    +0.074 A 
ATOM      6  C   UNL     1       0.367  -0.223   9.145  0.00  0.00    +0.043 C 
ATOM      7  C   UNL     1       1.320   0.972   9.301  0.00  0.00    +0.005 C 
ATOM      8  C   UNL     1       1.569   1.584   7.919  0.00  0.00    +0.005 C 
ATOM      9  C   UNL     1       2.425   0.640   7.075  0.00  0.00    +0.036 C 
ENDROOT
BRANCH   5  10
ATOM     10  N   UNL     1       1.586  -4.026   5.322  0.00  0.00    -0.273 N 
ATOM     11  C   UNL     1       0.962  -5.184   5.614  0.00  0.00    +0.284 C 
ATOM     12  O   UNL     1       0.274  -5.269   6.615  0.00  0.00    -0.266 OA
ATOM     13  H   UNL     1       2.134  -3.958   4.525  0.00  0.00    +0.156 HD
BRANCH  11  14
ATOM     14  C   UNL     1       1.110  -6.341   4.726  0.00  0.00    +0.189 A 
ATOM     15  C   UNL     1       0.531  -7.565   4.899  0.00  0.00    +0.054 A 
ATOM     16  C   UNL     1       0.942  -8.363   3.819  0.00  0.00    +0.042 A 
ATOM     17  C   UNL     1       1.744  -7.600   3.044  0.00  0.00    +0.196 A 
ATOM     18  O   UNL     1       1.839  -6.380   3.591  0.00  0.00    -0.458 OA
ENDBRANCH  11  14
ENDBRANCH   5  10
BRANCH   1  19
ATOM     19  C   UNL     1       3.071  -1.432   5.027  0.00  0.00    -0.004 C 
BRANCH  19  20
ATOM     20  N   UNL     1       4.011  -2.556   4.921  0.00  0.00    +0.387 N 
ATOM     21  C   UNL     1       4.632  -2.799   6.229  0.00  0.00    -0.078 C 
ATOM     22  C   UNL     1       5.551  -4.019   6.144  0.00  0.00    -0.019 C 
ATOM     23  C   UNL     1       6.641  -3.759   5.101  0.00  0.00    -0.004 C 
ATOM     24  C   UNL     1       5.981  -3.434   3.757  0.00  0.00    -0.019 C 
ATOM     25  C   UNL     1       5.046  -2.235   3.931  0.00  0.00    -0.078 C 
ATOM     26  H   UNL     1       3.513  -3.384   4.630  0.00  0.00    -0.080 HD
ENDBRANCH  19  20
BRANCH  19  30
ATOM     27  C   UNL     1       1.031  -0.926   1.306  0.00  0.00    +0.008 A 
ATOM     28  C   UNL     1       1.146   0.142   2.188  0.00  0.00    +0.015 A 
ATOM     29  C   UNL     1       1.806  -0.025   3.390  0.00  0.00    +0.003 A 
ATOM     30  C   UNL     1       2.352  -1.254   3.715  0.00  0.00    -0.057 A 
ATOM     31  C   UNL     1       2.240  -2.318   2.840  0.00  0.00    +0.003 A 
ATOM     32  C   UNL     1       1.576  -2.160   1.639  0.00  0.00    +0.015 A 
BRANCH  27  34
ATOM     33  C   UNL     1      -0.331   1.021  -0.210  0.00  0.00    +0.090 C 
ATOM     34  S   UNL     1       0.189  -0.717  -0.228  0.00  0.00    -0.129 S 
ENDBRANCH  27  34
ENDBRANCH  19  30
ENDBRANCH   1  19
TORSDOF 6
