REMARK  Name = ZINC06193420
REMARK  20 active torsions:
REMARK  status: ('A' for Active; 'I' for Inactive)
REMARK    1  A    between atoms: C_1  and  C_2
REMARK    2  A    between atoms: C_2  and  N_77
REMARK    3  A    between atoms: C_3  and  C_4
REMARK    4  A    between atoms: C_3  and  N_77
REMARK    5  A    between atoms: C_5  and  C_6
REMARK    6  A    between atoms: C_5  and  N_77
REMARK    7  A    between atoms: C_6  and  N_7
REMARK    8  A    between atoms: N_7  and  C_8
REMARK    9  A    between atoms: N_7  and  C_23
REMARK   10  A    between atoms: C_8  and  C_9
REMARK   11  A    between atoms: C_14  and  C_22
REMARK   12  A    between atoms: C_15  and  C_21
REMARK   13  A    between atoms: C_23  and  N_25
REMARK   14  A    between atoms: N_25  and  C_26
REMARK   15  A    between atoms: C_26  and  C_27
REMARK   16  A    between atoms: C_27  and  C_28
REMARK   17  A    between atoms: C_31  and  O_36
REMARK   18  A    between atoms: C_32  and  O_34
REMARK   19  A    between atoms: O_34  and  C_35
REMARK   20  A    between atoms: O_36  and  C_37
REMARK                            x       y       z     vdW  Elec       q    Type
REMARK                         _______ _______ _______ _____ _____    ______ ____
ROOT
ATOM      1  N   UNL     1       1.039   0.254   0.412  0.00  0.00    -0.310 N 
ENDROOT
BRANCH   1   2
ATOM      2  C   UNL     1       2.155  -0.075   1.091  0.00  0.00    +0.133 C 
ATOM      3  S   UNL     1       2.620  -1.717   1.230  0.00  0.00    -0.019 S 
BRANCH   2   4
ATOM      4  N   UNL     1       2.906   0.888   1.661  0.00  0.00    -0.326 N 
ATOM      5  H   UNL     1       2.643   1.819   1.583  0.00  0.00    +0.148 HD
BRANCH   4   6
ATOM      6  C   UNL     1       4.120   0.530   2.400  0.00  0.00    +0.108 C 
BRANCH   6   7
ATOM      7  C   UNL     1       4.780   1.800   2.941  0.00  0.00    +0.054 C 
BRANCH   7   8
ATOM      8  C   UNL     1       6.029   1.431   3.701  0.00  0.00    -0.042 A 
ATOM      9  C   UNL     1       5.959   1.172   5.057  0.00  0.00    +0.007 A 
ATOM     10  C   UNL     1       7.101   0.828   5.757  0.00  0.00    +0.049 A 
ATOM     11  C   UNL     1       8.320   0.754   5.102  0.00  0.00    +0.161 A 
ATOM     12  C   UNL     1       8.390   1.021   3.738  0.00  0.00    +0.162 A 
ATOM     13  C   UNL     1       7.241   1.359   3.041  0.00  0.00    +0.053 A 
BRANCH  12  14
ATOM     14  O   UNL     1       9.584   0.949   3.090  0.00  0.00    -0.491 OA
ATOM     15  C   UNL     1       9.580   1.236   1.690  0.00  0.00    +0.277 C 
ENDBRANCH  12  14
BRANCH  11  16
ATOM     16  O   UNL     1       9.444   0.421   5.790  0.00  0.00    -0.491 OA
ATOM     17  C   UNL     1       9.296   0.161   7.188  0.00  0.00    +0.277 C 
ENDBRANCH  11  16
ENDBRANCH   7   8
ENDBRANCH   6   7
ENDBRANCH   4   6
ENDBRANCH   2   4
ENDBRANCH   1   2
BRANCH   1  18
ATOM     18  C   UNL     1       0.641   1.659   0.293  0.00  0.00    +0.088 C 
BRANCH  18  19
ATOM     19  C   UNL     1      -0.269   2.032   1.465  0.00  0.00    -0.060 C 
BRANCH  19  20
ATOM     20  N   UNL     1      -0.644   3.457   1.342  0.00  0.00    +0.380 N 
ATOM     21  H   UNL     1       0.208   4.017   1.223  0.00  0.00    -0.082 HD
BRANCH  20  23
ATOM     22  C   UNL     1      -2.788   2.811   0.294  0.00  0.00    -0.017 C 
ATOM     23  C   UNL     1      -1.515   3.650   0.164  0.00  0.00    -0.082 C 
ENDBRANCH  20  23
BRANCH  20  24
ATOM     24  C   UNL     1      -1.343   3.902   2.566  0.00  0.00    -0.082 C 
ATOM     25  C   UNL     1      -1.393   5.431   2.575  0.00  0.00    -0.017 C 
ENDBRANCH  20  24
ENDBRANCH  19  20
ENDBRANCH  18  19
ENDBRANCH   1  18
BRANCH   1  26
ATOM     26  C   UNL     1       0.223  -0.793  -0.208  0.00  0.00    +0.147 C 
BRANCH  26  27
ATOM     27  C   UNL     1       0.704  -1.037  -1.615  0.00  0.00    +0.035 A 
ATOM     28  C   UNL     1       1.595  -2.029  -1.862  0.00  0.00    +0.020 A 
ATOM     29  C   UNL     1       2.039  -2.243  -3.240  0.00  0.00    -0.001 A 
ATOM     30  C   UNL     1       2.953  -3.254  -3.557  0.00  0.00    +0.010 A 
ATOM     31  C   UNL     1       3.351  -3.425  -4.853  0.00  0.00    +0.004 A 
ATOM     32  C   UNL     1       2.856  -2.605  -5.858  0.00  0.00    -0.046 A 
ATOM     33  C   UNL     1       1.955  -1.603  -5.569  0.00  0.00    -0.024 A 
ATOM     34  C   UNL     1       1.535  -1.410  -4.257  0.00  0.00    +0.052 A 
ATOM     35  N   UNL     1       0.634  -0.416  -3.939  0.00  0.00    -0.322 N 
ATOM     36  H   UNL     1       0.288   0.157  -4.641  0.00  0.00    +0.169 HD
ATOM     37  C   UNL     1       0.229  -0.230  -2.671  0.00  0.00    +0.254 A 
ATOM     38  O   UNL     1      -0.569   0.659  -2.427  0.00  0.00    -0.268 OA
ATOM     39  C   UNL     1       1.425  -0.721  -6.670  0.00  0.00    +0.046 C 
ATOM     40  C   UNL     1       3.309  -2.813  -7.280  0.00  0.00    +0.044 C 
ENDBRANCH  26  27
ENDBRANCH   1  26
TORSDOF 14
