REMARK  Name = ZINC54617341
REMARK  13 active torsions:
REMARK  status: ('A' for Active; 'I' for Inactive)
REMARK    1  A    between atoms: C_1  and  C_2
REMARK    2  A    between atoms: C_2  and  C_3
REMARK    3  A    between atoms: C_3  and  C_4
REMARK    4  A    between atoms: C_4  and  S_5
REMARK    5  A    between atoms: S_5  and  C_6
REMARK    6  A    between atoms: C_11  and  C_29
REMARK    7  A    between atoms: C_13  and  C_17
REMARK    8  A    between atoms: C_14  and  C_16
REMARK    9  A    between atoms: N_19  and  C_20
REMARK   10  A    between atoms: C_25  and  O_26
REMARK   11  A    between atoms: O_26  and  C_27
REMARK   12  A    between atoms: C_27  and  C_28
REMARK   13  A    between atoms: C_32  and  N_35
REMARK                            x       y       z     vdW  Elec       q    Type
REMARK                         _______ _______ _______ _____ _____    ______ ____
ROOT
ATOM      1  C   UNL     1       1.639  -4.366  -2.607  0.00  0.00    +0.210 A 
ATOM      2  N   UNL     1       1.051  -5.039  -1.608  0.00  0.00    -0.187 NA
ATOM      3  C   UNL     1       1.163  -6.322  -1.821  0.00  0.00    +0.219 A 
ATOM      4  N   UNL     1       1.842  -6.499  -2.981  0.00  0.00    -0.220 N 
ATOM      5  N   UNL     1       2.130  -5.226  -3.473  0.00  0.00    -0.141 NA
ATOM      6  C   UNL     1       2.166  -7.810  -3.536  0.00  0.00    +0.177 C 
ATOM      7  C   UNL     1       1.389  -8.871  -2.803  0.00  0.00    +0.060 C 
ATOM      8  C   UNL     1       0.731  -8.636  -1.659  0.00  0.00    +0.018 C 
ATOM      9  N   UNL     1       0.707  -7.396  -1.069  0.00  0.00    -0.287 N 
ATOM     10  C   UNL     1      -0.008  -9.771  -0.998  0.00  0.00    +0.061 C 
ATOM     11  H   UNL     1       0.385  -7.275  -0.162  0.00  0.00    +0.155 HD
ENDROOT
BRANCH   6  12
ATOM     12  C   UNL     1       3.642  -8.071  -3.381  0.00  0.00    -0.018 A 
ATOM     13  C   UNL     1       4.211  -8.097  -2.121  0.00  0.00    +0.008 A 
ATOM     14  C   UNL     1       5.565  -8.337  -1.979  0.00  0.00    +0.033 A 
ATOM     15  C   UNL     1       6.350  -8.550  -3.096  0.00  0.00    +0.126 A 
ATOM     16  C   UNL     1       5.782  -8.524  -4.356  0.00  0.00    +0.033 A 
ATOM     17  C   UNL     1       4.427  -8.289  -4.498  0.00  0.00    +0.008 A 
BRANCH  15  18
ATOM     18  N   UNL     1       7.800  -8.805  -2.943  0.00  0.00    +0.056 N 
ATOM     19  O   UNL     1       8.297  -8.827  -1.842  0.00  0.00    -0.126 OA
ATOM     20  O   UNL     1       8.487  -8.992  -3.921  0.00  0.00    -0.126 OA
ENDBRANCH  15  18
ENDBRANCH   6  12
BRANCH   7  21
ATOM     21  C   UNL     1       1.351 -10.176  -3.348  0.00  0.00    +0.248 C 
ATOM     22  O   UNL     1       0.590 -10.432  -4.263  0.00  0.00    -0.270 OA
ATOM     23  N   UNL     1       2.158 -11.136  -2.854  0.00  0.00    -0.279 N 
ATOM     24  H   UNL     1       2.706 -10.955  -2.074  0.00  0.00    +0.155 HD
BRANCH  23  25
ATOM     25  C   UNL     1       2.206 -12.395  -3.466  0.00  0.00    +0.076 A 
ATOM     26  C   UNL     1       1.870 -12.530  -4.805  0.00  0.00    +0.027 A 
ATOM     27  C   UNL     1       1.918 -13.773  -5.407  0.00  0.00    +0.002 A 
ATOM     28  C   UNL     1       2.300 -14.884  -4.678  0.00  0.00    +0.004 A 
ATOM     29  C   UNL     1       2.635 -14.757  -3.343  0.00  0.00    +0.047 A 
ATOM     30  C   UNL     1       2.595 -13.514  -2.733  0.00  0.00    +0.142 A 
BRANCH  30  31
ATOM     31  O   UNL     1       2.930 -13.387  -1.421  0.00  0.00    -0.490 OA
BRANCH  31  32
ATOM     32  C   UNL     1       3.320 -14.577  -0.733  0.00  0.00    +0.226 C 
ATOM     33  C   UNL     1       3.657 -14.238   0.720  0.00  0.00    +0.048 C 
ENDBRANCH  31  32
ENDBRANCH  30  31
ENDBRANCH  23  25
ENDBRANCH   7  21
BRANCH   1  34
ATOM     34  S   UNL     1       1.733  -2.612  -2.743  0.00  0.00    -0.084 S 
BRANCH  34  35
ATOM     35  C   UNL     1       0.882  -2.010  -1.258  0.00  0.00    +0.077 C 
BRANCH  35  36
ATOM     36  C   UNL     1       0.891  -0.480  -1.249  0.00  0.00    +0.011 C 
BRANCH  36  38
ATOM     37  C   UNL     1       0.182   1.556   0.012  0.00  0.00    +0.004 C 
ATOM     38  C   UNL     1       0.174   0.026   0.004  0.00  0.00    -0.003 C 
ENDBRANCH  36  38
ENDBRANCH  35  36
ENDBRANCH  34  35
ENDBRANCH   1  34
TORSDOF 10
