REMARK  Name = ZINC20752052
REMARK  8 active torsions:
REMARK  status: ('A' for Active; 'I' for Inactive)
REMARK    1  A    between atoms: C_1  and  C_2
REMARK    2  A    between atoms: C_2  and  C_3
REMARK    3  A    between atoms: C_2  and  C_4
REMARK    4  A    between atoms: C_4  and  C_5
REMARK    5  A    between atoms: C_5  and  O_6
REMARK    6  A    between atoms: O_6  and  C_7
REMARK    7  A    between atoms: C_20  and  C_23
REMARK    8  A    between atoms: C_32  and  O_33
REMARK                            x       y       z     vdW  Elec       q    Type
REMARK                         _______ _______ _______ _____ _____    ______ ____
ROOT
ATOM      1  C   UNL     1       3.541  -0.446  -0.223  0.00  0.00    +0.121 A 
ATOM      2  C   UNL     1       2.707   0.659  -0.307  0.00  0.00    +0.047 A 
ATOM      3  C   UNL     1       1.338   0.485  -0.273  0.00  0.00    +0.027 A 
ATOM      4  C   UNL     1       0.801  -0.791  -0.157  0.00  0.00    +0.032 A 
ATOM      5  C   UNL     1       1.628  -1.899  -0.074  0.00  0.00    -0.016 A 
ATOM      6  C   UNL     1       3.004  -1.716  -0.108  0.00  0.00    +0.051 A 
ATOM      7  C   UNL     1       1.093  -3.291   0.049  0.00  0.00    +0.049 C 
ATOM      8  C   UNL     1       1.253  -3.822   1.453  0.00  0.00    -0.023 C 
ATOM      9  C   UNL     1       0.226  -4.570   1.775  0.00  0.00    -0.030 C 
ATOM     10  C   UNL     1      -0.759  -4.644   0.624  0.00  0.00    +0.033 C 
ATOM     11  C   UNL     1      -0.421  -3.380  -0.220  0.00  0.00    +0.029 C 
ATOM     12  C   UNL     1      -1.135  -2.182   0.414  0.00  0.00    +0.109 C 
ATOM     13  N   UNL     1      -0.592  -0.948  -0.120  0.00  0.00    -0.336 N 
ATOM     14  H   UNL     1      -1.269  -0.162  -0.486  0.00  0.00    +0.147 HD
ENDROOT
BRANCH  12  15
ATOM     15  C   UNL     1      -0.917  -2.196   1.905  0.00  0.00    +0.022 A 
ATOM     16  C   UNL     1      -1.754  -2.960   2.734  0.00  0.00    -0.009 A 
ATOM     17  C   UNL     1      -2.799  -3.734   2.200  0.00  0.00    +0.009 A 
ATOM     18  C   UNL     1      -3.587  -4.468   3.033  0.00  0.00    +0.001 A 
ATOM     19  C   UNL     1      -3.371  -4.468   4.410  0.00  0.00    +0.001 A 
ATOM     20  C   UNL     1      -2.366  -3.735   4.962  0.00  0.00    +0.008 A 
ATOM     21  C   UNL     1      -1.531  -2.965   4.134  0.00  0.00    -0.017 A 
ATOM     22  C   UNL     1      -0.483  -2.196   4.669  0.00  0.00    +0.012 A 
ATOM     23  C   UNL     1       0.307  -1.463   3.840  0.00  0.00    +0.046 A 
ATOM     24  C   UNL     1       0.092  -1.461   2.458  0.00  0.00    +0.122 A 
BRANCH  24  25
ATOM     25  O   UNL     1       0.898  -0.718   1.655  0.00  0.00    -0.506 OA
ATOM     26  H   UNL     1       1.714  -0.123   2.093  0.00  0.00    +0.292 HD
ENDBRANCH  24  25
ENDBRANCH  12  15
BRANCH   1  27
ATOM     27  O   UNL     1       4.891  -0.281  -0.254  0.00  0.00    -0.492 OA
BRANCH  27  28
ATOM     28  C   UNL     1       5.378   1.057  -0.375  0.00  0.00    +0.229 C 
BRANCH  28  29
ATOM     29  C   UNL     1       6.908   1.044  -0.393  0.00  0.00    +0.044 C 
BRANCH  29  31
ATOM     30  C   UNL     1       7.046   3.273   0.727  0.00  0.00    +0.007 C 
ATOM     31  C   UNL     1       7.429   2.476  -0.522  0.00  0.00    -0.014 C 
ATOM     32  C   UNL     1       8.952   2.454  -0.665  0.00  0.00    +0.007 C 
ENDBRANCH  29  31
ENDBRANCH  28  29
ENDBRANCH  27  28
ENDBRANCH   1  27
TORSDOF 6
