REMARK  Name = ZINC02864137
REMARK  3 active torsions:
REMARK  status: ('A' for Active; 'I' for Inactive)
REMARK    1  A    between atoms: C_5  and  O_8
REMARK    2  A    between atoms: O_8  and  C_9
REMARK    3  A    between atoms: C_9  and  C_11
REMARK                            x       y       z     vdW  Elec       q    Type
REMARK                         _______ _______ _______ _____ _____    ______ ____
ROOT
ATOM      1  C   UNL     1       2.402  -0.045  -0.068  0.00  0.00    +0.035 A 
ATOM      2  C   UNL     1       2.412   1.354  -0.020  0.00  0.00    +0.023 A 
ATOM      3  C   UNL     1       1.201   2.065   0.037  0.00  0.00    +0.143 A 
ATOM      4  C   UNL     1       0.001   1.371   0.047  0.00  0.00    +0.094 A 
ATOM      5  C   UNL     1       0.007  -0.013   0.000  0.00  0.00    +0.153 A 
ATOM      6  C   UNL     1       1.212  -0.714  -0.057  0.00  0.00    +0.084 A 
ATOM      7 CL   UNL     1       1.198  -2.449  -0.116  0.00  0.00    -0.080 Cl
ATOM      8  O   UNL     1       1.221   3.414   0.082  0.00  0.00    -0.422 OA
ATOM      9  C   UNL     1       2.374   4.095   0.071  0.00  0.00    +0.341 A 
ATOM     10  O   UNL     1       2.341   5.312   0.113  0.00  0.00    -0.245 OA
ATOM     11  C   UNL     1       3.633   3.445   0.012  0.00  0.00    +0.041 A 
ATOM     12  C   UNL     1       3.680   2.096  -0.027  0.00  0.00    -0.027 A 
ATOM     13  C   UNL     1       4.966   1.319  -0.070  0.00  0.00    +0.036 C 
ATOM     14  C   UNL     1       6.125   2.217  -0.500  0.00  0.00    +0.005 C 
ATOM     15  C   UNL     1       6.101   3.482   0.368  0.00  0.00    +0.005 C 
ATOM     16  C   UNL     1       4.870   4.302  -0.011  0.00  0.00    +0.042 C 
ENDROOT
BRANCH   5  17
ATOM     17  O   UNL     1      -1.168  -0.694   0.009  0.00  0.00    -0.424 OA
BRANCH  17  18
ATOM     18  C   UNL     1      -1.577  -1.188   1.189  0.00  0.00    +0.315 C 
ATOM     19  O   UNL     1      -0.959  -0.935   2.197  0.00  0.00    -0.250 OA
BRANCH  18  20
ATOM     20  C   UNL     1      -2.805  -2.059   1.256  0.00  0.00    +0.098 C 
ATOM     21  C   UNL     1      -4.039  -1.487   1.956  0.00  0.00    +0.015 C 
ATOM     22  C   UNL     1      -3.220  -2.591   2.630  0.00  0.00    +0.015 C 
ENDBRANCH  18  20
ENDBRANCH  17  18
ENDBRANCH   5  17
TORSDOF 3
