REMARK  Name = ZINC57415944
REMARK  9 active torsions:
REMARK  status: ('A' for Active; 'I' for Inactive)
REMARK    1  A    between atoms: C_1  and  C_2
REMARK    2  A    between atoms: C_5  and  C_32
REMARK    3  A    between atoms: C_6  and  N_8
REMARK    4  A    between atoms: N_11  and  C_14
REMARK    5  A    between atoms: C_14  and  C_15
REMARK    6  A    between atoms: C_16  and  C_28
REMARK    7  A    between atoms: C_17  and  C_23
REMARK    8  A    between atoms: C_28  and  O_30
REMARK    9  A    between atoms: O_30  and  C_31
REMARK                            x       y       z     vdW  Elec       q    Type
REMARK                         _______ _______ _______ _____ _____    ______ ____
ROOT
ATOM      1  C   UNL     1      -0.954  -6.660   5.629  0.00  0.00    +0.038 C 
ATOM      2  C   UNL     1      -2.049  -7.353   5.248  0.00  0.00    +0.080 C 
ATOM      3  C   UNL     1      -3.197  -7.453   6.232  0.00  0.00    +0.150 C 
ATOM      4  N   UNL     1      -3.023  -6.781   7.531  0.00  0.00    -0.288 N 
ATOM      5  C   UNL     1      -1.869  -6.126   7.765  0.00  0.00    +0.304 C 
ATOM      6  O   UNL     1      -1.716  -5.569   8.834  0.00  0.00    -0.252 OA
ATOM      7  N   UNL     1      -0.883  -6.075   6.860  0.00  0.00    -0.271 N 
ATOM      8  H   UNL     1      -3.723  -6.809   8.202  0.00  0.00    +0.151 HD
ATOM      9  H   UNL     1      -0.075  -5.591   7.091  0.00  0.00    +0.156 HD
ENDROOT
BRANCH   3  10
ATOM     10  C   UNL     1      -4.424  -6.878   5.573  0.00  0.00    +0.015 A 
ATOM     11  C   UNL     1      -5.458  -7.525   4.981  0.00  0.00    +0.013 A 
ATOM     12  C   UNL     1      -6.489  -6.784   4.436  0.00  0.00    +0.008 A 
ATOM     13  C   UNL     1      -6.437  -5.431   4.510  0.00  0.00    +0.045 A 
ATOM     14  S   UNL     1      -4.897  -5.168   5.375  0.00  0.00    -0.099 S 
ENDBRANCH   3  10
BRANCH   2  15
ATOM     15  C   UNL     1      -2.121  -7.965   3.975  0.00  0.00    +0.339 C 
ATOM     16  O   UNL     1      -2.731  -7.422   3.073  0.00  0.00    -0.245 OA
BRANCH  15  17
ATOM     17  O   UNL     1      -1.514  -9.151   3.760  0.00  0.00    -0.465 OA
ATOM     18  C   UNL     1      -1.628  -9.710   2.451  0.00  0.00    +0.280 C 
ENDBRANCH  15  17
ENDBRANCH   2  15
BRANCH   1  19
ATOM     19  C   UNL     1       0.212  -6.537   4.681  0.00  0.00    +0.136 C 
BRANCH  19  23
ATOM     20  N   UNL     1       0.705  -2.857   2.724  0.00  0.00    -0.327 N 
ATOM     21  C   UNL     1       1.893  -3.434   3.372  0.00  0.00    +0.120 C 
ATOM     22  C   UNL     1       1.654  -4.933   3.581  0.00  0.00    +0.103 C 
ATOM     23  N   UNL     1       0.393  -5.127   4.309  0.00  0.00    -0.294 NA
ATOM     24  C   UNL     1      -0.753  -4.636   3.532  0.00  0.00    +0.103 C 
ATOM     25  C   UNL     1      -0.612  -3.120   3.324  0.00  0.00    +0.120 C 
BRANCH  20  31
ATOM     26  C   UNL     1       1.303   1.558   0.650  0.00  0.00    +0.044 C 
ATOM     27  C   UNL     1       1.116   0.067   0.537  0.00  0.00    -0.049 A 
ATOM     28  C   UNL     1       1.062  -0.529  -0.710  0.00  0.00    +0.004 A 
ATOM     29  C   UNL     1       0.890  -1.897  -0.819  0.00  0.00    +0.005 A 
ATOM     30  C   UNL     1       0.771  -2.672   0.318  0.00  0.00    -0.029 A 
ATOM     31  C   UNL     1       0.825  -2.076   1.572  0.00  0.00    +0.033 A 
ATOM     32  C   UNL     1       1.003  -0.703   1.677  0.00  0.00    +0.026 A 
ATOM     33  C   UNL     1       0.583  -4.162   0.199  0.00  0.00    +0.045 C 
ENDBRANCH  20  31
ENDBRANCH  19  23
ENDBRANCH   1  19
TORSDOF 6
