REMARK  Name = ZINC36058679
REMARK  14 active torsions:
REMARK  status: ('A' for Active; 'I' for Inactive)
REMARK    1  A    between atoms: C_1  and  C_2
REMARK    2  A    between atoms: C_3  and  C_33
REMARK    3  A    between atoms: C_4  and  C_23
REMARK    4  A    between atoms: C_7  and  C_12
REMARK    5  A    between atoms: C_13  and  N_15
REMARK    6  A    between atoms: N_15  and  C_16
REMARK    7  A    between atoms: C_16  and  C_17
REMARK    8  A    between atoms: C_26  and  O_31
REMARK    9  A    between atoms: C_28  and  O_29
REMARK   10  A    between atoms: O_29  and  C_30
REMARK   11  A    between atoms: O_31  and  C_32
REMARK   12  A    between atoms: C_33  and  O_35
REMARK   13  A    between atoms: O_35  and  C_36
REMARK   14  A    between atoms: C_36  and  C_37
REMARK                            x       y       z     vdW  Elec       q    Type
REMARK                         _______ _______ _______ _____ _____    ______ ____
ROOT
ATOM      1  C   UNL     1      -0.430   1.880   0.076  0.00  0.00    +0.066 C 
ATOM      2  C   UNL     1      -0.292   0.393   0.276  0.00  0.00    +0.053 C 
ATOM      3  C   UNL     1      -1.423  -0.392   0.394  0.00  0.00    +0.083 C 
ATOM      4  C   UNL     1      -1.231  -1.879   0.592  0.00  0.00    +0.153 C 
ATOM      5  N   UNL     1       0.168  -2.380   0.645  0.00  0.00    -0.267 N 
ATOM      6  C   UNL     1       0.576  -3.688   0.817  0.00  0.00    +0.048 C 
ATOM      7  C   UNL     1       1.905  -3.932   0.835  0.00  0.00    +0.072 C 
ATOM      8  S   UNL     1       2.583  -2.300   0.608  0.00  0.00    -0.060 S 
ATOM      9  C   UNL     1       1.147  -1.437   0.507  0.00  0.00    +0.166 C 
ATOM     10  N   UNL     1       0.912  -0.153   0.332  0.00  0.00    -0.230 NA
ENDROOT
BRANCH   4  11
ATOM     11  C   UNL     1      -1.911  -2.266   1.880  0.00  0.00    +0.020 A 
ATOM     12  C   UNL     1      -3.107  -2.958   1.849  0.00  0.00    +0.013 A 
ATOM     13  C   UNL     1      -3.733  -3.314   3.028  0.00  0.00    +0.046 A 
ATOM     14  C   UNL     1      -3.161  -2.978   4.247  0.00  0.00    +0.124 A 
ATOM     15  C   UNL     1      -1.961  -2.285   4.281  0.00  0.00    +0.091 A 
ATOM     16  C   UNL     1      -1.332  -1.933   3.097  0.00  0.00    +0.129 A 
BRANCH  16  17
ATOM     17  O   UNL     1      -0.153  -1.259   3.127  0.00  0.00    -0.495 OA
ATOM     18  C   UNL     1       0.438  -1.043   4.410  0.00  0.00    +0.277 C 
ENDBRANCH  16  17
BRANCH  14  19
ATOM     19  O   UNL     1      -3.777  -3.329   5.407  0.00  0.00    -0.495 OA
ATOM     20  C   UNL     1      -5.010  -4.042   5.297  0.00  0.00    +0.277 C 
ENDBRANCH  14  19
ENDBRANCH   4  11
BRANCH   6  21
ATOM     21  C   UNL     1      -0.400  -4.776   0.974  0.00  0.00    +0.091 C 
ATOM     22  C   UNL     1       0.021  -6.021   1.268  0.00  0.00    +0.239 C 
ATOM     23  O   UNL     1       1.347  -6.295   1.311  0.00  0.00    -0.271 OA
BRANCH  22  24
ATOM     24  N   UNL     1      -0.902  -7.021   1.526  0.00  0.00    -0.308 N 
ATOM     25  H   UNL     1      -1.850  -6.844   1.423  0.00  0.00    +0.149 HD
BRANCH  24  26
ATOM     26  C   UNL     1      -0.446  -8.346   1.952  0.00  0.00    +0.140 C 
BRANCH  26  27
ATOM     27  C   UNL     1      -1.627  -9.277   2.047  0.00  0.00    -0.027 A 
ATOM     28  C   UNL     1      -2.342  -9.399   3.228  0.00  0.00    +0.025 A 
ATOM     29  C   UNL     1      -3.419 -10.263   3.278  0.00  0.00    +0.111 A 
ATOM     30  N   UNL     1      -3.768 -10.967   2.219  0.00  0.00    -0.263 NA
ATOM     31  C   UNL     1      -3.111 -10.877   1.079  0.00  0.00    +0.111 A 
ATOM     32  C   UNL     1      -2.027 -10.029   0.953  0.00  0.00    +0.025 A 
ENDBRANCH  26  27
ENDBRANCH  24  26
ENDBRANCH  22  24
ENDBRANCH   6  21
BRANCH   3  33
ATOM     33  C   UNL     1      -2.703   0.171   0.332  0.00  0.00    +0.339 C 
ATOM     34  O   UNL     1      -2.835   1.381   0.277  0.00  0.00    -0.245 OA
BRANCH  33  35
ATOM     35  O   UNL     1      -3.793  -0.629   0.332  0.00  0.00    -0.457 OA
BRANCH  35  36
ATOM     36  C   UNL     1      -5.062   0.005   0.155  0.00  0.00    +0.259 C 
BRANCH  36  37
ATOM     37  C   UNL     1      -6.159  -1.018   0.304  0.00  0.00    +0.006 C 
ATOM     38  C   UNL     1      -7.193  -0.763   1.068  0.00  0.00    +0.007 C 
ENDBRANCH  36  37
ENDBRANCH  35  36
ENDBRANCH  33  35
ENDBRANCH   3  33
TORSDOF 11
