REMARK  Name = ZINC08687381
REMARK  19 active torsions:
REMARK  status: ('A' for Active; 'I' for Inactive)
REMARK    1  A    between atoms: C_1  and  C_2
REMARK    2  A    between atoms: C_2  and  C_3
REMARK    3  A    between atoms: C_2  and  C_4
REMARK    4  A    between atoms: C_4  and  N_5
REMARK    5  A    between atoms: N_5  and  C_6
REMARK    6  A    between atoms: N_5  and  C_10
REMARK    7  A    between atoms: C_6  and  C_7
REMARK    8  A    between atoms: C_7  and  C_8
REMARK    9  A    between atoms: C_7  and  C_9
REMARK   10  A    between atoms: C_10  and  C_11
REMARK   11  A    between atoms: C_11  and  C_13
REMARK   12  A    between atoms: C_11  and  O_35
REMARK   13  A    between atoms: C_13  and  N_14
REMARK   14  A    between atoms: N_14  and  C_15
REMARK   15  A    between atoms: N_14  and  S_26
REMARK   16  A    between atoms: C_17  and  N_23
REMARK   17  A    between atoms: C_20  and  O_21
REMARK   18  A    between atoms: O_21  and  C_22
REMARK   19  A    between atoms: S_26  and  C_29
REMARK                            x       y       z     vdW  Elec       q    Type
REMARK                         _______ _______ _______ _____ _____    ______ ____
ROOT
ATOM      1  N   UNL     1       1.992   0.587  -6.126  0.00  0.00    -0.197 N 
ENDROOT
BRANCH   1   2
ATOM      2  C   UNL     1       2.365   1.883  -6.499  0.00  0.00    +0.095 A 
ATOM      3  C   UNL     1       3.407   2.078  -7.393  0.00  0.00    +0.061 A 
ATOM      4  C   UNL     1       3.773   3.359  -7.759  0.00  0.00    +0.128 A 
ATOM      5  C   UNL     1       3.103   4.449  -7.236  0.00  0.00    +0.036 A 
ATOM      6  C   UNL     1       2.063   4.263  -6.344  0.00  0.00    +0.050 A 
ATOM      7  C   UNL     1       1.685   2.982  -5.977  0.00  0.00    +0.143 A 
BRANCH   4   8
ATOM      8  N   UNL     1       4.886   3.565  -8.713  0.00  0.00    +0.056 N 
ATOM      9  O   UNL     1       5.474   2.613  -9.170  0.00  0.00    -0.126 OA
ATOM     10  O   UNL     1       5.208   4.685  -9.034  0.00  0.00    -0.126 OA
ENDBRANCH   4   8
BRANCH   7  11
ATOM     11  O   UNL     1       0.658   2.798  -5.104  0.00  0.00    -0.493 OA
ATOM     12  C   UNL     1       0.008   3.970  -4.610  0.00  0.00    +0.277 C 
ENDBRANCH   7  11
ENDBRANCH   1   2
BRANCH   1  13
ATOM     13  S   UNL     1       0.762  -0.183  -6.925  0.00  0.00    +0.075 S 
ATOM     14  O   UNL     1       0.672   0.419  -8.209  0.00  0.00    -0.150 OA
ATOM     15  O   UNL     1       0.975  -1.577  -6.750  0.00  0.00    -0.150 OA
BRANCH  13  16
ATOM     16  C   UNL     1      -0.733   0.208  -6.079  0.00  0.00    +0.109 A 
ATOM     17  C   UNL     1      -1.172  -0.594  -5.043  0.00  0.00    +0.029 A 
ATOM     18  C   UNL     1      -2.345  -0.287  -4.380  0.00  0.00    +0.002 A 
ATOM     19  C   UNL     1      -3.080   0.823  -4.753  0.00  0.00    +0.000 A 
ATOM     20  C   UNL     1      -2.641   1.626  -5.788  0.00  0.00    +0.002 A 
ATOM     21  C   UNL     1      -1.465   1.321  -6.449  0.00  0.00    +0.029 A 
ENDBRANCH  13  16
ENDBRANCH   1  13
BRANCH   1  22
ATOM     22  C   UNL     1       2.690  -0.090  -5.030  0.00  0.00    +0.161 C 
BRANCH  22  23
ATOM     23  C   UNL     1       2.059   0.317  -3.696  0.00  0.00    +0.117 C 
BRANCH  23  24
ATOM     24  O   UNL     1       2.169   1.732  -3.530  0.00  0.00    -0.392 OA
ATOM     25  H   UNL     1       3.079   2.058  -3.526  0.00  0.00    +0.210 HD
ENDBRANCH  23  24
BRANCH  23  26
ATOM     26  C   UNL     1       2.788  -0.389  -2.551  0.00  0.00    -0.046 C 
BRANCH  26  27
ATOM     27  N   UNL     1       2.109  -0.094  -1.283  0.00  0.00    +0.382 N 
ATOM     28  H   UNL     1       2.043   0.905  -1.161  0.00  0.00    -0.082 HD
BRANCH  27  29
ATOM     29  C   UNL     1       0.760  -0.676  -1.302  0.00  0.00    -0.076 C 
BRANCH  29  31
ATOM     30  C   UNL     1      -0.222   1.265  -0.073  0.00  0.00    +0.005 C 
ATOM     31  C   UNL     1       0.002  -0.248  -0.044  0.00  0.00    -0.034 C 
ATOM     32  C   UNL     1      -1.350  -0.963   0.005  0.00  0.00    +0.005 C 
ENDBRANCH  29  31
ENDBRANCH  27  29
BRANCH  27  33
ATOM     33  C   UNL     1       2.876  -0.672  -0.171  0.00  0.00    -0.076 C 
BRANCH  33  34
ATOM     34  C   UNL     1       4.227   0.037  -0.060  0.00  0.00    -0.034 C 
ATOM     35  C   UNL     1       4.004   1.500   0.327  0.00  0.00    +0.005 C 
ATOM     36  C   UNL     1       5.077  -0.650   1.011  0.00  0.00    +0.005 C 
ENDBRANCH  33  34
ENDBRANCH  27  33
ENDBRANCH  26  27
ENDBRANCH  23  26
ENDBRANCH  22  23
ENDBRANCH   1  22
TORSDOF 14
