REMARK  Name = ZINC15315585
REMARK  7 active torsions:
REMARK  status: ('A' for Active; 'I' for Inactive)
REMARK    1  A    between atoms: C_1  and  C_2
REMARK    2  A    between atoms: C_2  and  C_3
REMARK    3  A    between atoms: C_3  and  C_22
REMARK    4  A    between atoms: N_6  and  C_10
REMARK    5  A    between atoms: C_10  and  C_11
REMARK    6  A    between atoms: N_13  and  C_14
REMARK    7  A    between atoms: C_17  and  C_21
REMARK                            x       y       z     vdW  Elec       q    Type
REMARK                         _______ _______ _______ _____ _____    ______ ____
ROOT
ATOM      1  C   UNL     1      -1.786  -6.460   0.158  0.00  0.00    +0.138 C 
ATOM      2  C   UNL     1      -2.082  -5.093   0.742  0.00  0.00    +0.251 C 
ATOM      3  O   UNL     1      -2.195  -4.806   1.915  0.00  0.00    -0.272 OA
ATOM      4  N   UNL     1      -2.192  -4.262  -0.313  0.00  0.00    -0.215 N 
ATOM      5  C   UNL     1      -2.014  -4.908  -1.471  0.00  0.00    +0.310 C 
ATOM      6  O   UNL     1      -2.071  -4.371  -2.560  0.00  0.00    -0.252 OA
ATOM      7  N   UNL     1      -1.762  -6.218  -1.295  0.00  0.00    -0.281 N 
ATOM      8  H   UNL     1      -1.600  -6.875  -1.990  0.00  0.00    +0.152 HD
ENDROOT
BRANCH   1   9
ATOM      9  C   UNL     1      -0.449  -6.964   0.637  0.00  0.00    -0.015 A 
ATOM     10  C   UNL     1      -0.369  -7.719   1.792  0.00  0.00    +0.006 A 
ATOM     11  C   UNL     1       0.857  -8.185   2.228  0.00  0.00    +0.000 A 
ATOM     12  C   UNL     1       2.004  -7.888   1.516  0.00  0.00    +0.000 A 
ATOM     13  C   UNL     1       1.924  -7.128   0.364  0.00  0.00    +0.000 A 
ATOM     14  C   UNL     1       0.697  -6.666  -0.076  0.00  0.00    +0.006 A 
ENDBRANCH   1   9
BRANCH   1  16
ATOM     15  C   UNL     1      -4.207  -7.007  -0.128  0.00  0.00    +0.007 C 
ATOM     16  C   UNL     1      -2.895  -7.451   0.520  0.00  0.00    +0.037 C 
ENDBRANCH   1  16
BRANCH   4  17
ATOM     17  C   UNL     1      -2.478  -2.829  -0.206  0.00  0.00    +0.214 C 
BRANCH  17  18
ATOM     18  C   UNL     1      -1.183  -2.065  -0.100  0.00  0.00    +0.235 C 
ATOM     19  O   UNL     1      -0.125  -2.659  -0.113  0.00  0.00    -0.274 OA
ATOM     20  N   UNL     1      -1.200  -0.722   0.009  0.00  0.00    -0.283 N 
ATOM     21  H   UNL     1      -2.044  -0.253   0.100  0.00  0.00    +0.155 HD
BRANCH  20  22
ATOM     22  C   UNL     1       0.001  -0.003  -0.009  0.00  0.00    +0.048 A 
ATOM     23  C   UNL     1       1.123  -0.537  -0.630  0.00  0.00    +0.024 A 
ATOM     24  C   UNL     1       2.306   0.174  -0.647  0.00  0.00    +0.005 A 
ATOM     25  C   UNL     1       2.376   1.418  -0.046  0.00  0.00    -0.049 A 
ATOM     26  C   UNL     1       1.262   1.953   0.574  0.00  0.00    +0.020 A 
ATOM     27  C   UNL     1       0.074   1.246   0.594  0.00  0.00    +0.039 A 
ATOM     28 BR   UNL     1      -1.451   1.982   1.435  0.00  0.00    -0.048 Br
ATOM     29  C   UNL     1       3.669   2.192  -0.067  0.00  0.00    +0.044 C 
ENDBRANCH  20  22
ENDBRANCH  17  18
ENDBRANCH   4  17
TORSDOF 5
