REMARK  Name = ZINC39669456
REMARK  7 active torsions:
REMARK  status: ('A' for Active; 'I' for Inactive)
REMARK    1  A    between atoms: C_1  and  C_2
REMARK    2  A    between atoms: C_2  and  S_3
REMARK    3  A    between atoms: S_3  and  C_4
REMARK    4  A    between atoms: C_5  and  C_10
REMARK    5  A    between atoms: C_14  and  C_23
REMARK    6  A    between atoms: N_25  and  C_26
REMARK    7  A    between atoms: C_26  and  C_27
REMARK                            x       y       z     vdW  Elec       q    Type
REMARK                         _______ _______ _______ _____ _____    ______ ____
ROOT
ATOM      1  C   UNL     1       2.067  -2.695   3.295  0.00  0.00    +0.249 C 
ATOM      2  O   UNL     1       2.113  -1.482   3.362  0.00  0.00    -0.270 OA
ATOM      3  N   UNL     1       2.504  -3.444   4.327  0.00  0.00    -0.296 N 
ATOM      4  C   UNL     1       2.625  -4.920   4.392  0.00  0.00    +0.121 C 
ATOM      5  C   UNL     1       3.943  -5.170   5.158  0.00  0.00    +0.100 C 
ATOM      6  C   UNL     1       4.165  -3.893   5.986  0.00  0.00    -0.004 C 
ATOM      7  C   UNL     1       2.978  -2.977   5.652  0.00  0.00    +0.115 C 
ATOM      8  C   UNL     1       5.473  -3.220   5.580  0.00  0.00    -0.010 C 
ATOM      9  C   UNL     1       5.699  -1.985   6.456  0.00  0.00    -0.082 C 
ATOM     10  N   UNL     1       5.748  -2.386   7.867  0.00  0.00    +0.379 N 
ATOM     11  C   UNL     1       4.455  -2.947   8.274  0.00  0.00    -0.082 C 
ATOM     12  C   UNL     1       4.176  -4.223   7.475  0.00  0.00    -0.010 C 
ATOM     13  H   UNL     1       6.469  -3.080   7.993  0.00  0.00    -0.086 HD
ATOM     14  H   UNL     1       5.958  -1.580   8.438  0.00  0.00    -0.086 HD
ENDROOT
BRANCH   1  16
ATOM     15  C   UNL     1       1.759  -2.793   0.814  0.00  0.00    +0.109 A 
ATOM     16  C   UNL     1       1.532  -3.347   2.086  0.00  0.00    +0.069 A 
ATOM     17  C   UNL     1       0.789  -4.529   2.183  0.00  0.00    +0.017 A 
ATOM     18  C   UNL     1       0.310  -5.102   1.018  0.00  0.00    +0.020 A 
ATOM     19  C   UNL     1       0.575  -4.498  -0.198  0.00  0.00    +0.112 A 
ATOM     20  N   UNL     1       1.272  -3.381  -0.269  0.00  0.00    -0.248 NA
BRANCH  15  21
ATOM     21  S   UNL     1       2.691  -1.305   0.659  0.00  0.00    -0.105 S 
BRANCH  21  23
ATOM     22  C   UNL     1       3.497   0.299  -1.404  0.00  0.00    +0.015 C 
ATOM     23  C   UNL     1       2.710  -0.983  -1.126  0.00  0.00    +0.072 C 
ENDBRANCH  21  23
ENDBRANCH  15  21
ENDBRANCH   1  16
BRANCH   5  24
ATOM     24  C   UNL     1       3.805  -6.367   6.062  0.00  0.00    +0.218 C 
ATOM     25  O   UNL     1       2.728  -6.639   6.548  0.00  0.00    -0.275 OA
ATOM     26  N   UNL     1       4.880  -7.135   6.332  0.00  0.00    -0.315 N 
ATOM     27  H   UNL     1       5.741  -6.917   5.944  0.00  0.00    +0.149 HD
BRANCH  26  28
ATOM     28  C   UNL     1       4.745  -8.299   7.212  0.00  0.00    +0.109 C 
BRANCH  28  29
ATOM     29  C   UNL     1       6.102  -8.992   7.352  0.00  0.00    +0.024 C 
ATOM     30  C   UNL     1       5.939 -10.275   8.169  0.00  0.00    +0.008 C 
ATOM     31  C   UNL     1       7.289 -10.986   8.281  0.00  0.00    +0.019 C 
ATOM     32  C   UNL     1       8.283 -10.074   9.008  0.00  0.00    +0.108 C 
ATOM     33  N   UNL     1       8.337  -8.783   8.309  0.00  0.00    -0.299 N 
ATOM     34  C   UNL     1       7.083  -8.057   8.067  0.00  0.00    +0.113 C 
ATOM     35  C   UNL     1       9.547  -8.259   7.887  0.00  0.00    +0.218 A 
ATOM     36  N   UNL     1       9.563  -7.090   7.264  0.00  0.00    -0.223 NA
ATOM     37  C   UNL     1      10.703  -6.561   6.849  0.00  0.00    +0.116 A 
ATOM     38  C   UNL     1      11.887  -7.246   7.072  0.00  0.00    +0.039 A 
ATOM     39  C   UNL     1      11.833  -8.467   7.726  0.00  0.00    +0.116 A 
ATOM     40  N   UNL     1      10.661  -8.937   8.120  0.00  0.00    -0.223 NA
ENDBRANCH  28  29
ENDBRANCH  26  28
ENDBRANCH   5  24
TORSDOF 6
