REMARK  Name = ZINC30755264
REMARK  7 active torsions:
REMARK  status: ('A' for Active; 'I' for Inactive)
REMARK    1  A    between atoms: C_1  and  C_2
REMARK    2  A    between atoms: C_5  and  C_8
REMARK    3  A    between atoms: C_8  and  C_10
REMARK    4  A    between atoms: C_8  and  N_16
REMARK    5  A    between atoms: N_16  and  S_17
REMARK    6  A    between atoms: S_17  and  C_20
REMARK    7  A    between atoms: C_24  and  N_26
REMARK                            x       y       z     vdW  Elec       q    Type
REMARK                         _______ _______ _______ _____ _____    ______ ____
ROOT
ATOM      1  C   UNL     1      -1.250   5.793  -2.396  0.00  0.00    +0.136 C 
ENDROOT
BRANCH   1   6
ATOM      2  C   UNL     1      -2.154  10.164  -6.067  0.00  0.00    +0.044 C 
ATOM      3  C   UNL     1      -1.918   9.024  -5.110  0.00  0.00    -0.050 A 
ATOM      4  C   UNL     1      -2.992   8.387  -4.516  0.00  0.00    +0.004 A 
ATOM      5  C   UNL     1      -2.775   7.341  -3.637  0.00  0.00    +0.006 A 
ATOM      6  C   UNL     1      -1.486   6.933  -3.353  0.00  0.00    -0.025 A 
ATOM      7  C   UNL     1      -0.412   7.573  -3.943  0.00  0.00    +0.006 A 
ATOM      8  C   UNL     1      -0.629   8.615  -4.826  0.00  0.00    +0.004 A 
ENDBRANCH   1   6
BRANCH   1   9
ATOM      9  C   UNL     1      -0.980   4.531  -3.173  0.00  0.00    -0.025 A 
ATOM     10  C   UNL     1       0.275   4.303  -3.708  0.00  0.00    +0.005 A 
ATOM     11  C   UNL     1       0.523   3.143  -4.417  0.00  0.00    +0.000 A 
ATOM     12  C   UNL     1      -0.485   2.216  -4.600  0.00  0.00    +0.000 A 
ATOM     13  C   UNL     1      -1.741   2.446  -4.071  0.00  0.00    +0.000 A 
ATOM     14  C   UNL     1      -1.988   3.604  -3.357  0.00  0.00    +0.005 A 
ENDBRANCH   1   9
BRANCH   1  15
ATOM     15  N   UNL     1      -0.096   6.100  -1.547  0.00  0.00    -0.178 NA
ATOM     16  H   UNL     1       0.821   6.513  -1.993  0.00  0.00    +0.149 HD
BRANCH  15  17
ATOM     17  S   UNL     1      -0.074   5.602   0.033  0.00  0.00    +0.059 S 
ATOM     18  O   UNL     1      -1.319   5.988   0.597  0.00  0.00    -0.153 OA
ATOM     19  O   UNL     1       1.171   6.022   0.574  0.00  0.00    -0.153 OA
BRANCH  17  20
ATOM     20  C   UNL     1      -0.050   3.840   0.023  0.00  0.00    +0.107 A 
ATOM     21  C   UNL     1       1.157   3.165   0.008  0.00  0.00    +0.028 A 
ATOM     22  C   UNL     1       1.175   1.783   0.000  0.00  0.00    +0.004 A 
ATOM     23  C   UNL     1      -0.013   1.076   0.008  0.00  0.00    +0.033 A 
ATOM     24  C   UNL     1      -1.219   1.750   0.017  0.00  0.00    +0.128 A 
ATOM     25  C   UNL     1      -1.238   3.133   0.030  0.00  0.00    +0.061 A 
BRANCH  24  26
ATOM     26  N   UNL     1      -2.490   0.993   0.019  0.00  0.00    +0.056 N 
ATOM     27  O   UNL     1      -2.474  -0.225   0.013  0.00  0.00    -0.126 OA
ATOM     28  O   UNL     1      -3.554   1.588   0.028  0.00  0.00    -0.126 OA
ENDBRANCH  24  26
ENDBRANCH  17  20
ENDBRANCH  15  17
ENDBRANCH   1  15
TORSDOF 6
