REMARK  Name = ZINC16610026
REMARK  12 active torsions:
REMARK  status: ('A' for Active; 'I' for Inactive)
REMARK    1  A    between atoms: C_1  and  C_2
REMARK    2  A    between atoms: C_3  and  C_30
REMARK    3  A    between atoms: C_4  and  C_11
REMARK    4  A    between atoms: N_9  and  C_10
REMARK    5  A    between atoms: C_14  and  N_17
REMARK    6  A    between atoms: N_20  and  C_21
REMARK    7  A    between atoms: C_24  and  N_27
REMARK    8  A    between atoms: C_30  and  O_32
REMARK    9  A    between atoms: O_32  and  C_33
REMARK   10  A    between atoms: C_33  and  C_34
REMARK   11  A    between atoms: C_34  and  O_35
REMARK   12  A    between atoms: O_35  and  C_36
REMARK                            x       y       z     vdW  Elec       q    Type
REMARK                         _______ _______ _______ _____ _____    ______ ____
ROOT
ATOM      1  C   UNL     1      -1.014   2.037  -0.936  0.00  0.00    -0.022 A 
ATOM      2  C   UNL     1      -1.024   3.345  -1.385  0.00  0.00    +0.007 A 
ATOM      3  C   UNL     1      -1.526   3.644  -2.636  0.00  0.00    +0.024 A 
ATOM      4  C   UNL     1      -2.032   2.630  -3.440  0.00  0.00    +0.035 A 
ATOM      5  C   UNL     1      -2.026   1.319  -2.984  0.00  0.00    +0.024 A 
ATOM      6  C   UNL     1      -1.517   1.026  -1.734  0.00  0.00    +0.007 A 
ENDROOT
BRANCH   1  10
ATOM      7  C   UNL     1      -2.364   3.126   3.468  0.00  0.00    +0.061 C 
ATOM      8  C   UNL     1      -1.304   2.850   2.433  0.00  0.00    +0.021 C 
ATOM      9  C   UNL     1      -1.554   1.962   1.446  0.00  0.00    +0.078 C 
ATOM     10  C   UNL     1      -0.460   1.714   0.427  0.00  0.00    +0.141 C 
ATOM     11  N   UNL     1       0.794   2.467   0.598  0.00  0.00    -0.315 N 
ATOM     12  C   UNL     1       0.893   3.321   1.636  0.00  0.00    +0.137 C 
ATOM     13  S   UNL     1       2.345   4.203   1.847  0.00  0.00    -0.018 S 
ATOM     14  N   UNL     1      -0.107   3.501   2.508  0.00  0.00    -0.289 N 
ATOM     15  C   UNL     1       0.096   4.451   3.605  0.00  0.00    +0.137 C 
ATOM     16  H   UNL     1       1.531   2.352  -0.022  0.00  0.00    +0.149 HD
BRANCH   9  17
ATOM     17  C   UNL     1      -2.793   1.286   1.367  0.00  0.00    +0.339 C 
ATOM     18  O   UNL     1      -3.657   1.501   2.197  0.00  0.00    -0.245 OA
BRANCH  17  19
ATOM     19  O   UNL     1      -3.019   0.403   0.372  0.00  0.00    -0.459 OA
BRANCH  19  20
ATOM     20  C   UNL     1      -4.293  -0.242   0.353  0.00  0.00    +0.260 C 
BRANCH  20  21
ATOM     21  C   UNL     1      -4.363  -1.200  -0.838  0.00  0.00    +0.200 C 
BRANCH  21  22
ATOM     22  O   UNL     1      -3.409  -2.250  -0.661  0.00  0.00    -0.380 OA
ATOM     23  C   UNL     1      -3.393  -3.205  -1.724  0.00  0.00    +0.194 C 
ENDBRANCH  21  22
ENDBRANCH  20  21
ENDBRANCH  19  20
ENDBRANCH  17  19
ENDBRANCH   9  17
ENDBRANCH   1  10
BRANCH   4  24
ATOM     24  N   UNL     1      -2.546   2.930  -4.706  0.00  0.00    -0.269 N 
ATOM     25  C   UNL     1      -2.013   3.935  -5.429  0.00  0.00    +0.308 C 
ATOM     26  O   UNL     1      -1.025   4.517  -5.025  0.00  0.00    -0.252 OA
ATOM     27  N   UNL     1      -2.575   4.294  -6.601  0.00  0.00    -0.269 N 
ATOM     28  H   UNL     1      -3.287   2.416  -5.063  0.00  0.00    +0.156 HD
ATOM     29  H   UNL     1      -3.404   3.881  -6.888  0.00  0.00    +0.156 HD
BRANCH  27  30
ATOM     30  C   UNL     1      -1.961   5.262  -7.403  0.00  0.00    +0.035 A 
ATOM     31  C   UNL     1      -2.735   6.117  -8.177  0.00  0.00    +0.025 A 
ATOM     32  C   UNL     1      -2.126   7.074  -8.965  0.00  0.00    +0.034 A 
ATOM     33  C   UNL     1      -0.747   7.175  -8.991  0.00  0.00    +0.126 A 
ATOM     34  C   UNL     1       0.026   6.322  -8.226  0.00  0.00    +0.034 A 
ATOM     35  C   UNL     1      -0.576   5.366  -7.433  0.00  0.00    +0.025 A 
BRANCH  33  36
ATOM     36  N   UNL     1      -0.098   8.198  -9.841  0.00  0.00    +0.056 N 
ATOM     37  O   UNL     1       1.117   8.288  -9.866  0.00  0.00    -0.126 OA
ATOM     38  O   UNL     1      -0.778   8.951 -10.516  0.00  0.00    -0.126 OA
ENDBRANCH  33  36
ENDBRANCH  27  30
ENDBRANCH   4  24
TORSDOF 9
