REMARK  Name = ZINC00795640
REMARK  5 active torsions:
REMARK  status: ('A' for Active; 'I' for Inactive)
REMARK    1  A    between atoms: C_9  and  C_12
REMARK    2  A    between atoms: N_14  and  C_15
REMARK    3  A    between atoms: C_16  and  C_24
REMARK    4  A    between atoms: N_26  and  C_27
REMARK    5  A    between atoms: C_27  and  C_28
REMARK                            x       y       z     vdW  Elec       q    Type
REMARK                         _______ _______ _______ _____ _____    ______ ____
ROOT
ATOM      1  C   UNL     1      -2.174   9.473   0.013  0.00  0.00    +0.085 A 
ATOM      2  C   UNL     1      -3.111  10.464   0.264  0.00  0.00    +0.069 A 
ATOM      3  C   UNL     1      -2.815  11.805  -0.212  0.00  0.00    -0.023 A 
ATOM      4  C   UNL     1      -1.641  11.936  -0.868  0.00  0.00    -0.004 A 
ATOM      5  S   UNL     1      -0.931  10.314  -0.853  0.00  0.00    -0.077 S 
ATOM      6  C   UNL     1      -1.079  13.185  -1.473  0.00  0.00    +0.043 C 
ATOM      7  C   UNL     1      -2.204  14.226  -1.565  0.00  0.00    +0.005 C 
ATOM      8  C   UNL     1      -2.934  14.284  -0.220  0.00  0.00    +0.005 C 
ATOM      9  C   UNL     1      -3.738  13.000  -0.008  0.00  0.00    +0.037 C 
ENDROOT
BRANCH   1  12
ATOM     10  C   UNL     1      -1.210   7.309   0.025  0.00  0.00    +0.262 C 
ATOM     11  O   UNL     1      -0.256   7.742  -0.587  0.00  0.00    -0.271 OA
ATOM     12  N   UNL     1      -2.222   8.132   0.364  0.00  0.00    -0.276 N 
ATOM     13  H   UNL     1      -2.985   7.786   0.854  0.00  0.00    +0.155 HD
BRANCH  10  22
ATOM     14  C   UNL     1      -0.013   1.076   0.008  0.00  0.00    +0.004 A 
ATOM     15  C   UNL     1       1.176   1.782   0.000  0.00  0.00    +0.004 A 
ATOM     16  C   UNL     1       1.161   3.164   0.007  0.00  0.00    +0.049 A 
ATOM     17  C   UNL     1      -0.046   3.846   0.020  0.00  0.00    +0.163 A 
ATOM     18  C   UNL     1      -1.241   3.136   0.030  0.00  0.00    +0.162 A 
ATOM     19  C   UNL     1      -1.219   1.749   0.017  0.00  0.00    +0.049 A 
ATOM     20  O   UNL     1      -2.437   3.785   0.048  0.00  0.00    -0.484 OA
ATOM     21  C   UNL     1      -2.424   5.167  -0.326  0.00  0.00    +0.283 C 
ATOM     22  C   UNL     1      -1.263   5.852   0.407  0.00  0.00    +0.296 C 
ATOM     23  O   UNL     1      -0.045   5.207   0.019  0.00  0.00    -0.473 OA
ENDBRANCH  10  22
ENDBRANCH   1  12
BRANCH   2  24
ATOM     24  C   UNL     1      -4.353  10.171   0.987  0.00  0.00    +0.247 C 
ATOM     25  O   UNL     1      -4.389  10.272   2.200  0.00  0.00    -0.270 OA
ATOM     26  N   UNL     1      -5.454   9.791   0.309  0.00  0.00    -0.304 N 
ATOM     27  H   UNL     1      -5.424   9.711  -0.657  0.00  0.00    +0.149 HD
BRANCH  26  28
ATOM     28  C   UNL     1      -6.694   9.498   1.031  0.00  0.00    +0.179 C 
BRANCH  28  29
ATOM     29  C   UNL     1      -7.765   9.099   0.049  0.00  0.00    +0.122 A 
ATOM     30  C   UNL     1      -8.022   7.846  -0.369  0.00  0.00    +0.046 A 
ATOM     31  C   UNL     1      -9.099   7.931  -1.280  0.00  0.00    +0.041 A 
ATOM     32  C   UNL     1      -9.436   9.231  -1.366  0.00  0.00    +0.195 A 
ATOM     33  O   UNL     1      -8.628   9.933  -0.554  0.00  0.00    -0.466 OA
ENDBRANCH  28  29
ENDBRANCH  26  28
ENDBRANCH   2  24
TORSDOF 5
