REMARK  Name = ZINC02737461
REMARK  10 active torsions:
REMARK  status: ('A' for Active; 'I' for Inactive)
REMARK    1  A    between atoms: C_1  and  C_2
REMARK    2  A    between atoms: C_5  and  C_9
REMARK    3  A    between atoms: C_7  and  C_8
REMARK    4  A    between atoms: C_11  and  C_19
REMARK    5  A    between atoms: N_21  and  C_22
REMARK    6  A    between atoms: C_23  and  C_36
REMARK    7  A    between atoms: C_28  and  C_32
REMARK    8  A    between atoms: C_32  and  C_33
REMARK    9  A    between atoms: C_32  and  C_34
REMARK   10  A    between atoms: C_32  and  C_35
REMARK                            x       y       z     vdW  Elec       q    Type
REMARK                         _______ _______ _______ _____ _____    ______ ____
ROOT
ATOM      1  C   UNL     1      -0.014   1.211   0.009  0.00  0.00    +0.249 C 
ATOM      2  O   UNL     1       0.002  -0.004  -0.011  0.00  0.00    -0.270 OA
ATOM      3  N   UNL     1      -1.190   1.869   0.032  0.00  0.00    -0.275 N 
ATOM      4  H   UNL     1      -1.205   2.969   0.050  0.00  0.00    +0.156 HD
ENDROOT
BRANCH   1   7
ATOM      5  C   UNL     1       2.500   4.029  -0.099  0.00  0.00    +0.072 A 
ATOM      6  C   UNL     1       1.271   3.352  -0.095  0.00  0.00    +0.042 A 
ATOM      7  C   UNL     1       1.256   1.968   0.001  0.00  0.00    +0.048 A 
ATOM      8  C   UNL     1       2.547   1.288   0.100  0.00  0.00    +0.013 A 
ATOM      9  C   UNL     1       2.634  -0.105   0.206  0.00  0.00    +0.011 A 
ATOM     10  C   UNL     1       3.858  -0.698   0.297  0.00  0.00    +0.001 A 
ATOM     11  C   UNL     1       5.024   0.065   0.284  0.00  0.00    +0.002 A 
ATOM     12  C   UNL     1       4.976   1.420   0.169  0.00  0.00    +0.028 A 
ATOM     13  C   UNL     1       3.730   2.069   0.080  0.00  0.00    +0.072 A 
ATOM     14  N   UNL     1       3.651   3.397  -0.015  0.00  0.00    -0.247 NA
BRANCH   5  19
ATOM     15  C   UNL     1       2.507   9.774  -0.498  0.00  0.00    +0.044 C 
ATOM     16  C   UNL     1       2.505   8.270  -0.395  0.00  0.00    -0.047 A 
ATOM     17  C   UNL     1       1.306   7.589  -0.285  0.00  0.00    +0.004 A 
ATOM     18  C   UNL     1       1.298   6.212  -0.189  0.00  0.00    +0.010 A 
ATOM     19  C   UNL     1       2.502   5.508  -0.203  0.00  0.00    +0.001 A 
ATOM     20  C   UNL     1       3.707   6.201  -0.308  0.00  0.00    +0.013 A 
ATOM     21  C   UNL     1       3.702   7.577  -0.409  0.00  0.00    -0.047 A 
ATOM     22  C   UNL     1       5.004   8.327  -0.529  0.00  0.00    +0.044 C 
ENDBRANCH   5  19
ENDBRANCH   1   7
BRANCH   3  23
ATOM     23  C   UNL     1      -2.381   1.161   0.034  0.00  0.00    +0.085 A 
ATOM     24  C   UNL     1      -3.678   1.653   0.057  0.00  0.00    +0.068 A 
ATOM     25  C   UNL     1      -4.763   0.688   0.053  0.00  0.00    -0.023 A 
ATOM     26  C   UNL     1      -4.381  -0.608   0.028  0.00  0.00    -0.004 A 
ATOM     27  S   UNL     1      -2.611  -0.556   0.001  0.00  0.00    -0.077 S 
ATOM     28  C   UNL     1      -5.270  -1.812   0.019  0.00  0.00    +0.046 C 
ATOM     29  C   UNL     1      -6.686  -1.371   0.421  0.00  0.00    -0.000 C 
ATOM     30  C   UNL     1      -7.064  -0.130  -0.392  0.00  0.00    +0.009 C 
ATOM     31  C   UNL     1      -6.238   1.070   0.075  0.00  0.00    +0.037 C 
BRANCH  24  32
ATOM     32  C   UNL     1      -3.943   3.095   0.082  0.00  0.00    +0.244 C 
ATOM     33  O   UNL     1      -4.065   3.710  -0.961  0.00  0.00    -0.270 OA
ATOM     34  N   UNL     1      -4.053   3.739   1.261  0.00  0.00    -0.325 N 
ATOM     35  H   UNL     1      -4.252   4.821   1.280  0.00  0.00    +0.145 HD
ATOM     36  H   UNL     1      -3.943   3.183   2.204  0.00  0.00    +0.145 HD
ENDBRANCH  24  32
BRANCH  29  37
ATOM     37  C   UNL     1      -7.677  -2.499   0.127  0.00  0.00    -0.035 C 
ATOM     38  C   UNL     1      -7.286  -3.743   0.927  0.00  0.00    +0.011 C 
ATOM     39  C   UNL     1      -9.086  -2.057   0.528  0.00  0.00    +0.011 C 
ATOM     40  C   UNL     1      -7.650  -2.825  -1.368  0.00  0.00    +0.011 C 
ENDBRANCH  29  37
ENDBRANCH   3  23
TORSDOF 5
