REMARK  Name = ZINC18707790
REMARK  4 active torsions:
REMARK  status: ('A' for Active; 'I' for Inactive)
REMARK    1  A    between atoms: C_6  and  S_7
REMARK    2  A    between atoms: S_7  and  N_10
REMARK    3  A    between atoms: N_10  and  C_11
REMARK    4  A    between atoms: C_16  and  N_17
REMARK                            x       y       z     vdW  Elec       q    Type
REMARK                         _______ _______ _______ _____ _____    ______ ____
ROOT
ATOM      1  S   UNL     1      -2.574   5.329  -0.660  0.00  0.00    +0.072 S 
ATOM      2  O   UNL     1      -3.889   5.799  -0.401  0.00  0.00    -0.150 OA
ATOM      3  O   UNL     1      -1.415   6.054  -0.272  0.00  0.00    -0.150 OA
ENDROOT
BRANCH   1   9
ATOM      4  C   UNL     1      -1.223   5.125  -3.022  0.00  0.00    +0.030 A 
ATOM      5  C   UNL     1      -1.128   4.934  -4.388  0.00  0.00    +0.025 A 
ATOM      6  C   UNL     1      -2.276   4.716  -5.137  0.00  0.00    +0.037 A 
ATOM      7  C   UNL     1      -3.516   4.687  -4.511  0.00  0.00    -0.024 A 
ATOM      8  C   UNL     1      -3.604   4.874  -3.146  0.00  0.00    +0.034 A 
ATOM      9  C   UNL     1      -2.458   5.090  -2.402  0.00  0.00    +0.109 A 
ATOM     10  C   UNL     1      -4.761   4.450  -5.325  0.00  0.00    +0.046 C 
ATOM     11  C   UNL     1      -4.597   5.084  -6.707  0.00  0.00    +0.101 C 
ATOM     12  C   UNL     1      -3.273   4.684  -7.300  0.00  0.00    +0.218 C 
ATOM     13  O   UNL     1      -3.182   4.502  -8.496  0.00  0.00    -0.275 OA
ATOM     14  N   UNL     1      -2.188   4.527  -6.520  0.00  0.00    -0.285 N 
ATOM     15  H   UNL     1      -1.339   4.281  -6.919  0.00  0.00    +0.155 HD
ENDBRANCH   1   9
BRANCH   1  16
ATOM     16  N   UNL     1      -2.457   3.836   0.048  0.00  0.00    -0.214 N 
ATOM     17  H   UNL     1      -3.186   3.498   0.590  0.00  0.00    +0.174 HD
BRANCH  16  18
ATOM     18  C   UNL     1      -1.305   3.062  -0.138  0.00  0.00    +0.070 A 
ATOM     19  C   UNL     1      -0.062   3.672  -0.221  0.00  0.00    +0.046 A 
ATOM     20  C   UNL     1       1.074   2.905  -0.404  0.00  0.00    +0.043 A 
ATOM     21  C   UNL     1       0.976   1.529  -0.503  0.00  0.00    +0.022 A 
ATOM     22  C   UNL     1      -0.260   0.913  -0.422  0.00  0.00    +0.026 A 
ATOM     23  C   UNL     1      -1.404   1.675  -0.245  0.00  0.00    +0.052 A 
ATOM     24 CL   UNL     1       2.628   3.671  -0.508  0.00  0.00    -0.083 Cl
BRANCH  23  25
ATOM     25  N   UNL     1      -2.657   1.053  -0.168  0.00  0.00    -0.328 N 
ATOM     26  C   UNL     1      -2.744   0.189   1.016  0.00  0.00    +0.105 C 
ATOM     27  C   UNL     1      -4.167  -0.358   1.148  0.00  0.00    +0.019 C 
ATOM     28  C   UNL     1      -4.522  -1.151  -0.113  0.00  0.00    +0.003 C 
ATOM     29  C   UNL     1      -4.378  -0.242  -1.336  0.00  0.00    +0.019 C 
ATOM     30  C   UNL     1      -2.948   0.301  -1.396  0.00  0.00    +0.105 C 
ENDBRANCH  23  25
ENDBRANCH  16  18
ENDBRANCH   1  16
TORSDOF 4
