REMARK  Name = ZINC14887424
REMARK  8 active torsions:
REMARK  status: ('A' for Active; 'I' for Inactive)
REMARK    1  A    between atoms: C_1  and  C_2
REMARK    2  A    between atoms: C_6  and  C_28
REMARK    3  A    between atoms: C_16  and  C_19
REMARK    4  A    between atoms: N_30  and  C_31
REMARK    5  A    between atoms: C_31  and  C_33
REMARK    6  A    between atoms: C_31  and  C_34
REMARK    7  A    between atoms: C_34  and  O_35
REMARK    8  A    between atoms: O_35  and  C_36
REMARK                            x       y       z     vdW  Elec       q    Type
REMARK                         _______ _______ _______ _____ _____    ______ ____
ROOT
ATOM      1  C   UNL     1      -6.076  -1.383   0.116  0.00  0.00    +0.064 C 
ATOM      2  C   UNL     1      -4.814  -0.562   0.042  0.00  0.00    +0.025 A 
ATOM      3  C   UNL     1      -4.296  -0.270  -1.167  0.00  0.00    +0.073 A 
ATOM      4  C   UNL     1      -3.105   0.492  -1.243  0.00  0.00    +0.194 A 
ATOM      5  O   UNL     1      -2.635   0.824  -2.321  0.00  0.00    -0.287 OA
ATOM      6  C   UNL     1      -2.453   0.870   0.018  0.00  0.00    +0.103 A 
ATOM      7  C   UNL     1      -3.052   0.496   1.208  0.00  0.00    +0.041 A 
ATOM      8  N   UNL     1      -4.234  -0.138   1.200  0.00  0.00    -0.315 N 
ATOM      9  C   UNL     1      -4.921  -0.358   2.406  0.00  0.00    +0.060 A 
ATOM     10  C   UNL     1      -5.377  -1.627   2.728  0.00  0.00    +0.027 A 
ATOM     11  C   UNL     1      -6.051  -1.831   3.918  0.00  0.00    +0.002 A 
ATOM     12  C   UNL     1      -6.272  -0.777   4.787  0.00  0.00    +0.001 A 
ATOM     13  C   UNL     1      -5.821   0.492   4.472  0.00  0.00    +0.017 A 
ATOM     14  C   UNL     1      -5.145   0.701   3.279  0.00  0.00    +0.032 A 
ATOM     15  S   UNL     1      -4.560   2.309   2.850  0.00  0.00    -0.115 S 
ATOM     16  C   UNL     1      -2.755   2.156   3.062  0.00  0.00    +0.087 C 
ATOM     17  C   UNL     1      -2.341   0.788   2.499  0.00  0.00    +0.074 C 
ENDROOT
BRANCH  16  18
ATOM     18  C   UNL     1      -2.402   2.236   4.525  0.00  0.00    -0.030 A 
ATOM     19  C   UNL     1      -2.917   1.308   5.410  0.00  0.00    +0.008 A 
ATOM     20  C   UNL     1      -2.597   1.377   6.753  0.00  0.00    +0.050 A 
ATOM     21  C   UNL     1      -1.758   2.378   7.215  0.00  0.00    +0.166 A 
ATOM     22  C   UNL     1      -1.239   3.313   6.323  0.00  0.00    +0.167 A 
ATOM     23  C   UNL     1      -1.560   3.234   4.977  0.00  0.00    +0.054 A 
ATOM     24  O   UNL     1      -0.449   4.185   7.015  0.00  0.00    -0.453 OA
ATOM     25  C   UNL     1      -0.164   3.534   8.268  0.00  0.00    +0.466 C 
ATOM     26  O   UNL     1      -1.294   2.664   8.466  0.00  0.00    -0.453 OA
ENDBRANCH  16  18
BRANCH   6  27
ATOM     27  C   UNL     1      -1.187   1.624   0.017  0.00  0.00    +0.250 C 
ATOM     28  O   UNL     1      -1.204   2.840   0.023  0.00  0.00    -0.270 OA
ATOM     29  N   UNL     1      -0.011   0.966   0.007  0.00  0.00    -0.306 N 
ATOM     30  H   UNL     1       0.002  -0.004   0.002  0.00  0.00    +0.149 HD
BRANCH  29  31
ATOM     31  C   UNL     1       1.248   1.716  -0.001  0.00  0.00    +0.096 C 
ATOM     32  C   UNL     1       1.635   2.077   1.435  0.00  0.00    +0.030 C 
BRANCH  31  33
ATOM     33  C   UNL     1       2.349   0.857  -0.625  0.00  0.00    +0.181 C 
BRANCH  33  34
ATOM     34  O   UNL     1       2.592  -0.282   0.203  0.00  0.00    -0.381 OA
ATOM     35  C   UNL     1       3.609  -1.155  -0.293  0.00  0.00    +0.194 C 
ENDBRANCH  33  34
ENDBRANCH  31  33
ENDBRANCH  29  31
ENDBRANCH   6  27
TORSDOF 5
