REMARK  Name = ZINC66700027
REMARK  8 active torsions:
REMARK  status: ('A' for Active; 'I' for Inactive)
REMARK    1  A    between atoms: C_1  and  C_2
REMARK    2  A    between atoms: C_2  and  C_4
REMARK    3  A    between atoms: C_2  and  N_15
REMARK    4  A    between atoms: N_18  and  C_19
REMARK    5  A    between atoms: N_18  and  C_26
REMARK    6  A    between atoms: C_19  and  C_20
REMARK    7  A    between atoms: C_26  and  C_28
REMARK    8  A    between atoms: C_26  and  C_29
REMARK                            x       y       z     vdW  Elec       q    Type
REMARK                         _______ _______ _______ _____ _____    ______ ____
ROOT
ATOM      1  N   UNL     1      -1.361  -0.453  -2.412  0.00  0.00    -0.293 N 
ATOM      2  C   UNL     1      -0.046  -0.740  -2.346  0.00  0.00    +0.303 C 
ATOM      3  O   UNL     1       0.547  -0.633  -1.290  0.00  0.00    -0.253 OA
ATOM      4  N   UNL     1       0.612  -1.147  -3.450  0.00  0.00    -0.278 N 
ATOM      5  H   UNL     1      -1.817  -0.467  -3.268  0.00  0.00    +0.151 HD
ENDROOT
BRANCH   1   7
ATOM      6  C   UNL     1      -2.566  -1.407  -0.510  0.00  0.00    +0.033 C 
ATOM      7  C   UNL     1      -2.100  -0.119  -1.192  0.00  0.00    +0.102 C 
BRANCH   7   8
ATOM      8  C   UNL     1      -3.298   0.724  -1.546  0.00  0.00    -0.025 A 
ATOM      9  C   UNL     1      -4.040   0.428  -2.674  0.00  0.00    +0.009 A 
ATOM     10  C   UNL     1      -5.142   1.196  -3.005  0.00  0.00    +0.048 A 
ATOM     11  C   UNL     1      -5.503   2.265  -2.204  0.00  0.00    +0.142 A 
ATOM     12  C   UNL     1      -4.754   2.564  -1.067  0.00  0.00    +0.076 A 
ATOM     13  C   UNL     1      -3.655   1.788  -0.738  0.00  0.00    +0.032 A 
ATOM     14  N   UNL     1      -5.129   3.652  -0.265  0.00  0.00    -0.280 N 
ATOM     15  C   UNL     1      -6.360   4.185  -0.420  0.00  0.00    +0.255 C 
ATOM     16  O   UNL     1      -6.695   5.146   0.241  0.00  0.00    -0.272 OA
ATOM     17  C   UNL     1      -7.317   3.582  -1.416  0.00  0.00    +0.325 C 
ATOM     18  O   UNL     1      -6.583   3.031  -2.514  0.00  0.00    -0.481 OA
ATOM     19  H   UNL     1      -4.513   4.016   0.390  0.00  0.00    +0.155 HD
ENDBRANCH   7   8
ENDBRANCH   1   7
BRANCH   4  20
ATOM     20  C   UNL     1       2.012  -1.569  -3.355  0.00  0.00    +0.078 C 
ATOM     21  C   UNL     1       2.127  -2.739  -2.376  0.00  0.00    +0.028 C 
BRANCH  20  22
ATOM     22  C   UNL     1       2.864  -0.400  -2.855  0.00  0.00    +0.009 C 
ATOM     23  C   UNL     1       3.853   0.225  -3.841  0.00  0.00    +0.005 C 
ATOM     24  C   UNL     1       4.365  -0.641  -2.688  0.00  0.00    +0.005 C 
ENDBRANCH  20  22
ENDBRANCH   4  20
BRANCH   4  25
ATOM     25  C   UNL     1      -0.073  -1.168  -4.744  0.00  0.00    +0.144 C 
BRANCH  25  26
ATOM     26  C   UNL     1       0.111   0.161  -5.431  0.00  0.00    -0.030 A 
ATOM     27  C   UNL     1      -0.800   1.180  -5.220  0.00  0.00    +0.005 A 
ATOM     28  C   UNL     1      -0.631   2.399  -5.850  0.00  0.00    +0.000 A 
ATOM     29  C   UNL     1       0.448   2.599  -6.691  0.00  0.00    +0.000 A 
ATOM     30  C   UNL     1       1.359   1.581  -6.901  0.00  0.00    +0.000 A 
ATOM     31  C   UNL     1       1.192   0.363  -6.267  0.00  0.00    +0.005 A 
ENDBRANCH  25  26
ENDBRANCH   4  25
TORSDOF 6
