REMARK  Name = ZINC12601911
REMARK  9 active torsions:
REMARK  status: ('A' for Active; 'I' for Inactive)
REMARK    1  A    between atoms: C_1  and  C_2
REMARK    2  A    between atoms: C_9  and  C_11
REMARK    3  A    between atoms: C_11  and  O_12
REMARK    4  A    between atoms: O_12  and  C_13
REMARK    5  A    between atoms: C_18  and  C_19
REMARK    6  A    between atoms: N_21  and  C_22
REMARK    7  A    between atoms: C_22  and  C_23
REMARK    8  A    between atoms: C_23  and  C_25
REMARK    9  A    between atoms: C_23  and  N_64
REMARK                            x       y       z     vdW  Elec       q    Type
REMARK                         _______ _______ _______ _____ _____    ______ ____
ROOT
ATOM      1  C   UNL     1      -0.027  -2.834  -6.713  0.00  0.00    +0.133 A 
ATOM      2  C   UNL     1       0.046  -1.732  -7.552  0.00  0.00    +0.046 A 
ATOM      3  C   UNL     1       0.189  -1.906  -8.914  0.00  0.00    +0.004 A 
ATOM      4  C   UNL     1       0.250  -3.180  -9.454  0.00  0.00    +0.001 A 
ATOM      5  C   UNL     1       0.174  -4.287  -8.637  0.00  0.00    +0.017 A 
ATOM      6  C   UNL     1       0.034  -4.125  -7.256  0.00  0.00    +0.078 A 
ENDROOT
BRANCH   6   7
ATOM      7  C   UNL     1      -0.049  -5.305  -6.375  0.00  0.00    +0.248 C 
ATOM      8  O   UNL     1      -0.171  -5.160  -5.174  0.00  0.00    -0.270 OA
ATOM      9  N   UNL     1       0.010  -6.544  -6.902  0.00  0.00    -0.312 N 
ATOM     10  H   UNL     1       0.107  -6.660  -7.860  0.00  0.00    +0.149 HD
BRANCH   9  11
ATOM     11  C   UNL     1      -0.072  -7.716  -6.027  0.00  0.00    +0.094 C 
BRANCH  11  12
ATOM     12  C   UNL     1      -0.099  -8.987  -6.878  0.00  0.00    -0.020 C 
BRANCH  12  13
ATOM     13  C   UNL     1       1.214  -9.133  -7.603  0.00  0.00    -0.059 A 
ATOM     14  C   UNL     1       2.318  -9.636  -6.940  0.00  0.00    +0.002 A 
ATOM     15  C   UNL     1       3.521  -9.774  -7.607  0.00  0.00    +0.000 A 
ATOM     16  C   UNL     1       3.623  -9.401  -8.934  0.00  0.00    +0.000 A 
ATOM     17  C   UNL     1       2.520  -8.894  -9.596  0.00  0.00    +0.000 A 
ATOM     18  C   UNL     1       1.316  -8.760  -8.930  0.00  0.00    +0.002 A 
ENDBRANCH  12  13
BRANCH  12  23
ATOM     19  C   UNL     1      -1.585 -10.031  -5.256  0.00  0.00    -0.078 C 
ATOM     20  C   UNL     1      -1.895 -11.492  -4.845  0.00  0.00    -0.020 C 
ATOM     21  C   UNL     1      -1.438 -12.303  -6.079  0.00  0.00    -0.020 C 
ATOM     22  C   UNL     1      -0.433 -11.393  -6.809  0.00  0.00    -0.078 C 
ATOM     23  N   UNL     1      -0.325 -10.176  -6.002  0.00  0.00    +0.385 N 
ATOM     24  H   UNL     1       0.459 -10.264  -5.345  0.00  0.00    -0.081 HD
ENDBRANCH  12  23
ENDBRANCH  11  12
ENDBRANCH   9  11
ENDBRANCH   6   7
BRANCH   1  25
ATOM     25  O   UNL     1      -0.163  -2.664  -5.374  0.00  0.00    -0.485 OA
BRANCH  25  26
ATOM     26  C   UNL     1      -0.218  -1.320  -4.893  0.00  0.00    +0.286 C 
BRANCH  26  35
ATOM     27  C   UNL     1      -0.710   1.596  -0.160  0.00  0.00    +0.047 C 
ATOM     28  C   UNL     1      -0.703   0.089  -0.147  0.00  0.00    -0.008 A 
ATOM     29  C   UNL     1      -0.823  -0.588   1.026  0.00  0.00    +0.008 A 
ATOM     30  C   UNL     1      -0.816  -1.993   1.023  0.00  0.00    +0.018 A 
ATOM     31  C   UNL     1      -0.691  -2.670  -0.137  0.00  0.00    +0.093 A 
ATOM     32  N   UNL     1      -0.570  -2.003  -1.322  0.00  0.00    -0.306 N 
ATOM     33  C   UNL     1      -0.579  -0.633  -1.351  0.00  0.00    +0.141 A 
ATOM     34  N   UNL     1      -0.454  -0.248  -2.613  0.00  0.00    -0.229 NA
ATOM     35  C   UNL     1      -0.370  -1.328  -3.394  0.00  0.00    +0.097 A 
ATOM     36  C   UNL     1      -0.432  -2.430  -2.614  0.00  0.00    +0.119 A 
ENDBRANCH  26  35
ENDBRANCH  25  26
ENDBRANCH   1  25
TORSDOF 8
