REMARK  Name = ZINC39604245
REMARK  10 active torsions:
REMARK  status: ('A' for Active; 'I' for Inactive)
REMARK    1  A    between atoms: C_1  and  C_2
REMARK    2  A    between atoms: C_2  and  O_3
REMARK    3  A    between atoms: O_3  and  C_4
REMARK    4  A    between atoms: C_4  and  C_6
REMARK    5  A    between atoms: C_6  and  C_7
REMARK    6  A    between atoms: C_7  and  N_8
REMARK    7  A    between atoms: C_9  and  C_11
REMARK    8  A    between atoms: C_22  and  C_24
REMARK    9  A    between atoms: C_27  and  O_31
REMARK   10  A    between atoms: O_31  and  C_32
REMARK                            x       y       z     vdW  Elec       q    Type
REMARK                         _______ _______ _______ _____ _____    ______ ____
ROOT
ATOM      1  C   UNL     1      -5.293  -6.458   0.603  0.00  0.00    +0.100 C 
ATOM      2  C   UNL     1      -6.281  -6.137   1.747  0.00  0.00    +0.121 C 
ATOM      3  N   UNL     1      -7.054  -7.387   1.936  0.00  0.00    -0.296 N 
ATOM      4  C   UNL     1      -6.052  -8.468   1.778  0.00  0.00    +0.115 C 
ATOM      5  C   UNL     1      -5.145  -7.989   0.628  0.00  0.00    -0.004 C 
ATOM      6  C   UNL     1      -3.695  -8.375   0.904  0.00  0.00    -0.010 C 
ATOM      7  C   UNL     1      -3.561  -9.900   0.866  0.00  0.00    -0.082 C 
ATOM      8  N   UNL     1      -3.978 -10.396  -0.451  0.00  0.00    +0.379 N 
ATOM      9  C   UNL     1      -5.399 -10.103  -0.670  0.00  0.00    -0.082 C 
ATOM     10  C   UNL     1      -5.611  -8.586  -0.696  0.00  0.00    -0.010 C 
ATOM     11  C   UNL     1      -8.371  -7.513   2.192  0.00  0.00    +0.247 C 
ATOM     12  O   UNL     1      -9.092  -6.534   2.166  0.00  0.00    -0.270 OA
ATOM     13  H   UNL     1      -3.429  -9.947  -1.168  0.00  0.00    -0.086 HD
ATOM     14  H   UNL     1      -3.832 -11.394  -0.495  0.00  0.00    -0.086 HD
ENDROOT
BRANCH  11  15
ATOM     15  C   UNL     1      -8.939  -8.839   2.505  0.00  0.00    +0.040 A 
ATOM     16  C   UNL     1      -8.109  -9.866   2.963  0.00  0.00    +0.036 A 
ATOM     17  C   UNL     1      -8.643 -11.103   3.254  0.00  0.00    +0.085 A 
ATOM     18  C   UNL     1     -10.005 -11.330   3.092  0.00  0.00    +0.157 A 
ATOM     19  C   UNL     1     -10.834 -10.310   2.637  0.00  0.00    +0.085 A 
ATOM     20  C   UNL     1     -10.309  -9.069   2.350  0.00  0.00    +0.036 A 
ATOM     21 CL   UNL     1     -12.534 -10.600   2.437  0.00  0.00    -0.080 Cl
ATOM     22 CL   UNL     1      -7.612 -12.379   3.822  0.00  0.00    -0.080 Cl
BRANCH  18  23
ATOM     23  O   UNL     1     -10.527 -12.550   3.379  0.00  0.00    -0.492 OA
ATOM     24  C   UNL     1     -10.980 -12.763   4.717  0.00  0.00    +0.277 C 
ENDBRANCH  18  23
ENDBRANCH  11  15
BRANCH   1  26
ATOM     25  N   UNL     1      -3.190  -5.417  -0.178  0.00  0.00    -0.314 N 
ATOM     26  C   UNL     1      -3.963  -5.798   0.858  0.00  0.00    +0.218 C 
ATOM     27  O   UNL     1      -3.588  -5.609   1.996  0.00  0.00    -0.275 OA
ATOM     28  H   UNL     1      -3.490  -5.569  -1.088  0.00  0.00    +0.149 HD
BRANCH  25  29
ATOM     29  C   UNL     1      -1.896  -4.775   0.069  0.00  0.00    +0.115 C 
BRANCH  29  30
ATOM     30  C   UNL     1      -1.226  -4.447  -1.266  0.00  0.00    +0.139 C 
BRANCH  30  31
ATOM     31  C   UNL     1       0.104  -3.786  -1.011  0.00  0.00    +0.309 C 
ATOM     32  O   UNL     1       0.478  -3.598   0.122  0.00  0.00    -0.251 OA
BRANCH  31  33
ATOM     33  O   UNL     1       0.874  -3.407  -2.043  0.00  0.00    -0.465 OA
BRANCH  33  35
ATOM     34  C   UNL     1       2.854  -2.428  -3.023  0.00  0.00    +0.048 C 
ATOM     35  C   UNL     1       2.123  -2.787  -1.728  0.00  0.00    +0.229 C 
ENDBRANCH  33  35
ENDBRANCH  31  33
ENDBRANCH  30  31
ENDBRANCH  29  30
ENDBRANCH  25  29
ENDBRANCH   1  26
TORSDOF 8
