REMARK  Name = ZINC53790780
REMARK  5 active torsions:
REMARK  status: ('A' for Active; 'I' for Inactive)
REMARK    1  A    between atoms: C_4  and  O_27
REMARK    2  A    between atoms: C_5  and  C_7
REMARK    3  A    between atoms: N_9  and  N_10
REMARK    4  A    between atoms: C_11  and  C_13
REMARK    5  A    between atoms: N_17  and  C_20
REMARK                            x       y       z     vdW  Elec       q    Type
REMARK                         _______ _______ _______ _____ _____    ______ ____
ROOT
ATOM      1  N   UNL     1       0.121  -4.255  -0.024  0.00  0.00    -0.234 N 
ATOM      2  C   UNL     1      -1.033  -4.951  -0.017  0.00  0.00    +0.241 C 
ATOM      3  O   UNL     1      -2.095  -4.364  -0.003  0.00  0.00    -0.273 OA
ATOM      4  H   UNL     1       0.970  -4.725  -0.036  0.00  0.00    +0.173 HD
ENDROOT
BRANCH   2   5
ATOM      5  C   UNL     1      -1.006  -6.457  -0.026  0.00  0.00    +0.164 C 
ATOM      6  C   UNL     1      -2.443  -7.025  -0.062  0.00  0.00    +0.041 C 
ATOM      7  C   UNL     1      -2.270  -8.265  -0.967  0.00  0.00    +0.115 C 
ATOM      8  N   UNL     1      -1.105  -7.975  -1.810  0.00  0.00    -0.271 N 
ATOM      9  C   UNL     1      -0.370  -6.967  -1.301  0.00  0.00    +0.232 C 
ATOM     10  O   UNL     1       0.649  -6.530  -1.793  0.00  0.00    -0.274 OA
BRANCH   8  11
ATOM     11  C   UNL     1      -0.794  -8.659  -2.991  0.00  0.00    +0.036 A 
ATOM     12  C   UNL     1      -1.617  -9.685  -3.438  0.00  0.00    +0.025 A 
ATOM     13  C   UNL     1      -1.309 -10.358  -4.604  0.00  0.00    +0.022 A 
ATOM     14  C   UNL     1      -0.181 -10.011  -5.327  0.00  0.00    +0.041 A 
ATOM     15  C   UNL     1       0.641  -8.990  -4.884  0.00  0.00    +0.022 A 
ATOM     16  C   UNL     1       0.334  -8.309  -3.722  0.00  0.00    +0.025 A 
ATOM     17 CL   UNL     1       0.204 -10.860  -6.792  0.00  0.00    -0.084 Cl
ENDBRANCH   8  11
ENDBRANCH   2   5
BRANCH   1  20
ATOM     18  C   UNL     1       1.250  -2.159  -0.023  0.00  0.00    +0.264 C 
ATOM     19  O   UNL     1       2.314  -2.748  -0.037  0.00  0.00    -0.269 OA
ATOM     20  N   UNL     1       0.095  -2.855  -0.016  0.00  0.00    -0.230 N 
ATOM     21  H   UNL     1      -0.754  -2.385  -0.004  0.00  0.00    +0.173 HD
BRANCH  18  26
ATOM     22  C   UNL     1      -0.017   1.374   0.010  0.00  0.00    +0.001 A 
ATOM     23  C   UNL     1       1.170   2.089   0.002  0.00  0.00    +0.004 A 
ATOM     24  C   UNL     1       2.383   1.429  -0.013  0.00  0.00    +0.046 A 
ATOM     25  C   UNL     1       2.420   0.043  -0.021  0.00  0.00    +0.129 A 
ATOM     26  C   UNL     1       1.222  -0.684  -0.014  0.00  0.00    +0.079 A 
ATOM     27  C   UNL     1       0.002  -0.004   0.002  0.00  0.00    +0.017 A 
BRANCH  25  28
ATOM     28  O   UNL     1       3.611  -0.606  -0.037  0.00  0.00    -0.506 OA
ATOM     29  H   UNL     1       3.966  -0.799   0.842  0.00  0.00    +0.292 HD
ENDBRANCH  25  28
ENDBRANCH  18  26
ENDBRANCH   1  20
TORSDOF 5
