REMARK  Name = ZINC03665895
REMARK  5 active torsions:
REMARK  status: ('A' for Active; 'I' for Inactive)
REMARK    1  A    between atoms: C_7  and  C_20
REMARK    2  A    between atoms: C_7  and  O_33
REMARK    3  A    between atoms: N_8  and  C_12
REMARK    4  A    between atoms: N_22  and  C_23
REMARK    5  A    between atoms: C_23  and  C_24
REMARK                            x       y       z     vdW  Elec       q    Type
REMARK                         _______ _______ _______ _____ _____    ______ ____
ROOT
ATOM      1  C   UNL     1      -2.920  -2.756  -2.274  0.00  0.00    +0.001 A 
ATOM      2  C   UNL     1      -3.417  -3.582  -1.282  0.00  0.00    +0.002 A 
ATOM      3  C   UNL     1      -2.619  -3.949  -0.215  0.00  0.00    +0.024 A 
ATOM      4  C   UNL     1      -1.312  -3.487  -0.139  0.00  0.00    +0.043 A 
ATOM      5  C   UNL     1      -0.821  -2.656  -1.141  0.00  0.00    +0.033 A 
ATOM      6  C   UNL     1      -1.617  -2.292  -2.202  0.00  0.00    +0.010 A 
ATOM      7  C   UNL     1       0.606  -2.171  -1.026  0.00  0.00    +0.247 C 
ATOM      8  N   UNL     1       1.370  -2.622   0.149  0.00  0.00    -0.209 N 
ATOM      9  C   UNL     1       0.776  -3.426   1.049  0.00  0.00    +0.314 C 
ATOM     10  O   UNL     1       1.419  -3.790   2.015  0.00  0.00    -0.252 OA
ATOM     11  N   UNL     1      -0.490  -3.846   0.930  0.00  0.00    -0.269 N 
ATOM     12  H   UNL     1      -0.853  -4.426   1.618  0.00  0.00    +0.156 HD
ENDROOT
BRANCH   8  13
ATOM     13  C   UNL     1       2.700  -2.216   0.329  0.00  0.00    +0.111 A 
ATOM     14  C   UNL     1       3.738  -2.981  -0.191  0.00  0.00    +0.148 A 
ATOM     15  C   UNL     1       5.049  -2.575  -0.016  0.00  0.00    +0.040 A 
ATOM     16  C   UNL     1       5.328  -1.416   0.684  0.00  0.00    +0.006 A 
ATOM     17  C   UNL     1       4.298  -0.655   1.207  0.00  0.00    +0.040 A 
ATOM     18  C   UNL     1       2.985  -1.052   1.032  0.00  0.00    +0.148 A 
ATOM     19  F   UNL     1       1.979  -0.308   1.544  0.00  0.00    -0.203 F 
ATOM     20  F   UNL     1       3.466  -4.117  -0.870  0.00  0.00    -0.203 F 
ENDBRANCH   8  13
BRANCH   7  21
ATOM     21  C   UNL     1       0.585  -0.664  -1.018  0.00  0.00    +0.269 C 
ATOM     22  O   UNL     1       1.093  -0.046  -1.929  0.00  0.00    -0.270 OA
ATOM     23  N   UNL     1       0.002  -0.004   0.002  0.00  0.00    -0.307 N 
ATOM     24  H   UNL     1      -0.404  -0.499   0.731  0.00  0.00    +0.149 HD
BRANCH  23  25
ATOM     25  C   UNL     1      -0.018   1.461   0.010  0.00  0.00    +0.139 C 
BRANCH  25  26
ATOM     26  C   UNL     1      -0.723   1.947   1.250  0.00  0.00    -0.027 A 
ATOM     27  C   UNL     1      -0.003   2.180   2.407  0.00  0.00    +0.009 A 
ATOM     28  C   UNL     1      -0.645   2.626   3.546  0.00  0.00    +0.050 A 
ATOM     29  C   UNL     1      -2.014   2.841   3.532  0.00  0.00    +0.166 A 
ATOM     30  C   UNL     1      -2.740   2.606   2.366  0.00  0.00    +0.167 A 
ATOM     31  C   UNL     1      -2.088   2.164   1.227  0.00  0.00    +0.054 A 
ATOM     32  O   UNL     1      -4.053   2.889   2.606  0.00  0.00    -0.453 OA
ATOM     33  C   UNL     1      -4.187   2.908   4.040  0.00  0.00    +0.466 C 
ATOM     34  O   UNL     1      -2.873   3.272   4.501  0.00  0.00    -0.453 OA
ENDBRANCH  25  26
ENDBRANCH  23  25
ENDBRANCH   7  21
BRANCH   7  35
ATOM     35  O   UNL     1       1.309  -2.592  -2.197  0.00  0.00    -0.360 OA
ATOM     36  H   UNL     1       0.910  -2.293  -3.025  0.00  0.00    +0.213 HD
ENDBRANCH   7  35
TORSDOF 5
