REMARK  Name = ZINC11522076
REMARK  11 active torsions:
REMARK  status: ('A' for Active; 'I' for Inactive)
REMARK    1  A    between atoms: C_1  and  C_2
REMARK    2  A    between atoms: C_2  and  O_3
REMARK    3  A    between atoms: O_3  and  C_4
REMARK    4  A    between atoms: C_4  and  C_6
REMARK    5  A    between atoms: C_7  and  C_21
REMARK    6  A    between atoms: C_12  and  C_14
REMARK    7  A    between atoms: C_21  and  S_22
REMARK    8  A    between atoms: S_22  and  C_23
REMARK    9  A    between atoms: N_27  and  C_28
REMARK   10  A    between atoms: C_32  and  C_35
REMARK   11  A    between atoms: C_33  and  C_34
REMARK                            x       y       z     vdW  Elec       q    Type
REMARK                         _______ _______ _______ _____ _____    ______ ____
ROOT
ATOM      1  C   UNL     1      -1.783   2.354  -0.318  0.00  0.00    +0.079 C 
ATOM      2  C   UNL     1      -2.810   3.200  -0.086  0.00  0.00    +0.034 C 
ATOM      3  N   UNL     1      -3.464   3.814  -1.116  0.00  0.00    -0.272 N 
ATOM      4  C   UNL     1      -3.152   3.634  -2.406  0.00  0.00    +0.304 C 
ATOM      5  O   UNL     1      -3.792   4.225  -3.253  0.00  0.00    -0.252 OA
ATOM      6  N   UNL     1      -2.151   2.820  -2.794  0.00  0.00    -0.288 N 
ATOM      7  C   UNL     1      -1.382   2.110  -1.758  0.00  0.00    +0.144 C 
ATOM      8  H   UNL     1      -4.196   4.413  -0.901  0.00  0.00    +0.156 HD
ATOM      9  H   UNL     1      -1.942   2.705  -3.734  0.00  0.00    +0.151 HD
ENDROOT
BRANCH   7  10
ATOM     10  C   UNL     1       0.067   2.496  -1.909  0.00  0.00    -0.022 A 
ATOM     11  C   UNL     1       0.410   3.816  -2.133  0.00  0.00    +0.007 A 
ATOM     12  C   UNL     1       1.739   4.172  -2.266  0.00  0.00    +0.020 A 
ATOM     13  C   UNL     1       2.725   3.205  -2.185  0.00  0.00    +0.041 A 
ATOM     14  C   UNL     1       2.381   1.883  -1.966  0.00  0.00    +0.020 A 
ATOM     15  C   UNL     1       1.052   1.530  -1.827  0.00  0.00    +0.007 A 
ATOM     16 CL   UNL     1       4.394   3.650  -2.359  0.00  0.00    -0.084 Cl
ENDBRANCH   7  10
BRANCH   1  17
ATOM     17  C   UNL     1      -1.105   1.718   0.748  0.00  0.00    +0.339 C 
ATOM     18  O   UNL     1      -1.338   0.552   1.008  0.00  0.00    -0.245 OA
BRANCH  17  19
ATOM     19  O   UNL     1      -0.200   2.404   1.477  0.00  0.00    -0.462 OA
BRANCH  19  21
ATOM     20  C   UNL     1       1.431   2.634   3.246  0.00  0.00    +0.048 C 
ATOM     21  C   UNL     1       0.447   1.699   2.538  0.00  0.00    +0.229 C 
ENDBRANCH  19  21
ENDBRANCH  17  19
ENDBRANCH   1  17
BRANCH   2  22
ATOM     22  C   UNL     1      -3.242   3.471   1.332  0.00  0.00    +0.128 C 
BRANCH  22  23
ATOM     23  S   UNL     1      -2.666   5.111   1.836  0.00  0.00    -0.078 S 
BRANCH  23  24
ATOM     24  C   UNL     1      -3.291   5.163   3.482  0.00  0.00    +0.214 A 
ATOM     25  N   UNL     1      -3.977   4.218   4.089  0.00  0.00    -0.101 NA
ATOM     26  N   UNL     1      -4.279   4.577   5.284  0.00  0.00    -0.022 NA
ATOM     27  N   UNL     1      -3.818   5.756   5.529  0.00  0.00    -0.038 NA
ATOM     28  N   UNL     1      -3.152   6.182   4.367  0.00  0.00    -0.187 N 
BRANCH  28  29
ATOM     29  C   UNL     1      -2.488   7.401   4.164  0.00  0.00    +0.073 A 
ATOM     30  C   UNL     1      -1.208   7.414   3.626  0.00  0.00    +0.028 A 
ATOM     31  C   UNL     1      -0.558   8.616   3.422  0.00  0.00    +0.002 A 
ATOM     32  C   UNL     1      -1.177   9.804   3.764  0.00  0.00    +0.004 A 
ATOM     33  C   UNL     1      -2.449   9.794   4.306  0.00  0.00    -0.046 A 
ATOM     34  C   UNL     1      -3.106   8.595   4.507  0.00  0.00    -0.022 A 
ATOM     35  C   UNL     1      -4.492   8.584   5.097  0.00  0.00    +0.046 C 
ATOM     36  C   UNL     1      -3.120  11.091   4.677  0.00  0.00    +0.044 C 
ENDBRANCH  28  29
ENDBRANCH  23  24
ENDBRANCH  22  23
ENDBRANCH   2  22
TORSDOF 8
