REMARK  Name = ZINC12565519
REMARK  7 active torsions:
REMARK  status: ('A' for Active; 'I' for Inactive)
REMARK    1  A    between atoms: C_4  and  C_7
REMARK    2  A    between atoms: C_7  and  N_59
REMARK    3  A    between atoms: C_8  and  C_9
REMARK    4  A    between atoms: C_8  and  N_59
REMARK    5  A    between atoms: C_15  and  C_16
REMARK    6  A    between atoms: C_15  and  N_59
REMARK    7  A    between atoms: N_18  and  C_19
REMARK                            x       y       z     vdW  Elec       q    Type
REMARK                         _______ _______ _______ _____ _____    ______ ____
ROOT
ATOM      1  C   UNL     1       5.107   5.715  -0.335  0.00  0.00    +0.201 C 
ATOM      2  O   UNL     1       6.232   5.746   0.117  0.00  0.00    -0.278 OA
ATOM      3  N   UNL     1       4.741   4.718  -1.165  0.00  0.00    -0.286 N 
ATOM      4  H   UNL     1       3.866   4.733  -1.585  0.00  0.00    +0.155 HD
ENDROOT
BRANCH   3   5
ATOM      5  C   UNL     1       5.617   3.668  -1.419  0.00  0.00    +0.045 A 
ATOM      6  C   UNL     1       6.990   3.901  -1.487  0.00  0.00    +0.024 A 
ATOM      7  C   UNL     1       7.862   2.863  -1.739  0.00  0.00    +0.003 A 
ATOM      8  C   UNL     1       7.388   1.574  -1.929  0.00  0.00    +0.012 A 
ATOM      9  C   UNL     1       6.024   1.319  -1.865  0.00  0.00    +0.035 A 
ATOM     10  C   UNL     1       5.126   2.373  -1.609  0.00  0.00    +0.054 A 
ATOM     11  C   UNL     1       3.678   2.101  -1.543  0.00  0.00    +0.196 C 
ATOM     12  O   UNL     1       2.917   2.930  -1.083  0.00  0.00    -0.287 OA
ATOM     13  C   UNL     1       3.162   0.808  -2.043  0.00  0.00    +0.033 A 
ATOM     14  C   UNL     1       1.801   0.625  -2.261  0.00  0.00    +0.012 A 
ATOM     15  C   UNL     1       1.339  -0.590  -2.748  0.00  0.00    +0.001 A 
ATOM     16  C   UNL     1       2.220  -1.626  -3.000  0.00  0.00    +0.001 A 
ATOM     17  C   UNL     1       3.576  -1.462  -2.781  0.00  0.00    +0.012 A 
ATOM     18  C   UNL     1       4.058  -0.247  -2.305  0.00  0.00    +0.033 A 
ATOM     19  C   UNL     1       5.505  -0.052  -2.065  0.00  0.00    +0.195 C 
ATOM     20  O   UNL     1       6.258  -1.005  -2.038  0.00  0.00    -0.287 OA
ENDBRANCH   3   5
BRANCH   1  21
ATOM     21  C   UNL     1       4.118   6.792   0.032  0.00  0.00    +0.020 C 
BRANCH  21  22
ATOM     22  N   UNL     1       4.767   7.738   0.963  0.00  0.00    +0.391 N 
ATOM     23  H   UNL     1       5.184   7.210   1.739  0.00  0.00    -0.080 HD
BRANCH  22  24
ATOM     24  C   UNL     1       5.833   8.485   0.263  0.00  0.00    -0.042 C 
BRANCH  24  28
ATOM     25  C   UNL     1       8.330  10.367   3.173  0.00  0.00    +0.000 A 
ATOM     26  C   UNL     1       8.548   9.047   2.825  0.00  0.00    +0.000 A 
ATOM     27  C   UNL     1       7.740   8.438   1.883  0.00  0.00    +0.002 A 
ATOM     28  C   UNL     1       6.713   9.149   1.290  0.00  0.00    -0.064 A 
ATOM     29  C   UNL     1       6.499  10.470   1.634  0.00  0.00    +0.002 A 
ATOM     30  C   UNL     1       7.303  11.078   2.579  0.00  0.00    +0.000 A 
ENDBRANCH  24  28
ENDBRANCH  22  24
BRANCH  22  31
ATOM     31  C   UNL     1       3.765   8.679   1.507  0.00  0.00    -0.042 C 
BRANCH  31  32
ATOM     32  C   UNL     1       2.948   7.964   2.553  0.00  0.00    -0.064 A 
ATOM     33  C   UNL     1       1.728   7.409   2.216  0.00  0.00    +0.002 A 
ATOM     34  C   UNL     1       0.981   6.748   3.174  0.00  0.00    +0.000 A 
ATOM     35  C   UNL     1       1.450   6.652   4.470  0.00  0.00    +0.000 A 
ATOM     36  C   UNL     1       2.668   7.212   4.808  0.00  0.00    +0.000 A 
ATOM     37  C   UNL     1       3.417   7.867   3.849  0.00  0.00    +0.002 A 
ENDBRANCH  31  32
ENDBRANCH  22  31
ENDBRANCH  21  22
ENDBRANCH   1  21
TORSDOF 7
