REMARK  Name = ZINC16035466
REMARK  6 active torsions:
REMARK  status: ('A' for Active; 'I' for Inactive)
REMARK    1  A    between atoms: C_4  and  N_11
REMARK    2  A    between atoms: C_6  and  C_7
REMARK    3  A    between atoms: C_12  and  C_14
REMARK    4  A    between atoms: C_16  and  C_21
REMARK    5  A    between atoms: C_21  and  C_23
REMARK    6  A    between atoms: C_28  and  O_29
REMARK                            x       y       z     vdW  Elec       q    Type
REMARK                         _______ _______ _______ _____ _____    ______ ____
ROOT
ATOM      1  C   UNL     1       0.830  -0.445   0.070  0.00  0.00    +0.097 A 
ATOM      2  C   UNL     1      -0.293   0.363  -0.009  0.00  0.00    +0.033 A 
ATOM      3  C   UNL     1      -0.120   1.767  -0.006  0.00  0.00    +0.058 A 
ATOM      4  C   UNL     1       1.143   2.312   0.074  0.00  0.00    +0.209 A 
ATOM      5  O   UNL     1       2.235   1.547   0.150  0.00  0.00    -0.446 OA
ATOM      6  C   UNL     1       2.151   0.200   0.153  0.00  0.00    +0.204 A 
ATOM      7  N   UNL     1       3.234  -0.527   0.228  0.00  0.00    -0.369 N 
ATOM      8  H   UNL     1       4.219  -0.042   0.290  0.00  0.00    +0.159 HD
ATOM      9  H   UNL     1       3.161  -1.625   0.229  0.00  0.00    +0.159 HD
ENDROOT
BRANCH   1  11
ATOM     10  N   UNL     1      -0.513  -2.482  -0.008  0.00  0.00    -0.280 N 
ATOM     11  C   UNL     1       0.705  -1.910   0.070  0.00  0.00    +0.253 C 
ATOM     12  O   UNL     1       1.701  -2.605   0.139  0.00  0.00    -0.270 OA
ATOM     13  H   UNL     1      -1.408  -1.856  -0.134  0.00  0.00    +0.155 HD
BRANCH  10  17
ATOM     14  C   UNL     1      -0.885  -6.625   0.234  0.00  0.00    +0.014 A 
ATOM     15  C   UNL     1      -1.940  -5.815   0.614  0.00  0.00    +0.022 A 
ATOM     16  C   UNL     1      -1.818  -4.441   0.541  0.00  0.00    +0.062 A 
ATOM     17  C   UNL     1      -0.638  -3.874   0.073  0.00  0.00    +0.053 A 
ATOM     18  C   UNL     1       0.418  -4.691  -0.307  0.00  0.00    +0.037 A 
ATOM     19  C   UNL     1       0.291  -6.064  -0.226  0.00  0.00    +0.057 A 
ATOM     20 CL   UNL     1      -3.139  -3.424   1.026  0.00  0.00    -0.082 Cl
BRANCH  19  21
ATOM     21  C   UNL     1       1.438  -6.951  -0.640  0.00  0.00    +0.417 C 
ATOM     22  F   UNL     1       2.260  -7.196   0.465  0.00  0.00    -0.166 F 
ATOM     23  F   UNL     1       0.937  -8.163  -1.126  0.00  0.00    -0.166 F 
ATOM     24  F   UNL     1       2.180  -6.317  -1.642  0.00  0.00    -0.166 F 
ENDBRANCH  19  21
ENDBRANCH  10  17
ENDBRANCH   1  11
BRANCH   3  25
ATOM     25  C   UNL     1      -1.296   2.651  -0.095  0.00  0.00    +0.200 C 
ATOM     26  O   UNL     1      -1.304   3.713   0.499  0.00  0.00    -0.286 OA
BRANCH  25  27
ATOM     27  C   UNL     1      -2.462   2.249  -0.904  0.00  0.00    +0.065 A 
ATOM     28  C   UNL     1      -2.404   1.098  -1.695  0.00  0.00    +0.035 A 
ATOM     29  C   UNL     1      -3.500   0.725  -2.445  0.00  0.00    +0.042 A 
ATOM     30  C   UNL     1      -4.655   1.492  -2.425  0.00  0.00    +0.023 A 
ATOM     31  C   UNL     1      -4.722   2.634  -1.651  0.00  0.00    +0.047 A 
ATOM     32  C   UNL     1      -3.631   3.021  -0.887  0.00  0.00    +0.128 A 
ATOM     33 CL   UNL     1      -3.430  -0.708  -3.423  0.00  0.00    -0.084 Cl
BRANCH  32  34
ATOM     34  O   UNL     1      -3.697   4.143  -0.127  0.00  0.00    -0.506 OA
ATOM     35  H   UNL     1      -4.616   4.747  -0.116  0.00  0.00    +0.292 HD
ENDBRANCH  32  34
ENDBRANCH  25  27
ENDBRANCH   3  25
TORSDOF 6
