REMARK  Name = ZINC18081235
REMARK  4 active torsions:
REMARK  status: ('A' for Active; 'I' for Inactive)
REMARK    1  A    between atoms: C_1  and  C_2
REMARK    2  A    between atoms: C_6  and  C_27
REMARK    3  A    between atoms: C_7  and  N_8
REMARK    4  A    between atoms: C_19  and  C_20
REMARK                            x       y       z     vdW  Elec       q    Type
REMARK                         _______ _______ _______ _____ _____    ______ ____
ROOT
ATOM      1  N   UNL     1       0.025  -0.013   2.419  0.00  0.00    -0.204 N 
ATOM      2  C   UNL     1       1.145   0.374   3.053  0.00  0.00    +0.258 C 
ATOM      3  O   UNL     1       2.275   0.057   2.726  0.00  0.00    -0.269 OA
ATOM      4  C   UNL     1       0.831   1.194   4.138  0.00  0.00    +0.081 C 
ATOM      5  H   UNL     1      -0.148   3.122   6.438  0.00  0.00    +0.194 HD
ATOM      6  C   UNL     1      -0.646   0.871   4.408  0.00  0.00    +0.272 C 
ATOM      7  C   UNL     1      -1.099   0.341   3.080  0.00  0.00    +0.263 C 
ATOM      8  O   UNL     1      -2.241   0.247   2.683  0.00  0.00    -0.271 OA
ATOM      9  O   UNL     1      -1.130   2.177   4.753  0.00  0.00    -0.256 OA
ATOM     10  N   UNL     1      -0.060   2.615   5.615  0.00  0.00    -0.264 N 
ATOM     11  C   UNL     1       1.121   2.172   5.037  0.00  0.00    +0.080 C 
ENDROOT
BRANCH   1  18
ATOM     12  C   UNL     1      -0.018   1.503   0.010  0.00  0.00    +0.046 C 
ATOM     13  C   UNL     1       0.002  -0.004   0.002  0.00  0.00    -0.028 A 
ATOM     14  C   UNL     1       0.006  -0.689  -1.198  0.00  0.00    +0.005 A 
ATOM     15  C   UNL     1       0.025  -2.071  -1.206  0.00  0.00    +0.001 A 
ATOM     16  C   UNL     1       0.040  -2.773  -0.014  0.00  0.00    +0.005 A 
ATOM     17  C   UNL     1       0.036  -2.094   1.188  0.00  0.00    -0.028 A 
ATOM     18  C   UNL     1       0.023  -0.705   1.200  0.00  0.00    +0.050 A 
ATOM     19  C   UNL     1       0.052  -2.859   2.487  0.00  0.00    +0.046 C 
ENDBRANCH   1  18
BRANCH  11  20
ATOM     20  C   UNL     1       2.473   2.679   5.348  0.00  0.00    +0.001 A 
ATOM     21  C   UNL     1       3.587   2.152   4.691  0.00  0.00    +0.011 A 
ATOM     22  C   UNL     1       4.847   2.630   4.986  0.00  0.00    +0.016 A 
ATOM     23  C   UNL     1       5.008   3.631   5.930  0.00  0.00    +0.018 A 
ATOM     24  C   UNL     1       3.907   4.157   6.585  0.00  0.00    +0.016 A 
ATOM     25  C   UNL     1       2.641   3.692   6.295  0.00  0.00    +0.011 A 
ATOM     26 BR   UNL     1       6.739   4.280   6.328  0.00  0.00    -0.050 Br
ENDBRANCH  11  20
TORSDOF 2
