REMARK  Name = ZINC54398518
REMARK  9 active torsions:
REMARK  status: ('A' for Active; 'I' for Inactive)
REMARK    1  A    between atoms: C_1  and  C_2
REMARK    2  A    between atoms: C_5  and  O_12
REMARK    3  A    between atoms: C_6  and  C_8
REMARK    4  A    between atoms: C_8  and  C_9
REMARK    5  A    between atoms: C_8  and  C_10
REMARK    6  A    between atoms: C_8  and  C_11
REMARK    7  A    between atoms: O_12  and  C_13
REMARK    8  A    between atoms: C_14  and  C_19
REMARK    9  A    between atoms: C_19  and  N_21
REMARK                            x       y       z     vdW  Elec       q    Type
REMARK                         _______ _______ _______ _____ _____    ______ ____
ROOT
ATOM      1  O   UNL     1       0.056  -3.879  -0.701  0.00  0.00    -0.436 OA
ENDROOT
BRANCH   1   6
ATOM      2  C   UNL     1       0.145   1.686   0.161  0.00  0.00    +0.044 C 
ATOM      3  C   UNL     1       0.122   0.197  -0.069  0.00  0.00    -0.050 A 
ATOM      4  C   UNL     1      -0.129  -0.302  -1.335  0.00  0.00    +0.007 A 
ATOM      5  C   UNL     1      -0.151  -1.666  -1.549  0.00  0.00    +0.047 A 
ATOM      6  C   UNL     1       0.078  -2.537  -0.493  0.00  0.00    +0.134 A 
ATOM      7  C   UNL     1       0.330  -2.034   0.775  0.00  0.00    +0.001 A 
ATOM      8  C   UNL     1       0.356  -0.668   0.983  0.00  0.00    +0.011 A 
BRANCH   7   9
ATOM      9  C   UNL     1       0.579  -2.977   1.924  0.00  0.00    -0.009 C 
ATOM     10  C   UNL     1       0.909  -2.171   3.183  0.00  0.00    +0.015 C 
ATOM     11  C   UNL     1      -0.673  -3.821   2.172  0.00  0.00    +0.015 C 
ATOM     12  C   UNL     1       1.754  -3.896   1.584  0.00  0.00    +0.015 C 
ENDBRANCH   7   9
ENDBRANCH   1   6
BRANCH   1  13
ATOM     13  C   UNL     1      -1.149  -4.498  -0.737  0.00  0.00    +0.249 A 
ATOM     14  C   UNL     1      -1.233  -5.859  -1.069  0.00  0.00    +0.153 A 
ATOM     15  N   UNL     1      -2.421  -6.457  -1.101  0.00  0.00    -0.246 NA
ATOM     16  C   UNL     1      -3.511  -5.771  -0.821  0.00  0.00    +0.131 A 
ATOM     17  C   UNL     1      -3.427  -4.426  -0.493  0.00  0.00    +0.134 A 
ATOM     18  N   UNL     1      -2.253  -3.821  -0.452  0.00  0.00    -0.218 NA
BRANCH  14  19
ATOM     19  C   UNL     1      -0.010  -6.622  -1.383  0.00  0.00    +0.101 C 
ATOM     20  S   UNL     1       1.517  -5.849  -1.341  0.00  0.00    -0.033 S 
BRANCH  19  21
ATOM     21  N   UNL     1      -0.094  -7.929  -1.702  0.00  0.00    -0.350 N 
ATOM     22  H   UNL     1      -0.959  -8.368  -1.725  0.00  0.00    +0.143 HD
ATOM     23  H   UNL     1       0.710  -8.431  -1.907  0.00  0.00    +0.143 HD
ENDBRANCH  19  21
ENDBRANCH  14  19
ENDBRANCH   1  13
TORSDOF 5
