REMARK  Name = ZINC13064406
REMARK  9 active torsions:
REMARK  status: ('A' for Active; 'I' for Inactive)
REMARK    1  A    between atoms: C_1  and  C_2
REMARK    2  A    between atoms: C_2  and  C_3
REMARK    3  A    between atoms: C_3  and  C_5
REMARK    4  A    between atoms: C_3  and  N_72
REMARK    5  A    between atoms: N_9  and  C_10
REMARK    6  A    between atoms: C_16  and  C_17
REMARK    7  A    between atoms: C_16  and  N_72
REMARK    8  A    between atoms: C_23  and  C_24
REMARK    9  A    between atoms: C_23  and  N_72
REMARK                            x       y       z     vdW  Elec       q    Type
REMARK                         _______ _______ _______ _____ _____    ______ ____
ROOT
ATOM      1  N   UNL     1       4.378  -0.912  -2.280  0.00  0.00    +0.392 N 
ATOM      2  H   UNL     1       4.625  -0.033  -2.749  0.00  0.00    -0.080 HD
ENDROOT
BRANCH   1   3
ATOM      3  C   UNL     1       3.151  -1.457  -2.898  0.00  0.00    +0.003 C 
BRANCH   3   4
ATOM      4  C   UNL     1       2.884  -2.854  -2.399  0.00  0.00    +0.138 A 
ATOM      5  N   UNL     1       3.769  -3.803  -2.218  0.00  0.00    -0.115 NA
ATOM      6  N   UNL     1       3.152  -4.846  -1.781  0.00  0.00    -0.023 NA
ATOM      7  N   UNL     1       1.894  -4.589  -1.686  0.00  0.00    -0.044 NA
ATOM      8  N   UNL     1       1.689  -3.371  -2.058  0.00  0.00    -0.228 N 
BRANCH   8   9
ATOM      9  C   UNL     1       0.398  -2.680  -2.101  0.00  0.00    +0.111 C 
ATOM     10  C   UNL     1      -0.299  -2.817  -0.746  0.00  0.00    +0.027 C 
ATOM     11  C   UNL     1      -1.648  -2.096  -0.790  0.00  0.00    +0.002 C 
ATOM     12  C   UNL     1      -2.524  -2.718  -1.880  0.00  0.00    +0.000 C 
ATOM     13  C   UNL     1      -1.827  -2.581  -3.235  0.00  0.00    +0.002 C 
ATOM     14  C   UNL     1      -0.478  -3.302  -3.190  0.00  0.00    +0.027 C 
ENDBRANCH   8   9
ENDBRANCH   3   4
BRANCH   3  16
ATOM     15  C   UNL     1       3.473  -0.054  -4.939  0.00  0.00    +0.002 C 
ATOM     16  C   UNL     1       3.334  -1.485  -4.417  0.00  0.00    -0.011 C 
ENDBRANCH   3  16
ENDBRANCH   1   3
BRANCH   1  17
ATOM     17  C   UNL     1       4.144  -0.642  -0.846  0.00  0.00    -0.042 C 
BRANCH  17  18
ATOM     18  C   UNL     1       3.289   0.592  -0.719  0.00  0.00    -0.064 A 
ATOM     19  C   UNL     1       1.914   0.474  -0.634  0.00  0.00    +0.002 A 
ATOM     20  C   UNL     1       1.129   1.607  -0.518  0.00  0.00    +0.000 A 
ATOM     21  C   UNL     1       1.720   2.856  -0.486  0.00  0.00    +0.000 A 
ATOM     22  C   UNL     1       3.094   2.974  -0.570  0.00  0.00    +0.000 A 
ATOM     23  C   UNL     1       3.879   1.841  -0.687  0.00  0.00    +0.002 A 
ENDBRANCH  17  18
ENDBRANCH   1  17
BRANCH   1  24
ATOM     24  C   UNL     1       5.492  -1.870  -2.439  0.00  0.00    -0.036 C 
BRANCH  24  25
ATOM     25  C   UNL     1       6.793  -1.133  -2.252  0.00  0.00    +0.001 A 
ATOM     26  C   UNL     1       7.399  -1.127  -1.038  0.00  0.00    +0.017 A 
ATOM     27  C   UNL     1       8.663  -0.407  -0.890  0.00  0.00    +0.002 A 
ATOM     28  C   UNL     1       9.335  -0.370   0.338  0.00  0.00    +0.059 A 
ATOM     29  C   UNL     1      10.523   0.321   0.448  0.00  0.00    +0.163 A 
ATOM     30  C   UNL     1      11.057   0.984  -0.661  0.00  0.00    +0.164 A 
ATOM     31  C   UNL     1      10.399   0.953  -1.879  0.00  0.00    +0.075 A 
ATOM     32  C   UNL     1       9.201   0.262  -2.006  0.00  0.00    +0.053 A 
ATOM     33  N   UNL     1       8.532   0.223  -3.212  0.00  0.00    -0.322 N 
ATOM     34  H   UNL     1       8.903   0.684  -3.981  0.00  0.00    +0.169 HD
ATOM     35  C   UNL     1       7.373  -0.447  -3.338  0.00  0.00    +0.251 A 
ATOM     36  O   UNL     1       6.809  -0.460  -4.419  0.00  0.00    -0.268 OA
ATOM     37  O   UNL     1      12.231   1.664  -0.562  0.00  0.00    -0.485 OA
ATOM     38  C   UNL     1      12.676   1.991   0.759  0.00  0.00    +0.270 C 
ATOM     39  C   UNL     1      12.540   0.739   1.636  0.00  0.00    +0.270 C 
ATOM     40  O   UNL     1      11.163   0.349   1.650  0.00  0.00    -0.485 OA
ENDBRANCH  24  25
ENDBRANCH   1  24
TORSDOF 8
