REMARK  Name = ZINC32565452
REMARK  9 active torsions:
REMARK  status: ('A' for Active; 'I' for Inactive)
REMARK    1  A    between atoms: C_4  and  C_7
REMARK    2  A    between atoms: C_8  and  C_9
REMARK    3  A    between atoms: C_9  and  N_10
REMARK    4  A    between atoms: C_12  and  N_27
REMARK    5  A    between atoms: C_15  and  C_17
REMARK    6  A    between atoms: N_19  and  C_20
REMARK    7  A    between atoms: C_20  and  C_21
REMARK    8  A    between atoms: N_27  and  C_28
REMARK    9  A    between atoms: C_28  and  C_29
REMARK                            x       y       z     vdW  Elec       q    Type
REMARK                         _______ _______ _______ _____ _____    ______ ____
ROOT
ATOM      1  N   UNL     1       5.087  -3.681   1.066  0.00  0.00    -0.289 NA
ATOM      2  C   UNL     1       5.178  -2.960   2.348  0.00  0.00    +0.070 C 
ATOM      3  C   UNL     1       6.449  -3.462   3.066  0.00  0.00    -0.055 C 
ATOM      4  C   UNL     1       6.697  -4.846   2.410  0.00  0.00    +0.014 C 
ATOM      5  C   UNL     1       6.252  -4.584   0.949  0.00  0.00    +0.142 C 
ENDROOT
BRANCH   5   6
ATOM      6  C   UNL     1       5.850  -5.875   0.284  0.00  0.00    +0.230 C 
ATOM      7  O   UNL     1       4.681  -6.194   0.235  0.00  0.00    -0.274 OA
ATOM      8  N   UNL     1       6.790  -6.675  -0.257  0.00  0.00    -0.310 N 
ATOM      9  H   UNL     1       7.725  -6.420  -0.218  0.00  0.00    +0.149 HD
BRANCH   8  10
ATOM     10  C   UNL     1       6.400  -7.930  -0.904  0.00  0.00    +0.141 C 
BRANCH  10  11
ATOM     11  C   UNL     1       7.629  -8.632  -1.422  0.00  0.00    -0.012 A 
ATOM     12  C   UNL     1       8.093  -8.381  -2.705  0.00  0.00    +0.008 A 
ATOM     13  C   UNL     1       9.227  -9.050  -3.139  0.00  0.00    +0.020 A 
ATOM     14  C   UNL     1       9.854  -9.937  -2.284  0.00  0.00    +0.111 A 
ATOM     15  N   UNL     1       9.385 -10.151  -1.071  0.00  0.00    -0.263 NA
ATOM     16  C   UNL     1       8.312  -9.528  -0.622  0.00  0.00    +0.115 A 
ENDBRANCH  10  11
ENDBRANCH   8  10
ENDBRANCH   5   6
BRANCH   3  17
ATOM     17  N   UNL     1       6.210  -3.602   4.508  0.00  0.00    +0.385 N 
ATOM     18  H   UNL     1       5.397  -4.181   4.660  0.00  0.00    -0.085 HD
ATOM     19  H   UNL     1       7.014  -4.030   4.943  0.00  0.00    -0.085 HD
BRANCH  17  20
ATOM     20  C   UNL     1       5.982  -2.276   5.098  0.00  0.00    -0.043 C 
BRANCH  20  21
ATOM     21  C   UNL     1       5.737  -2.420   6.578  0.00  0.00    -0.026 A 
ATOM     22  C   UNL     1       4.446  -2.394   7.070  0.00  0.00    +0.043 A 
ATOM     23  C   UNL     1       4.220  -2.527   8.430  0.00  0.00    +0.124 A 
ATOM     24  C   UNL     1       5.288  -2.686   9.296  0.00  0.00    +0.041 A 
ATOM     25  C   UNL     1       6.579  -2.712   8.804  0.00  0.00    +0.041 A 
ATOM     26  C   UNL     1       6.804  -2.584   7.444  0.00  0.00    +0.125 A 
ATOM     27  F   UNL     1       8.066  -2.615   6.963  0.00  0.00    -0.205 F 
ATOM     28  F   UNL     1       2.958  -2.501   8.911  0.00  0.00    -0.205 F 
ENDBRANCH  20  21
ENDBRANCH  17  20
ENDBRANCH   3  17
BRANCH   1  29
ATOM     29  C   UNL     1       5.033  -2.743  -0.063  0.00  0.00    +0.112 C 
BRANCH  29  31
ATOM     30  C   UNL     1       3.695  -0.685  -0.038  0.00  0.00    +0.005 C 
ATOM     31  C   UNL     1       3.716  -2.010  -0.046  0.00  0.00    -0.011 C 
BRANCH  30  35
ATOM     32  C   UNL     1      -0.017   1.379   0.010  0.00  0.00    +0.000 A 
ATOM     33  C   UNL     1       1.168   2.093   0.002  0.00  0.00    +0.001 A 
ATOM     34  C   UNL     1       2.377   1.429  -0.013  0.00  0.00    +0.008 A 
ATOM     35  C   UNL     1       2.403   0.034  -0.021  0.00  0.00    -0.025 A 
ATOM     36  C   UNL     1       1.204  -0.681  -0.013  0.00  0.00    +0.008 A 
ATOM     37  C   UNL     1       0.002  -0.004   0.002  0.00  0.00    +0.001 A 
ENDBRANCH  30  35
ENDBRANCH  29  31
ENDBRANCH   1  29
TORSDOF 9
