REMARK  Name = ZINC02188666
REMARK  7 active torsions:
REMARK  status: ('A' for Active; 'I' for Inactive)
REMARK    1  A    between atoms: C_1  and  C_2
REMARK    2  A    between atoms: C_3  and  N_9
REMARK    3  A    between atoms: C_12  and  C_21
REMARK    4  A    between atoms: C_14  and  C_17
REMARK    5  A    between atoms: C_15  and  N_16
REMARK    6  A    between atoms: C_17  and  O_19
REMARK    7  A    between atoms: O_19  and  C_20
REMARK                            x       y       z     vdW  Elec       q    Type
REMARK                         _______ _______ _______ _____ _____    ______ ____
ROOT
ATOM      1  N   UNL     1      -1.141  -2.056   0.271  0.00  0.00    -0.260 N 
ATOM      2  C   UNL     1      -0.100  -2.794  -0.230  0.00  0.00    +0.024 C 
ATOM      3  C   UNL     1       1.081  -2.208  -0.522  0.00  0.00    +0.025 C 
ATOM      4  C   UNL     1       1.288  -0.731  -0.304  0.00  0.00    +0.094 C 
ATOM      5  C   UNL     1      -0.022  -0.013  -0.169  0.00  0.00    +0.084 C 
ATOM      6  C   UNL     1      -1.168  -0.690   0.118  0.00  0.00    +0.103 C 
ATOM      7  C   UNL     1       2.154  -2.958  -1.036  0.00  0.00    +0.162 C 
ATOM      8  O   UNL     1       3.198  -2.398  -1.305  0.00  0.00    -0.292 OA
ATOM      9  C   UNL     1       2.032  -4.441  -1.261  0.00  0.00    +0.080 C 
ATOM     10  C   UNL     1       1.016  -5.013  -0.267  0.00  0.00    +0.014 C 
ATOM     11  C   UNL     1      -0.310  -4.272  -0.450  0.00  0.00    +0.052 C 
ENDROOT
BRANCH   1  14
ATOM     12  C   UNL     1      -3.380  -2.949  -1.242  0.00  0.00    +0.047 C 
ATOM     13  C   UNL     1      -3.295  -3.149   0.249  0.00  0.00    -0.010 A 
ATOM     14  C   UNL     1      -2.184  -2.698   0.950  0.00  0.00    +0.044 A 
ATOM     15  C   UNL     1      -2.106  -2.890   2.323  0.00  0.00    +0.024 A 
ATOM     16  C   UNL     1      -3.139  -3.519   2.990  0.00  0.00    +0.003 A 
ATOM     17  C   UNL     1      -4.244  -3.968   2.292  0.00  0.00    +0.020 A 
ATOM     18  C   UNL     1      -4.323  -3.783   0.922  0.00  0.00    +0.046 A 
ATOM     19 CL   UNL     1      -5.713  -4.347   0.049  0.00  0.00    -0.083 Cl
ENDBRANCH   1  14
BRANCH   4  20
ATOM     20  C   UNL     1       2.095  -0.526   0.952  0.00  0.00    -0.035 A 
ATOM     21  C   UNL     1       1.596  -0.947   2.171  0.00  0.00    +0.005 A 
ATOM     22  C   UNL     1       2.338  -0.763   3.322  0.00  0.00    +0.015 A 
ATOM     23  C   UNL     1       3.576  -0.148   3.257  0.00  0.00    +0.018 A 
ATOM     24  C   UNL     1       4.072   0.278   2.038  0.00  0.00    +0.015 A 
ATOM     25  C   UNL     1       3.332   0.089   0.886  0.00  0.00    +0.005 A 
ATOM     26 BR   UNL     1       4.588   0.109   4.833  0.00  0.00    -0.050 Br
ENDBRANCH   4  20
BRANCH   6  27
ATOM     27  N   UNL     1      -2.351  -0.010   0.250  0.00  0.00    -0.346 N 
ATOM     28  H   UNL     1      -3.183  -0.426  -0.023  0.00  0.00    +0.143 HD
ATOM     29  H   UNL     1      -2.355   0.888   0.617  0.00  0.00    +0.143 HD
ENDBRANCH   6  27
BRANCH   5  30
ATOM     30  C   UNL     1      -0.067   1.378  -0.336  0.00  0.00    +0.339 C 
ATOM     31  O   UNL     1      -1.139   1.958  -0.335  0.00  0.00    -0.245 OA
BRANCH  30  32
ATOM     32  O   UNL     1       1.078   2.075  -0.505  0.00  0.00    -0.465 OA
ATOM     33  C   UNL     1       0.958   3.490  -0.669  0.00  0.00    +0.280 C 
ENDBRANCH  30  32
ENDBRANCH   5  30
TORSDOF 5
