REMARK  Name = ZINC36580481
REMARK  12 active torsions:
REMARK  status: ('A' for Active; 'I' for Inactive)
REMARK    1  A    between atoms: C_1  and  C_2
REMARK    2  A    between atoms: C_5  and  S_8
REMARK    3  A    between atoms: S_8  and  C_11
REMARK    4  A    between atoms: C_11  and  N_12
REMARK    5  A    between atoms: C_13  and  C_15
REMARK    6  A    between atoms: C_15  and  C_17
REMARK    7  A    between atoms: C_15  and  N_26
REMARK    8  A    between atoms: N_26  and  C_35
REMARK    9  A    between atoms: C_27  and  C_29
REMARK   10  A    between atoms: C_35  and  C_36
REMARK   11  A    between atoms: C_35  and  C_37
REMARK   12  A    between atoms: C_35  and  C_38
REMARK                            x       y       z     vdW  Elec       q    Type
REMARK                         _______ _______ _______ _____ _____    ______ ____
ROOT
ATOM      1  C   UNL     1       2.062  -5.201   4.111  0.00  0.00    +0.193 C 
ENDROOT
BRANCH   1   2
ATOM      2  C   UNL     1       1.461  -4.369   5.213  0.00  0.00    -0.015 A 
ATOM      3  C   UNL     1       1.116  -4.960   6.415  0.00  0.00    +0.010 A 
ATOM      4  C   UNL     1       0.565  -4.201   7.429  0.00  0.00    +0.050 A 
ATOM      5  C   UNL     1       0.355  -2.844   7.244  0.00  0.00    +0.166 A 
ATOM      6  C   UNL     1       0.702  -2.248   6.034  0.00  0.00    +0.167 A 
ATOM      7  C   UNL     1       1.260  -3.014   5.024  0.00  0.00    +0.055 A 
ATOM      8  O   UNL     1       0.400  -0.918   6.101  0.00  0.00    -0.453 OA
ATOM      9  C   UNL     1      -0.509  -0.785   7.209  0.00  0.00    +0.466 C 
ATOM     10  O   UNL     1      -0.164  -1.887   8.069  0.00  0.00    -0.453 OA
ENDBRANCH   1   2
BRANCH   1  12
ATOM     11  N   UNL     1       0.080  -4.881   2.667  0.00  0.00    -0.294 N 
ATOM     12  C   UNL     1       0.964  -5.731   3.225  0.00  0.00    +0.239 C 
ATOM     13  O   UNL     1       0.876  -6.922   3.015  0.00  0.00    -0.273 OA
ATOM     14  H   UNL     1       0.150  -3.928   2.835  0.00  0.00    +0.150 HD
BRANCH  11  15
ATOM     15  C   UNL     1      -0.988  -5.396   1.806  0.00  0.00    +0.278 C 
BRANCH  15  16
ATOM     16  S   UNL     1      -2.494  -5.635   2.788  0.00  0.00    +0.013 S 
ATOM     17  O   UNL     1      -2.189  -6.321   3.994  0.00  0.00    -0.168 OA
ATOM     18  O   UNL     1      -3.558  -6.074   1.954  0.00  0.00    -0.168 OA
BRANCH  16  23
ATOM     19  C   UNL     1      -4.104  -0.089   4.537  0.00  0.00    +0.044 C 
ATOM     20  C   UNL     1      -3.702  -1.474   4.100  0.00  0.00    -0.050 A 
ATOM     21  C   UNL     1      -4.180  -1.989   2.910  0.00  0.00    +0.005 A 
ATOM     22  C   UNL     1      -3.811  -3.260   2.509  0.00  0.00    +0.027 A 
ATOM     23  C   UNL     1      -2.964  -4.015   3.298  0.00  0.00    +0.090 A 
ATOM     24  C   UNL     1      -2.485  -3.499   4.488  0.00  0.00    +0.027 A 
ATOM     25  C   UNL     1      -2.850  -2.227   4.886  0.00  0.00    +0.005 A 
ENDBRANCH  16  23
ENDBRANCH  15  16
ENDBRANCH  11  15
ENDBRANCH   1  12
BRANCH   1  26
ATOM     26  N   UNL     1       2.803  -6.322   4.694  0.00  0.00    -0.281 N 
ATOM     27  C   UNL     1       2.137  -7.362   5.234  0.00  0.00    +0.220 C 
ATOM     28  O   UNL     1       0.928  -7.324   5.330  0.00  0.00    -0.275 OA
BRANCH  27  29
ATOM     29  C   UNL     1       2.893  -8.572   5.719  0.00  0.00    +0.075 C 
ATOM     30  C   UNL     1       3.689  -9.174   4.560  0.00  0.00    +0.013 C 
ATOM     31  C   UNL     1       4.457 -10.402   5.052  0.00  0.00    +0.001 C 
ATOM     32  C   UNL     1       3.470 -11.441   5.587  0.00  0.00    +0.000 C 
ATOM     33  C   UNL     1       2.674 -10.838   6.747  0.00  0.00    +0.001 C 
ATOM     34  C   UNL     1       1.906  -9.610   6.254  0.00  0.00    +0.013 C 
ENDBRANCH  27  29
BRANCH  26  35
ATOM     35  C   UNL     1       4.268  -6.314   4.690  0.00  0.00    +0.030 C 
ATOM     36  C   UNL     1       4.770  -4.872   4.790  0.00  0.00    +0.031 C 
ATOM     37  C   UNL     1       4.786  -7.118   5.883  0.00  0.00    +0.031 C 
ATOM     38  C   UNL     1       4.778  -6.942   3.391  0.00  0.00    +0.031 C 
ENDBRANCH  26  35
ENDBRANCH   1  26
TORSDOF 8
