REMARK  Name = ZINC11900799
REMARK  8 active torsions:
REMARK  status: ('A' for Active; 'I' for Inactive)
REMARK    1  A    between atoms: C_1  and  C_2
REMARK    2  A    between atoms: C_2  and  C_3
REMARK    3  A    between atoms: C_6  and  S_9
REMARK    4  A    between atoms: S_9  and  N_12
REMARK    5  A    between atoms: N_12  and  C_13
REMARK    6  A    between atoms: C_13  and  C_14
REMARK    7  A    between atoms: C_14  and  N_53
REMARK    8  A    between atoms: N_17  and  C_20
REMARK                            x       y       z     vdW  Elec       q    Type
REMARK                         _______ _______ _______ _____ _____    ______ ____
ROOT
ATOM      1  C   UNL     1      -1.622   3.491  -3.009  0.00  0.00    -0.062 C 
ENDROOT
BRANCH   1   7
ATOM      2  C   UNL     1      -2.957   5.434  -2.454  0.00  0.00    -0.060 C 
ATOM      3  C   UNL     1      -3.110   6.937  -2.697  0.00  0.00    +0.086 C 
ATOM      4  N   UNL     1      -3.358   7.177  -4.125  0.00  0.00    -0.333 N 
ATOM      5  C   UNL     1      -2.251   6.661  -4.943  0.00  0.00    +0.086 C 
ATOM      6  C   UNL     1      -2.098   5.158  -4.700  0.00  0.00    -0.060 C 
ATOM      7  N   UNL     1      -1.827   4.932  -3.265  0.00  0.00    +0.383 N 
ATOM      8  H   UNL     1      -0.975   5.442  -3.002  0.00  0.00    -0.082 HD
BRANCH   4   9
ATOM      9  C   UNL     1      -3.575   8.534  -4.375  0.00  0.00    +0.030 A 
ATOM     10  C   UNL     1      -2.780   9.209  -5.294  0.00  0.00    +0.024 A 
ATOM     11  C   UNL     1      -3.001  10.549  -5.543  0.00  0.00    +0.022 A 
ATOM     12  C   UNL     1      -4.004  11.223  -4.869  0.00  0.00    +0.041 A 
ATOM     13  C   UNL     1      -4.793  10.556  -3.949  0.00  0.00    +0.022 A 
ATOM     14  C   UNL     1      -4.581   9.214  -3.700  0.00  0.00    +0.024 A 
ATOM     15 CL   UNL     1      -4.273  12.910  -5.179  0.00  0.00    -0.084 Cl
ENDBRANCH   4   9
ENDBRANCH   1   7
BRANCH   1  16
ATOM     16  C   UNL     1      -1.125   3.309  -1.574  0.00  0.00    +0.087 C 
BRANCH  16  17
ATOM     17  N   UNL     1      -0.897   1.885  -1.312  0.00  0.00    -0.192 NA
ATOM     18  H   UNL     1      -1.263   1.218  -1.913  0.00  0.00    +0.148 HD
BRANCH  17  19
ATOM     19  S   UNL     1      -0.017   1.417   0.010  0.00  0.00    +0.058 S 
ATOM     20  O   UNL     1       0.002  -0.004   0.002  0.00  0.00    -0.153 OA
ATOM     21  O   UNL     1       1.172   2.195   0.003  0.00  0.00    -0.153 OA
BRANCH  19  25
ATOM     22  C   UNL     1      -2.354   2.659   3.683  0.00  0.00    -0.048 A 
ATOM     23  C   UNL     1      -2.559   1.412   3.121  0.00  0.00    +0.005 A 
ATOM     24  C   UNL     1      -1.846   1.033   2.000  0.00  0.00    +0.029 A 
ATOM     25  C   UNL     1      -0.927   1.900   1.439  0.00  0.00    +0.105 A 
ATOM     26  C   UNL     1      -0.717   3.145   2.004  0.00  0.00    +0.029 A 
ATOM     27  C   UNL     1      -1.434   3.526   3.123  0.00  0.00    +0.005 A 
BRANCH  22  29
ATOM     28  C   UNL     1      -2.364   2.662   6.162  0.00  0.00    +0.009 C 
ATOM     29  C   UNL     1      -3.132   3.072   4.905  0.00  0.00    +0.032 C 
ENDBRANCH  22  29
ENDBRANCH  19  25
ENDBRANCH  17  19
ENDBRANCH  16  17
ENDBRANCH   1  16
TORSDOF 7
