REMARK  Name = ZINC20618024
REMARK  3 active torsions:
REMARK  status: ('A' for Active; 'I' for Inactive)
REMARK    1  A    between atoms: C_1  and  C_2
REMARK    2  A    between atoms: C_5  and  C_8
REMARK    3  A    between atoms: C_10  and  O_21
REMARK                            x       y       z     vdW  Elec       q    Type
REMARK                         _______ _______ _______ _____ _____    ______ ____
ROOT
ATOM      1  C   UNL     1       2.140   0.735   0.029  0.00  0.00    +0.156 C 
ATOM      2  C   UNL     1       1.236   1.933   0.001  0.00  0.00    +0.074 C 
ATOM      3  C   UNL     1      -0.018   1.470   0.010  0.00  0.00    +0.180 C 
ATOM      4  C   UNL     1       0.002  -0.004   0.002  0.00  0.00    +0.287 C 
ATOM      5  O   UNL     1      -0.965  -0.721   0.175  0.00  0.00    -0.266 OA
ATOM      6  N   UNL     1       1.247  -0.428  -0.224  0.00  0.00    -0.234 N 
ATOM      7  C   UNL     1       2.136  -1.408  -0.686  0.00  0.00    +0.060 A 
ATOM      8  C   UNL     1       2.108  -2.791  -0.659  0.00  0.00    +0.025 A 
ATOM      9  C   UNL     1       3.144  -3.517  -1.216  0.00  0.00    +0.002 A 
ATOM     10  C   UNL     1       4.214  -2.867  -1.803  0.00  0.00    +0.002 A 
ATOM     11  C   UNL     1       4.256  -1.485  -1.831  0.00  0.00    +0.025 A 
ATOM     12  C   UNL     1       3.228  -0.749  -1.272  0.00  0.00    +0.051 A 
ATOM     13  N   UNL     1       3.024   0.646  -1.151  0.00  0.00    -0.314 N 
ATOM     14  H   UNL     1       3.337   1.562  -1.674  0.00  0.00    +0.149 HD
ENDROOT
BRANCH   1  19
ATOM     15  C   UNL     1       5.016   0.286   5.020  0.00  0.00    +0.044 C 
ATOM     16  C   UNL     1       4.266   0.402   3.718  0.00  0.00    -0.050 A 
ATOM     17  C   UNL     1       4.828   1.087   2.656  0.00  0.00    +0.004 A 
ATOM     18  C   UNL     1       4.139   1.194   1.462  0.00  0.00    +0.008 A 
ATOM     19  C   UNL     1       2.890   0.617   1.330  0.00  0.00    -0.002 A 
ATOM     20  C   UNL     1       2.327  -0.062   2.394  0.00  0.00    +0.008 A 
ATOM     21  C   UNL     1       3.017  -0.174   3.586  0.00  0.00    +0.004 A 
ENDBRANCH   1  19
BRANCH   3  22
ATOM     22  O   UNL     1      -1.139   2.240   0.020  0.00  0.00    -0.502 OA
ATOM     23  H   UNL     1      -2.131   1.766   0.027  0.00  0.00    +0.292 HD
ENDBRANCH   3  22
TORSDOF 2
