REMARK  Name = ZINC39578369
REMARK  7 active torsions:
REMARK  status: ('A' for Active; 'I' for Inactive)
REMARK    1  A    between atoms: C_1  and  C_2
REMARK    2  A    between atoms: C_2  and  C_4
REMARK    3  A    between atoms: C_2  and  S_13
REMARK    4  A    between atoms: N_6  and  C_7
REMARK    5  A    between atoms: S_13  and  C_14
REMARK    6  A    between atoms: C_17  and  C_20
REMARK    7  A    between atoms: N_18  and  N_19
REMARK                            x       y       z     vdW  Elec       q    Type
REMARK                         _______ _______ _______ _____ _____    ______ ____
ROOT
ATOM      1  C   UNL     1       2.533  -0.042   1.241  0.00  0.00    +0.209 A 
ATOM      2  N   UNL     1       2.985   0.657   0.225  0.00  0.00    -0.121 NA
ATOM      3  N   UNL     1       4.239   0.893   0.382  0.00  0.00    -0.132 NA
ATOM      4  C   UNL     1       4.658   0.365   1.497  0.00  0.00    +0.154 A 
ATOM      5  N   UNL     1       3.585  -0.245   2.087  0.00  0.00    -0.228 N 
ENDROOT
BRANCH   4   6
ATOM      6  C   UNL     1       6.063   0.421   2.039  0.00  0.00    +0.059 C 
ATOM      7  C   UNL     1       6.469   1.880   2.253  0.00  0.00    +0.011 C 
ATOM      8  C   UNL     1       7.896   1.937   2.803  0.00  0.00    +0.001 C 
ATOM      9  C   UNL     1       8.854   1.282   1.806  0.00  0.00    +0.000 C 
ATOM     10  C   UNL     1       8.447  -0.178   1.592  0.00  0.00    +0.001 C 
ATOM     11  C   UNL     1       7.021  -0.234   1.042  0.00  0.00    +0.011 C 
ENDBRANCH   4   6
BRANCH   5  12
ATOM     12  N   UNL     1       3.571  -0.920   3.274  0.00  0.00    -0.295 N 
ATOM     13  H   UNL     1       3.776  -1.898   3.137  0.00  0.00    +0.163 HD
ATOM     14  H   UNL     1       4.211  -0.505   3.934  0.00  0.00    +0.163 HD
ENDBRANCH   5  12
BRANCH   1  15
ATOM     15  S   UNL     1       0.879  -0.605   1.472  0.00  0.00    -0.072 S 
BRANCH  15  17
ATOM     16  C   UNL     1      -0.019   1.526   0.010  0.00  0.00    +0.029 C 
ATOM     17  C   UNL     1       0.002  -0.004   0.002  0.00  0.00    +0.137 C 
BRANCH  17  18
ATOM     18  C   UNL     1      -1.412  -0.526   0.013  0.00  0.00    +0.226 C 
ATOM     19  O   UNL     1      -1.939  -0.827   1.062  0.00  0.00    -0.275 OA
ATOM     20  N   UNL     1      -2.090  -0.657  -1.144  0.00  0.00    -0.312 N 
ATOM     21  H   UNL     1      -1.669  -0.416  -1.984  0.00  0.00    +0.149 HD
BRANCH  20  22
ATOM     22  C   UNL     1      -3.465  -1.164  -1.134  0.00  0.00    +0.073 C 
ATOM     23  C   UNL     1      -3.444  -2.694  -1.142  0.00  0.00    +0.022 C 
ATOM     24  C   UNL     1      -4.879  -3.224  -1.131  0.00  0.00    +0.002 C 
ATOM     25  C   UNL     1      -5.619  -2.717  -2.371  0.00  0.00    +0.000 C 
ATOM     26  C   UNL     1      -5.640  -1.187  -2.363  0.00  0.00    +0.002 C 
ATOM     27  C   UNL     1      -4.205  -0.657  -2.373  0.00  0.00    +0.022 C 
ENDBRANCH  20  22
ENDBRANCH  17  18
ENDBRANCH  15  17
ENDBRANCH   1  15
TORSDOF 6
