REMARK  Name = ZINC49468324
REMARK  5 active torsions:
REMARK  status: ('A' for Active; 'I' for Inactive)
REMARK    1  A    between atoms: C_1  and  C_2
REMARK    2  A    between atoms: C_2  and  C_3
REMARK    3  A    between atoms: C_2  and  N_4
REMARK    4  A    between atoms: N_7  and  N_8
REMARK    5  A    between atoms: C_9  and  C_11
REMARK                            x       y       z     vdW  Elec       q    Type
REMARK                         _______ _______ _______ _____ _____    ______ ____
ROOT
ATOM      1  N   UNL     1      -3.940  -1.414   0.052  0.00  0.00    -0.233 N 
ATOM      2  C   UNL     1      -5.205  -1.881   0.061  0.00  0.00    +0.232 C 
ATOM      3  O   UNL     1      -5.449  -2.981  -0.386  0.00  0.00    -0.274 OA
ATOM      4  H   UNL     1      -3.745  -0.534   0.409  0.00  0.00    +0.173 HD
ENDROOT
BRANCH   2   5
ATOM      5  C   UNL     1      -6.316  -1.035   0.628  0.00  0.00    +0.080 C 
ATOM      6  C   UNL     1      -6.081  -0.775   2.134  0.00  0.00    +0.016 C 
ATOM      7  C   UNL     1      -7.316  -1.413   2.841  0.00  0.00    -0.010 C 
ATOM      8  C   UNL     1      -8.503  -0.469   2.479  0.00  0.00    +0.004 C 
ATOM      9  C   UNL     1      -8.748  -0.711   0.972  0.00  0.00    +0.004 C 
ATOM     10  C   UNL     1      -7.671  -1.804   0.565  0.00  0.00    +0.001 C 
ATOM     11  C   UNL     1      -7.591  -2.636   1.897  0.00  0.00    +0.008 C 
ENDBRANCH   2   5
BRANCH   1  15
ATOM     12  N   UNL     1      -1.372  -0.511   0.012  0.00  0.00    -0.296 N 
ATOM     13  C   UNL     1      -1.643  -1.734  -0.485  0.00  0.00    +0.316 C 
ATOM     14  O   UNL     1      -0.747  -2.417  -0.942  0.00  0.00    -0.251 OA
ATOM     15  N   UNL     1      -2.908  -2.201  -0.475  0.00  0.00    -0.218 N 
ATOM     16  H   UNL     1      -2.087   0.033   0.377  0.00  0.00    +0.151 HD
ATOM     17  H   UNL     1      -3.103  -3.081  -0.833  0.00  0.00    +0.174 HD
BRANCH  12  19
ATOM     18  C   UNL     1      -0.019   1.526   0.010  0.00  0.00    +0.027 C 
ATOM     19  C   UNL     1       0.002  -0.004   0.002  0.00  0.00    +0.068 C 
ATOM     20  C   UNL     1       0.742  -0.511   1.242  0.00  0.00    +0.027 C 
ENDBRANCH  12  19
ENDBRANCH   1  15
TORSDOF 3
