REMARK  Name = ZINC66505516
REMARK  5 active torsions:
REMARK  status: ('A' for Active; 'I' for Inactive)
REMARK    1  A    between atoms: C_1  and  C_2
REMARK    2  A    between atoms: C_2  and  N_3
REMARK    3  A    between atoms: C_9  and  C_16
REMARK    4  A    between atoms: C_16  and  O_18
REMARK    5  A    between atoms: O_18  and  C_19
REMARK                            x       y       z     vdW  Elec       q    Type
REMARK                         _______ _______ _______ _____ _____    ______ ____
ROOT
ATOM      1  N   UNL     1       0.694  -0.661  -1.143  0.00  0.00    -0.261 N 
ATOM      2  C   UNL     1      -0.009  -0.791  -2.289  0.00  0.00    +0.264 A 
ATOM      3  O   UNL     1      -1.195  -0.526  -2.325  0.00  0.00    -0.267 OA
ATOM      4  C   UNL     1       0.699  -1.262  -3.495  0.00  0.00    +0.063 A 
ATOM      5  C   UNL     1       0.041  -1.420  -4.713  0.00  0.00    +0.016 A 
ATOM      6  C   UNL     1       0.732  -1.858  -5.808  0.00  0.00    +0.016 A 
ATOM      7  C   UNL     1       2.097  -2.149  -5.714  0.00  0.00    +0.061 A 
ATOM      8  C   UNL     1       2.767  -1.996  -4.502  0.00  0.00    +0.041 A 
ATOM      9  C   UNL     1       2.070  -1.551  -3.389  0.00  0.00    +0.056 A 
ATOM     10  N   UNL     1       2.696  -1.383  -2.161  0.00  0.00    -0.307 N 
ATOM     11  H   UNL     1       3.642  -1.579  -2.073  0.00  0.00    +0.170 HD
ATOM     12  C   UNL     1       2.005  -0.946  -1.094  0.00  0.00    +0.330 A 
ATOM     13  O   UNL     1       2.591  -0.807  -0.038  0.00  0.00    -0.246 OA
ENDROOT
BRANCH   1  15
ATOM     14  C   UNL     1       0.088   1.332   0.138  0.00  0.00    +0.027 C 
ATOM     15  C   UNL     1       0.015  -0.195   0.068  0.00  0.00    +0.126 C 
ENDBRANCH   1  15
BRANCH   7  16
ATOM     16  C   UNL     1       2.832  -2.623  -6.907  0.00  0.00    +0.345 C 
ATOM     17  O   UNL     1       4.018  -2.876  -6.829  0.00  0.00    -0.245 OA
BRANCH  16  18
ATOM     18  O   UNL     1       2.188  -2.772  -8.080  0.00  0.00    -0.419 OA
BRANCH  18  19
ATOM     19  C   UNL     1       2.923  -3.108  -9.174  0.00  0.00    +0.167 A 
ATOM     20  C   UNL     1       3.393  -2.119 -10.024  0.00  0.00    +0.052 A 
ATOM     21  C   UNL     1       4.141  -2.461 -11.135  0.00  0.00    +0.042 A 
ATOM     22  C   UNL     1       4.420  -3.791 -11.401  0.00  0.00    +0.126 A 
ATOM     23  C   UNL     1       3.951  -4.781 -10.554  0.00  0.00    +0.080 A 
ATOM     24  C   UNL     1       3.208  -4.442  -9.437  0.00  0.00    +0.168 A 
ATOM     25  F   UNL     1       2.756  -5.407  -8.607  0.00  0.00    -0.202 F 
ATOM     26  F   UNL     1       5.150  -4.123 -12.488  0.00  0.00    -0.205 F 
ENDBRANCH  18  19
ENDBRANCH  16  18
ENDBRANCH   7  16
TORSDOF 4
