REMARK  Name = ZINC20840265
REMARK  10 active torsions:
REMARK  status: ('A' for Active; 'I' for Inactive)
REMARK    1  A    between atoms: C_2  and  C_3
REMARK    2  A    between atoms: C_3  and  N_4
REMARK    3  A    between atoms: C_5  and  C_31
REMARK    4  A    between atoms: C_8  and  S_9
REMARK    5  A    between atoms: S_9  and  C_10
REMARK    6  A    between atoms: C_10  and  C_11
REMARK    7  A    between atoms: N_13  and  C_14
REMARK    8  A    between atoms: C_17  and  S_20
REMARK    9  A    between atoms: S_20  and  N_23
REMARK   10  A    between atoms: N_23  and  C_24
REMARK                            x       y       z     vdW  Elec       q    Type
REMARK                         _______ _______ _______ _____ _____    ______ ____
ROOT
ATOM      1  C   UNL     1       8.570  -2.440   1.422  0.00  0.00    +0.227 C 
ATOM      2  O   UNL     1       8.260  -3.601   1.256  0.00  0.00    -0.275 OA
ATOM      3  N   UNL     1       7.730  -1.457   1.043  0.00  0.00    -0.285 N 
ATOM      4  H   UNL     1       8.045  -0.406   1.115  0.00  0.00    +0.155 HD
ENDROOT
BRANCH   3   5
ATOM      5  C   UNL     1       6.456  -1.773   0.558  0.00  0.00    +0.034 A 
ATOM      6  C   UNL     1       5.777  -2.877   1.055  0.00  0.00    +0.025 A 
ATOM      7  C   UNL     1       4.519  -3.187   0.575  0.00  0.00    +0.030 A 
ATOM      8  C   UNL     1       3.937  -2.398  -0.401  0.00  0.00    +0.109 A 
ATOM      9  C   UNL     1       4.613  -1.301  -0.902  0.00  0.00    +0.030 A 
ATOM     10  C   UNL     1       5.869  -0.984  -0.422  0.00  0.00    +0.025 A 
BRANCH   8  11
ATOM     11  S   UNL     1       2.333  -2.797  -1.011  0.00  0.00    +0.072 S 
ATOM     12  O   UNL     1       2.092  -4.154  -0.665  0.00  0.00    -0.150 OA
ATOM     13  O   UNL     1       2.282  -2.332  -2.353  0.00  0.00    -0.150 OA
BRANCH  11  14
ATOM     14  N   UNL     1       1.244  -1.889  -0.155  0.00  0.00    -0.216 N 
ATOM     15  H   UNL     1       0.608  -1.158  -0.676  0.00  0.00    +0.174 HD
BRANCH  14  16
ATOM     16  C   UNL     1       1.133  -2.052   1.229  0.00  0.00    +0.048 A 
ATOM     17  C   UNL     1       1.088  -0.940   2.059  0.00  0.00    +0.027 A 
ATOM     18  C   UNL     1       0.979  -1.104   3.426  0.00  0.00    +0.040 A 
ATOM     19  C   UNL     1       0.914  -2.376   3.969  0.00  0.00    +0.124 A 
ATOM     20  C   UNL     1       0.958  -3.486   3.143  0.00  0.00    +0.040 A 
ATOM     21  C   UNL     1       1.067  -3.327   1.776  0.00  0.00    +0.027 A 
ATOM     22  F   UNL     1       0.807  -2.534   5.307  0.00  0.00    -0.205 F 
ENDBRANCH  14  16
ENDBRANCH  11  14
ENDBRANCH   8  11
ENDBRANCH   3   5
BRANCH   1  23
ATOM     23  C   UNL     1       9.895  -2.097   2.053  0.00  0.00    +0.173 C 
BRANCH  23  24
ATOM     24  S   UNL     1      10.787  -3.622   2.448  0.00  0.00    -0.077 S 
BRANCH  24  29
ATOM     25  N   UNL     1      13.316  -3.645   3.646  0.00  0.00    -0.295 N 
ATOM     26  C   UNL     1      14.211  -2.706   4.078  0.00  0.00    +0.238 A 
ATOM     27  N   UNL     1      13.685  -1.536   3.851  0.00  0.00    -0.124 NA
ATOM     28  N   UNL     1      12.530  -1.670   3.304  0.00  0.00    -0.122 NA
ATOM     29  C   UNL     1      12.254  -2.944   3.151  0.00  0.00    +0.193 A 
BRANCH  26  30
ATOM     30  C   UNL     1      15.554  -2.975   4.707  0.00  0.00    +0.452 C 
ATOM     31  F   UNL     1      16.021  -1.810   5.325  0.00  0.00    -0.163 F 
ATOM     32  F   UNL     1      15.428  -3.990   5.661  0.00  0.00    -0.163 F 
ATOM     33  F   UNL     1      16.460  -3.374   3.718  0.00  0.00    -0.163 F 
ENDBRANCH  26  30
BRANCH  25  34
ATOM     34  C   UNL     1      13.467  -5.102   3.700  0.00  0.00    +0.152 C 
BRANCH  34  36
ATOM     35  C   UNL     1      15.219  -6.307   2.500  0.00  0.00    +0.005 C 
ATOM     36  C   UNL     1      14.128  -5.585   2.435  0.00  0.00    -0.013 C 
ENDBRANCH  34  36
ENDBRANCH  25  34
ENDBRANCH  24  29
ENDBRANCH  23  24
ENDBRANCH   1  23
TORSDOF 10
