REMARK  Name = ZINC14275936
REMARK  6 active torsions:
REMARK  status: ('A' for Active; 'I' for Inactive)
REMARK    1  A    between atoms: C_1  and  C_2
REMARK    2  A    between atoms: C_4  and  N_22
REMARK    3  A    between atoms: C_7  and  N_8
REMARK    4  A    between atoms: N_8  and  C_9
REMARK    5  A    between atoms: C_9  and  N_11
REMARK    6  A    between atoms: C_12  and  C_14
REMARK                            x       y       z     vdW  Elec       q    Type
REMARK                         _______ _______ _______ _____ _____    ______ ____
ROOT
ATOM      1  N   UNL     1       0.002  -0.004   0.002  0.00  0.00    -0.296 N 
ATOM      2  H   UNL     1      -0.831  -0.458  -0.199  0.00  0.00    +0.154 HD
ENDROOT
BRANCH   1   9
ATOM      3  C   UNL     1       0.163  -2.652   1.030  0.00  0.00    +0.046 C 
ATOM      4  C   UNL     1       1.340  -1.981   0.369  0.00  0.00    -0.027 A 
ATOM      5  C   UNL     1       2.541  -2.653   0.248  0.00  0.00    +0.039 A 
ATOM      6  C   UNL     1       3.620  -2.038  -0.358  0.00  0.00    +0.145 A 
ATOM      7  C   UNL     1       3.502  -0.748  -0.845  0.00  0.00    +0.073 A 
ATOM      8  C   UNL     1       2.302  -0.073  -0.732  0.00  0.00    +0.045 A 
ATOM      9  C   UNL     1       1.217  -0.686  -0.119  0.00  0.00    +0.037 A 
ATOM     10 CL   UNL     1       4.861   0.020  -1.606  0.00  0.00    -0.081 Cl
BRANCH   6  11
ATOM     11  N   UNL     1       4.906  -2.761  -0.485  0.00  0.00    +0.058 N 
ATOM     12  O   UNL     1       5.011  -3.896  -0.057  0.00  0.00    -0.126 OA
ATOM     13  O   UNL     1       5.858  -2.221  -1.019  0.00  0.00    -0.126 OA
ENDBRANCH   6  11
ENDBRANCH   1   9
BRANCH   1  14
ATOM     14  C   UNL     1      -0.011   1.284   0.398  0.00  0.00    +0.141 C 
ATOM     15  S   UNL     1       1.443   2.044   0.888  0.00  0.00    -0.018 S 
BRANCH  14  16
ATOM     16  N   UNL     1      -1.168   1.976   0.404  0.00  0.00    -0.264 N 
ATOM     17  C   UNL     1      -1.181   3.264   0.800  0.00  0.00    +0.250 C 
ATOM     18  O   UNL     1      -0.149   3.802   1.152  0.00  0.00    -0.270 OA
ATOM     19  H   UNL     1      -1.991   1.546   0.122  0.00  0.00    +0.157 HD
BRANCH  17  20
ATOM     20  C   UNL     1      -2.449   4.022   0.806  0.00  0.00    +0.038 A 
ATOM     21  C   UNL     1      -3.635   3.409   0.396  0.00  0.00    +0.013 A 
ATOM     22  C   UNL     1      -4.816   4.121   0.409  0.00  0.00    +0.002 A 
ATOM     23  C   UNL     1      -4.826   5.443   0.817  0.00  0.00    +0.014 A 
ATOM     24  C   UNL     1      -3.654   6.059   1.219  0.00  0.00    +0.014 A 
ATOM     25  C   UNL     1      -2.466   5.356   1.216  0.00  0.00    +0.027 A 
ATOM     26  I   UNL     1      -3.683   8.062   1.833  0.00  0.00    -0.044 I 
ENDBRANCH  17  20
ENDBRANCH  14  16
ENDBRANCH   1  14
TORSDOF 5
