REMARK  Name = ZINC08912411
REMARK  10 active torsions:
REMARK  status: ('A' for Active; 'I' for Inactive)
REMARK    1  A    between atoms: C_1  and  C_2
REMARK    2  A    between atoms: C_2  and  S_3
REMARK    3  A    between atoms: S_3  and  C_6
REMARK    4  A    between atoms: C_8  and  S_20
REMARK    5  A    between atoms: C_9  and  N_11
REMARK    6  A    between atoms: N_11  and  C_12
REMARK    7  A    between atoms: C_12  and  C_13
REMARK    8  A    between atoms: C_13  and  C_14
REMARK    9  A    between atoms: S_20  and  C_23
REMARK   10  A    between atoms: C_26  and  C_29
REMARK                            x       y       z     vdW  Elec       q    Type
REMARK                         _______ _______ _______ _____ _____    ______ ____
ROOT
ATOM      1  C   UNL     1      -0.798   1.847   1.530  0.00  0.00    +0.219 A 
ATOM      2  N   UNL     1      -1.658   1.161   2.248  0.00  0.00    -0.201 NA
ATOM      3  C   UNL     1      -2.151   1.635   3.374  0.00  0.00    +0.212 A 
ATOM      4  C   UNL     1      -1.763   2.868   3.811  0.00  0.00    +0.113 A 
ATOM      5  S   UNL     1      -0.625   3.332   2.511  0.00  0.00    -0.032 S 
ENDROOT
BRANCH   1   6
ATOM      6  S   UNL     1      -0.017   1.417   0.010  0.00  0.00    +0.020 S 
ATOM      7  O   UNL     1       0.002  -0.004   0.002  0.00  0.00    -0.167 OA
ATOM      8  O   UNL     1       1.195   2.158   0.002  0.00  0.00    -0.167 OA
BRANCH   6  10
ATOM      9  C   UNL     1      -0.551   1.712  -2.657  0.00  0.00    +0.028 C 
ATOM     10  C   UNL     1      -1.135   2.034  -1.279  0.00  0.00    +0.171 C 
ENDBRANCH   6  10
ENDBRANCH   1   6
BRANCH   3  11
ATOM     11  S   UNL     1      -3.302   0.684   4.309  0.00  0.00    +0.044 S 
ATOM     12  O   UNL     1      -4.048   1.605   5.093  0.00  0.00    -0.163 OA
ATOM     13  O   UNL     1      -3.919  -0.216   3.399  0.00  0.00    -0.163 OA
BRANCH  11  14
ATOM     14  C   UNL     1      -2.371  -0.299   5.437  0.00  0.00    +0.095 A 
ATOM     15  C   UNL     1      -1.948  -1.562   5.067  0.00  0.00    +0.028 A 
ATOM     16  C   UNL     1      -1.215  -2.332   5.950  0.00  0.00    +0.005 A 
ATOM     17  C   UNL     1      -0.910  -1.841   7.207  0.00  0.00    -0.050 A 
ATOM     18  C   UNL     1      -1.337  -0.580   7.578  0.00  0.00    +0.005 A 
ATOM     19  C   UNL     1      -2.067   0.191   6.693  0.00  0.00    +0.028 A 
ATOM     20  C   UNL     1      -0.113  -2.682   8.171  0.00  0.00    +0.044 C 
ENDBRANCH  11  14
ENDBRANCH   3  11
BRANCH   4  21
ATOM     21  N   UNL     1      -2.143   3.570   4.957  0.00  0.00    -0.335 N 
ATOM     22  H   UNL     1      -2.777   3.177   5.578  0.00  0.00    +0.147 HD
BRANCH  21  23
ATOM     23  C   UNL     1      -1.587   4.899   5.221  0.00  0.00    +0.107 C 
BRANCH  23  24
ATOM     24  C   UNL     1      -2.163   5.443   6.529  0.00  0.00    +0.054 C 
BRANCH  24  25
ATOM     25  C   UNL     1      -1.590   6.810   6.801  0.00  0.00    -0.046 A 
ATOM     26  C   UNL     1      -0.427   6.939   7.536  0.00  0.00    +0.004 A 
ATOM     27  C   UNL     1       0.102   8.192   7.780  0.00  0.00    +0.000 A 
ATOM     28  C   UNL     1      -0.540   9.318   7.299  0.00  0.00    +0.000 A 
ATOM     29  C   UNL     1      -1.706   9.190   6.569  0.00  0.00    +0.000 A 
ATOM     30  C   UNL     1      -2.232   7.936   6.319  0.00  0.00    +0.004 A 
ENDBRANCH  24  25
ENDBRANCH  23  24
ENDBRANCH  21  23
ENDBRANCH   4  21
TORSDOF 8
