REMARK  Name = ZINC11998455
REMARK  8 active torsions:
REMARK  status: ('A' for Active; 'I' for Inactive)
REMARK    1  A    between atoms: C_1  and  C_2
REMARK    2  A    between atoms: C_5  and  N_26
REMARK    3  A    between atoms: C_7  and  S_8
REMARK    4  A    between atoms: S_8  and  N_11
REMARK    5  A    between atoms: N_11  and  C_12
REMARK    6  A    between atoms: C_12  and  C_13
REMARK    7  A    between atoms: C_13  and  C_15
REMARK    8  A    between atoms: C_13  and  N_62
REMARK                            x       y       z     vdW  Elec       q    Type
REMARK                         _______ _______ _______ _____ _____    ______ ____
ROOT
ATOM      1  S   UNL     1       0.577   5.543   0.223  0.00  0.00    +0.059 S 
ATOM      2  O   UNL     1      -0.086   6.163   1.317  0.00  0.00    -0.153 OA
ATOM      3  O   UNL     1       1.969   5.703  -0.013  0.00  0.00    -0.153 OA
ENDROOT
BRANCH   1  10
ATOM      4  C   UNL     1       1.565   3.480  -1.751  0.00  0.00    +0.046 C 
ATOM      5  C   UNL     1       0.781   2.943  -0.582  0.00  0.00    -0.024 A 
ATOM      6  C   UNL     1       0.560   1.583  -0.464  0.00  0.00    +0.007 A 
ATOM      7  C   UNL     1      -0.163   1.089   0.603  0.00  0.00    +0.025 A 
ATOM      8  C   UNL     1      -0.660   1.959   1.565  0.00  0.00    +0.061 A 
ATOM      9  C   UNL     1      -0.432   3.324   1.447  0.00  0.00    +0.054 A 
ATOM     10  C   UNL     1       0.287   3.812   0.374  0.00  0.00    +0.110 A 
BRANCH   8  11
ATOM     11  N   UNL     1      -1.389   1.461   2.651  0.00  0.00    -0.144 N 
ATOM     12  C   UNL     1      -2.294   2.140   3.372  0.00  0.00    +0.240 C 
ATOM     13  O   UNL     1      -2.575   3.287   3.093  0.00  0.00    -0.274 OA
ATOM     14  C   UNL     1      -2.954   1.448   4.526  0.00  0.00    +0.122 C 
ATOM     15  C   UNL     1      -2.777  -0.084   4.355  0.00  0.00    +0.198 C 
ATOM     16  S   UNL     1      -1.281  -0.085   3.284  0.00  0.00    +0.052 S 
ATOM     17  O   UNL     1      -1.448  -0.965   2.181  0.00  0.00    -0.155 OA
ATOM     18  O   UNL     1      -0.095  -0.098   4.067  0.00  0.00    -0.155 OA
ENDBRANCH   8  11
ENDBRANCH   1  10
BRANCH   1  19
ATOM     19  N   UNL     1      -0.198   6.052  -1.149  0.00  0.00    -0.191 NA
ATOM     20  H   UNL     1       0.314   6.415  -1.889  0.00  0.00    +0.148 HD
BRANCH  19  21
ATOM     21  C   UNL     1      -1.656   5.953  -1.246  0.00  0.00    +0.098 C 
BRANCH  21  22
ATOM     22  C   UNL     1      -2.147   6.800  -2.422  0.00  0.00    +0.015 C 
BRANCH  22  29
ATOM     23  C   UNL     1      -3.979   5.213  -2.601  0.00  0.00    -0.078 C 
ATOM     24  C   UNL     1      -5.410   4.998  -3.015  0.00  0.00    -0.019 C 
ATOM     25  C   UNL     1      -5.447   4.758  -4.539  0.00  0.00    -0.002 C 
ATOM     26  C   UNL     1      -5.331   6.000  -5.295  0.00  0.00    -0.002 C 
ATOM     27  C   UNL     1      -3.999   6.729  -5.018  0.00  0.00    -0.019 C 
ATOM     28  C   UNL     1      -4.112   7.445  -3.699  0.00  0.00    -0.078 C 
ATOM     29  N   UNL     1      -3.610   6.667  -2.516  0.00  0.00    +0.387 N 
ATOM     30  H   UNL     1      -4.033   7.059  -1.667  0.00  0.00    -0.081 HD
ENDBRANCH  22  29
BRANCH  22  31
ATOM     31  C   UNL     1      -1.820   8.249  -2.170  0.00  0.00    +0.093 A 
ATOM     32  C   UNL     1      -0.777   8.922  -2.688  0.00  0.00    +0.043 A 
ATOM     33  C   UNL     1      -0.856  10.244  -2.192  0.00  0.00    +0.041 A 
ATOM     34  C   UNL     1      -1.938  10.297  -1.394  0.00  0.00    +0.195 A 
ATOM     35  O   UNL     1      -2.518   9.086  -1.385  0.00  0.00    -0.469 OA
ENDBRANCH  22  31
ENDBRANCH  21  22
ENDBRANCH  19  21
ENDBRANCH   1  19
TORSDOF 7
