REMARK  Name = ZINC24760810
REMARK  4 active torsions:
REMARK  status: ('A' for Active; 'I' for Inactive)
REMARK    1  A    between atoms: C_1  and  C_2
REMARK    2  A    between atoms: C_8  and  C_13
REMARK    3  A    between atoms: C_9  and  C_12
REMARK    4  A    between atoms: C_13  and  C_14
REMARK                            x       y       z     vdW  Elec       q    Type
REMARK                         _______ _______ _______ _____ _____    ______ ____
ROOT
ATOM      1  C   UNL     1      -0.018   1.503   0.010  0.00  0.00    +0.044 C 
ATOM      2  C   UNL     1       0.002  -0.004   0.002  0.00  0.00    -0.050 A 
ATOM      3  C   UNL     1       0.006  -0.686  -1.207  0.00  0.00    +0.005 A 
ATOM      4  C   UNL     1       0.024  -2.063  -1.237  0.00  0.00    +0.026 A 
ATOM      5  C   UNL     1       0.039  -2.780  -0.045  0.00  0.00    +0.047 A 
ATOM      6  C   UNL     1       0.036  -2.084   1.178  0.00  0.00    +0.004 A 
ATOM      7  C   UNL     1       0.023  -0.688   1.185  0.00  0.00    +0.013 A 
ATOM      8  C   UNL     1       0.055  -3.107   2.226  0.00  0.00    -0.011 A 
ATOM      9  C   UNL     1       0.067  -4.300   1.610  0.00  0.00    +0.018 A 
ATOM     10  N   UNL     1       0.058  -4.124   0.253  0.00  0.00    -0.358 N 
ATOM     11  H   UNL     1       0.065  -4.840  -0.402  0.00  0.00    +0.166 HD
ATOM     12  C   UNL     1       0.088  -5.635   2.309  0.00  0.00    +0.063 C 
ENDROOT
BRANCH   8  13
ATOM     13  C   UNL     1       0.059  -2.867   3.713  0.00  0.00    +0.133 C 
BRANCH  13  14
ATOM     14  C   UNL     1      -1.360  -2.805   4.217  0.00  0.00    +0.223 C 
ATOM     15  O   UNL     1      -2.284  -2.943   3.443  0.00  0.00    -0.275 OA
ATOM     16  N   UNL     1      -1.602  -2.597   5.526  0.00  0.00    -0.263 N 
ATOM     17  C   UNL     1      -2.912  -2.540   5.990  0.00  0.00    +0.187 A 
ATOM     18  N   UNL     1      -4.039  -2.670   5.318  0.00  0.00    -0.126 NA
ATOM     19  N   UNL     1      -5.166  -2.593   5.884  0.00  0.00    -0.148 NA
ATOM     20  C   UNL     1      -5.218  -2.377   7.183  0.00  0.00    +0.183 A 
ATOM     21  S   UNL     1      -3.473  -2.294   7.561  0.00  0.00    -0.039 S 
ATOM     22  H   UNL     1      -0.863  -2.487   6.144  0.00  0.00    +0.157 HD
ENDBRANCH  13  14
ENDBRANCH   8  13
TORSDOF 2
