REMARK  Name = ZINC20607325
REMARK  5 active torsions:
REMARK  status: ('A' for Active; 'I' for Inactive)
REMARK    1  A    between atoms: C_1  and  C_2
REMARK    2  A    between atoms: C_2  and  N_3
REMARK    3  A    between atoms: C_5  and  C_8
REMARK    4  A    between atoms: C_15  and  C_25
REMARK    5  A    between atoms: C_17  and  C_21
REMARK                            x       y       z     vdW  Elec       q    Type
REMARK                         _______ _______ _______ _____ _____    ______ ____
ROOT
ATOM      1  C   UNL     1       5.506   0.739   3.826  0.00  0.00    +0.145 C 
ATOM      2  C   UNL     1       4.072   0.978   3.423  0.00  0.00    +0.064 A 
ATOM      3  C   UNL     1       3.188   1.437   4.386  0.00  0.00    +0.061 A 
ATOM      4  C   UNL     1       1.855   1.661   4.011  0.00  0.00    +0.060 A 
ATOM      5  C   UNL     1       1.409   1.437   2.719  0.00  0.00    +0.068 A 
ATOM      6  C   UNL     1      -0.013   1.714   2.468  0.00  0.00    +0.035 A 
ATOM      7  C   UNL     1      -0.718   1.572   1.248  0.00  0.00    -0.037 A 
ATOM      8  C   UNL     1      -2.056   1.890   1.212  0.00  0.00    +0.036 A 
ATOM      9  C   UNL     1      -2.703   2.331   2.357  0.00  0.00    +0.145 A 
ATOM     10  N   UNL     1      -2.040   2.462   3.490  0.00  0.00    -0.235 NA
ATOM     11  C   UNL     1      -0.758   2.175   3.571  0.00  0.00    +0.112 A 
ATOM     12  S   UNL     1       0.425   2.230   4.893  0.00  0.00    -0.065 S 
ATOM     13  C   UNL     1      -0.013   1.086   0.008  0.00  0.00    +0.044 C 
ATOM     14  N   UNL     1       2.341   0.976   1.790  0.00  0.00    -0.321 N 
ATOM     15  H   UNL     1       2.033   0.783   0.752  0.00  0.00    +0.169 HD
ATOM     16  C   UNL     1       3.622   0.754   2.125  0.00  0.00    +0.256 A 
ATOM     17  O   UNL     1       4.403   0.350   1.278  0.00  0.00    -0.267 OA
ATOM     18  N   UNL     1       3.629   1.663   5.676  0.00  0.00    -0.268 N 
ATOM     19  C   UNL     1       4.895   1.459   6.064  0.00  0.00    +0.305 C 
ATOM     20  O   UNL     1       5.190   1.685   7.222  0.00  0.00    -0.252 OA
ATOM     21  N   UNL     1       5.855   1.016   5.232  0.00  0.00    -0.288 N 
ATOM     22  H   UNL     1       2.928   2.027   6.442  0.00  0.00    +0.156 HD
ATOM     23  H   UNL     1       6.885   0.859   5.584  0.00  0.00    +0.151 HD
ENDROOT
BRANCH   1  26
ATOM     24  N   UNL     1       7.734   2.241   1.361  0.00  0.00    -0.271 N 
ATOM     25  C   UNL     1       7.072   1.177   1.862  0.00  0.00    +0.114 A 
ATOM     26  C   UNL     1       6.386   1.594   2.951  0.00  0.00    +0.015 A 
ATOM     27  C   UNL     1       6.632   2.961   3.118  0.00  0.00    +0.140 A 
ATOM     28  N   UNL     1       7.445   3.348   2.169  0.00  0.00    -0.179 NA
BRANCH  24  30
ATOM     29  C   UNL     1       8.120   3.301  -0.809  0.00  0.00    +0.029 C 
ATOM     30  C   UNL     1       8.601   2.238   0.180  0.00  0.00    +0.140 C 
ENDBRANCH  24  30
ENDBRANCH   1  26
BRANCH   9  31
ATOM     31  C   UNL     1      -4.170   2.671   2.304  0.00  0.00    +0.434 C 
ATOM     32  F   UNL     1      -4.570   3.204   3.534  0.00  0.00    -0.164 F 
ATOM     33  F   UNL     1      -4.395   3.611   1.293  0.00  0.00    -0.164 F 
ATOM     34  F   UNL     1      -4.907   1.512   2.036  0.00  0.00    -0.164 F 
ENDBRANCH   9  31
TORSDOF 3
