REMARK  Name = ZINC16681931
REMARK  10 active torsions:
REMARK  status: ('A' for Active; 'I' for Inactive)
REMARK    1  A    between atoms: C_1  and  C_2
REMARK    2  A    between atoms: C_2  and  N_3
REMARK    3  A    between atoms: C_7  and  C_9
REMARK    4  A    between atoms: C_13  and  N_28
REMARK    5  A    between atoms: N_17  and  C_19
REMARK    6  A    between atoms: C_22  and  N_25
REMARK    7  A    between atoms: N_28  and  C_29
REMARK    8  A    between atoms: C_29  and  N_31
REMARK    9  A    between atoms: N_31  and  C_32
REMARK   10  A    between atoms: C_32  and  C_33
REMARK                            x       y       z     vdW  Elec       q    Type
REMARK                         _______ _______ _______ _____ _____    ______ ____
ROOT
ATOM      1  C   UNL     1      -1.123  -0.938  -0.331  0.00  0.00    +0.127 A 
ATOM      2  C   UNL     1      -2.428  -0.452   0.010  0.00  0.00    +0.026 A 
ATOM      3  C   UNL     1      -2.858   0.892   0.029  0.00  0.00    +0.058 A 
ATOM      4  S   UNL     1      -4.516   0.815   0.504  0.00  0.00    -0.080 S 
ATOM      5  C   UNL     1      -4.706  -0.943   0.684  0.00  0.00    +0.084 A 
ATOM      6  C   UNL     1      -3.428  -1.452   0.359  0.00  0.00    +0.079 A 
ATOM      7  C   UNL     1      -3.013  -2.819   0.339  0.00  0.00    +0.282 A 
ATOM      8  O   UNL     1      -3.802  -3.701   0.625  0.00  0.00    -0.265 OA
ATOM      9  N   UNL     1      -1.751  -3.127   0.003  0.00  0.00    -0.196 N 
ATOM     10  N   UNL     1      -0.875  -2.248  -0.308  0.00  0.00    -0.160 NA
ENDROOT
BRANCH   1  15
ATOM     11  N   UNL     1       3.265   1.849  -1.771  0.00  0.00    -0.322 N 
ATOM     12  C   UNL     1       2.056   1.322  -1.392  0.00  0.00    +0.182 A 
ATOM     13  N   UNL     1       0.907   1.948  -1.111  0.00  0.00    -0.126 NA
ATOM     14  N   UNL     1      -0.128   1.310  -0.773  0.00  0.00    -0.138 NA
ATOM     15  C   UNL     1      -0.097  -0.026  -0.687  0.00  0.00    +0.154 A 
ATOM     16  S   UNL     1       1.604  -0.339  -1.146  0.00  0.00    -0.029 S 
ATOM     17  H   UNL     1       4.018   1.262  -1.942  0.00  0.00    +0.148 HD
BRANCH  11  19
ATOM     18  C   UNL     1       4.852   3.619  -2.346  0.00  0.00    +0.024 C 
ATOM     19  C   UNL     1       3.418   3.298  -1.918  0.00  0.00    +0.100 C 
ENDBRANCH  11  19
ENDBRANCH   1  15
BRANCH   9  20
ATOM     20  C   UNL     1      -1.377  -4.465  -0.007  0.00  0.00    +0.069 A 
ATOM     21  C   UNL     1      -1.664  -5.279   1.087  0.00  0.00    +0.030 A 
ATOM     22  C   UNL     1      -1.296  -6.608   1.070  0.00  0.00    +0.035 A 
ATOM     23  C   UNL     1      -0.633  -7.131  -0.026  0.00  0.00    +0.126 A 
ATOM     24  C   UNL     1      -0.340  -6.325  -1.113  0.00  0.00    +0.035 A 
ATOM     25  C   UNL     1      -0.709  -4.996  -1.108  0.00  0.00    +0.030 A 
BRANCH  23  26
ATOM     26  N   UNL     1      -0.234  -8.557  -0.037  0.00  0.00    +0.056 N 
ATOM     27  O   UNL     1       0.397  -9.056  -1.079  0.00  0.00    -0.126 OA
ATOM     28  O   UNL     1      -0.512  -9.325   0.996  0.00  0.00    -0.126 OA
ENDBRANCH  23  26
ENDBRANCH   9  20
BRANCH   5  29
ATOM     29  N   UNL     1      -5.823  -1.638   1.051  0.00  0.00    -0.291 N 
ATOM     30  H   UNL     1      -5.793  -2.606   1.112  0.00  0.00    +0.154 HD
BRANCH  29  31
ATOM     31  C   UNL     1      -6.966  -0.980   1.327  0.00  0.00    +0.135 C 
ATOM     32  S   UNL     1      -7.018   0.728   1.218  0.00  0.00    -0.019 S 
BRANCH  31  33
ATOM     33  N   UNL     1      -8.068  -1.666   1.689  0.00  0.00    -0.327 N 
ATOM     34  H   UNL     1      -8.039  -2.634   1.750  0.00  0.00    +0.148 HD
BRANCH  33  35
ATOM     35  C   UNL     1      -9.311  -0.950   1.989  0.00  0.00    +0.100 C 
ATOM     36  C   UNL     1     -10.399  -1.956   2.370  0.00  0.00    +0.024 C 
ENDBRANCH  33  35
ENDBRANCH  31  33
ENDBRANCH  29  31
ENDBRANCH   5  29
TORSDOF 8
