REMARK  Name = ZINC61692623
REMARK  7 active torsions:
REMARK  status: ('A' for Active; 'I' for Inactive)
REMARK    1  A    between atoms: C_1  and  C_2
REMARK    2  A    between atoms: C_2  and  C_3
REMARK    3  A    between atoms: C_2  and  C_4
REMARK    4  A    between atoms: C_2  and  N_5
REMARK    5  A    between atoms: N_5  and  C_6
REMARK    6  A    between atoms: C_6  and  C_7
REMARK    7  A    between atoms: N_11  and  C_12
REMARK                            x       y       z     vdW  Elec       q    Type
REMARK                         _______ _______ _______ _____ _____    ______ ____
ROOT
ATOM      1  C   UNL     1       2.785  -0.447  -2.454  0.00  0.00    +0.140 A 
ATOM      2  N   UNL     1       3.534  -1.515  -2.551  0.00  0.00    -0.115 NA
ATOM      3  N   UNL     1       3.969  -1.654  -3.751  0.00  0.00    -0.023 NA
ATOM      4  N   UNL     1       3.534  -0.696  -4.497  0.00  0.00    -0.039 NA
ATOM      5  N   UNL     1       2.740   0.124  -3.676  0.00  0.00    -0.198 N 
ENDROOT
BRANCH   5   6
ATOM      6  C   UNL     1       2.049   1.288  -4.048  0.00  0.00    +0.088 A 
ATOM      7  C   UNL     1       2.181   2.445  -3.294  0.00  0.00    +0.044 A 
ATOM      8  C   UNL     1       1.501   3.590  -3.663  0.00  0.00    +0.020 A 
ATOM      9  C   UNL     1       0.688   3.583  -4.782  0.00  0.00    +0.017 A 
ATOM     10  C   UNL     1       0.554   2.432  -5.535  0.00  0.00    +0.023 A 
ATOM     11  C   UNL     1       1.237   1.285  -5.175  0.00  0.00    +0.066 A 
ATOM     12 CL   UNL     1       1.074  -0.159  -6.125  0.00  0.00    -0.081 Cl
ATOM     13 BR   UNL     1       1.680   5.167  -2.635  0.00  0.00    -0.050 Br
ENDBRANCH   5   6
BRANCH   1  14
ATOM     14  C   UNL     1       2.095   0.050  -1.209  0.00  0.00    -0.002 C 
BRANCH  14  15
ATOM     15  N   UNL     1       0.715  -0.451  -1.181  0.00  0.00    +0.387 N 
ATOM     16  H   UNL     1       0.723  -1.460  -1.181  0.00  0.00    -0.085 HD
ATOM     17  H   UNL     1       0.220  -0.119  -1.996  0.00  0.00    -0.085 HD
BRANCH  15  19
ATOM     18  C   UNL     1       0.030   1.563   0.032  0.00  0.00    -0.011 C 
ATOM     19  C   UNL     1       0.042   0.033   0.032  0.00  0.00    -0.076 C 
ATOM     20  C   UNL     1       0.792  -0.471   1.266  0.00  0.00    -0.011 C 
ATOM     21  C   UNL     1      -1.396  -0.488   0.061  0.00  0.00    -0.011 C 
ENDBRANCH  15  19
ENDBRANCH  14  15
ENDBRANCH   1  14
TORSDOF 4
