REMARK  Name = ZINC28310174
REMARK  10 active torsions:
REMARK  status: ('A' for Active; 'I' for Inactive)
REMARK    1  A    between atoms: C_1  and  C_2
REMARK    2  A    between atoms: C_5  and  N_9
REMARK    3  A    between atoms: C_7  and  C_8
REMARK    4  A    between atoms: N_11  and  C_30
REMARK    5  A    between atoms: C_14  and  C_17
REMARK    6  A    between atoms: C_17  and  C_18
REMARK    7  A    between atoms: N_20  and  C_21
REMARK    8  A    between atoms: C_24  and  C_27
REMARK    9  A    between atoms: C_27  and  C_29
REMARK   10  A    between atoms: C_30  and  C_31
REMARK                            x       y       z     vdW  Elec       q    Type
REMARK                         _______ _______ _______ _____ _____    ______ ____
ROOT
ATOM      1  N   UNL     1      -4.939  -0.293   2.564  0.00  0.00    -0.226 NA
ATOM      2  C   UNL     1      -4.243   0.201   1.567  0.00  0.00    +0.164 C 
ATOM      3  N   UNL     1      -4.615   1.184   0.674  0.00  0.00    -0.242 N 
ATOM      4  C   UNL     1      -3.817   1.598  -0.295  0.00  0.00    +0.235 C 
ATOM      5  O   UNL     1      -4.148   2.462  -1.078  0.00  0.00    -0.274 OA
ATOM      6  C   UNL     1      -2.457   0.922  -0.366  0.00  0.00    +0.149 C 
ATOM      7  S   UNL     1      -2.592  -0.241   1.048  0.00  0.00    -0.077 S 
ENDROOT
BRANCH   1  12
ATOM      8  C   UNL     1      -2.726  -4.342   5.818  0.00  0.00    +0.044 C 
ATOM      9  C   UNL     1      -3.316  -3.261   4.950  0.00  0.00    -0.047 A 
ATOM     10  C   UNL     1      -3.196  -3.340   3.574  0.00  0.00    +0.006 A 
ATOM     11  C   UNL     1      -3.739  -2.358   2.772  0.00  0.00    +0.028 A 
ATOM     12  C   UNL     1      -4.402  -1.275   3.354  0.00  0.00    +0.067 A 
ATOM     13  C   UNL     1      -4.520  -1.201   4.743  0.00  0.00    +0.031 A 
ATOM     14  C   UNL     1      -3.976  -2.193   5.532  0.00  0.00    -0.046 A 
ATOM     15  C   UNL     1      -4.102  -2.115   7.032  0.00  0.00    +0.044 C 
ENDBRANCH   1  12
BRANCH   6  16
ATOM     16  C   UNL     1      -1.325   1.929  -0.150  0.00  0.00    +0.120 C 
BRANCH  16  17
ATOM     17  C   UNL     1      -0.002   1.208  -0.166  0.00  0.00    +0.219 C 
ATOM     18  O   UNL     1       0.033   0.007  -0.334  0.00  0.00    -0.275 OA
ATOM     19  N   UNL     1       1.143   1.898   0.001  0.00  0.00    -0.285 N 
ATOM     20  H   UNL     1       1.119   2.996   0.066  0.00  0.00    +0.155 HD
BRANCH  19  21
ATOM     21  C   UNL     1       2.358   1.222   0.091  0.00  0.00    +0.033 A 
ATOM     22  C   UNL     1       3.514   1.800  -0.425  0.00  0.00    +0.024 A 
ATOM     23  C   UNL     1       4.712   1.139  -0.335  0.00  0.00    +0.013 A 
ATOM     24  C   UNL     1       4.770  -0.123   0.269  0.00  0.00    +0.017 A 
ATOM     25  C   UNL     1       3.603  -0.703   0.782  0.00  0.00    +0.013 A 
ATOM     26  C   UNL     1       2.410  -0.033   0.692  0.00  0.00    +0.024 A 
BRANCH  24  27
ATOM     27  C   UNL     1       6.050  -0.836   0.364  0.00  0.00    +0.160 C 
ATOM     28  O   UNL     1       6.098  -1.929   0.887  0.00  0.00    -0.292 OA
ATOM     29  C   UNL     1       7.304  -0.210  -0.189  0.00  0.00    +0.091 C 
ENDBRANCH  24  27
ENDBRANCH  19  21
ENDBRANCH  16  17
ENDBRANCH   6  16
BRANCH   3  30
ATOM     30  C   UNL     1      -5.941   1.792   0.805  0.00  0.00    +0.189 C 
BRANCH  30  31
ATOM     31  C   UNL     1      -5.858   2.990   1.715  0.00  0.00    +0.123 A 
ATOM     32  C   UNL     1      -5.601   4.253   1.332  0.00  0.00    +0.046 A 
ATOM     33  C   UNL     1      -5.619   5.048   2.501  0.00  0.00    +0.041 A 
ATOM     34  C   UNL     1      -5.878   4.221   3.530  0.00  0.00    +0.195 A 
ATOM     35  O   UNL     1      -6.022   2.976   3.048  0.00  0.00    -0.466 OA
ENDBRANCH  30  31
ENDBRANCH   3  30
TORSDOF 7
