REMARK  Name = ZINC11782584
REMARK  10 active torsions:
REMARK  status: ('A' for Active; 'I' for Inactive)
REMARK    1  A    between atoms: C_1  and  C_2
REMARK    2  A    between atoms: C_2  and  C_3
REMARK    3  A    between atoms: C_3  and  C_14
REMARK    4  A    between atoms: N_6  and  C_10
REMARK    5  A    between atoms: C_10  and  C_11
REMARK    6  A    between atoms: C_11  and  C_13
REMARK    7  A    between atoms: C_19  and  C_20
REMARK    8  A    between atoms: C_19  and  N_66
REMARK    9  A    between atoms: C_28  and  C_29
REMARK   10  A    between atoms: C_28  and  C_30
REMARK                            x       y       z     vdW  Elec       q    Type
REMARK                         _______ _______ _______ _____ _____    ______ ____
ROOT
ATOM      1  C   UNL     1      -4.501  -2.410   0.793  0.00  0.00    +0.018 C 
ATOM      2  C   UNL     1      -4.583  -1.551  -0.472  0.00  0.00    -0.013 C 
ATOM      3  C   UNL     1      -3.213  -1.522  -1.152  0.00  0.00    -0.078 C 
ATOM      4  C   UNL     1      -2.087  -1.801   0.975  0.00  0.00    -0.078 C 
ATOM      5  C   UNL     1      -3.423  -1.839   1.719  0.00  0.00    -0.013 C 
ATOM      6  N   UNL     1      -2.226  -0.939  -0.218  0.00  0.00    +0.382 N 
ATOM      7  H   UNL     1      -2.554  -0.012   0.077  0.00  0.00    -0.081 HD
ENDROOT
BRANCH   1   8
ATOM      8  C   UNL     1      -5.853  -2.395   1.510  0.00  0.00    +0.115 C 
ATOM      9  C   UNL     1      -6.351  -0.974   1.680  0.00  0.00    +0.247 C 
ATOM     10  O   UNL     1      -5.816  -0.080   2.300  0.00  0.00    -0.273 OA
ATOM     11  N   UNL     1      -7.513  -0.911   1.000  0.00  0.00    -0.220 N 
ATOM     12  C   UNL     1      -7.815  -2.083   0.430  0.00  0.00    +0.310 C 
ATOM     13  O   UNL     1      -8.814  -2.273  -0.236  0.00  0.00    -0.252 OA
ATOM     14  N   UNL     1      -6.889  -3.028   0.675  0.00  0.00    -0.285 N 
ATOM     15  H   UNL     1      -6.901  -3.946   0.363  0.00  0.00    +0.151 HD
BRANCH   8  17
ATOM     16  C   UNL     1      -7.137  -3.180   3.504  0.00  0.00    +0.006 C 
ATOM     17  C   UNL     1      -5.750  -3.099   2.865  0.00  0.00    +0.032 C 
ENDBRANCH   8  17
BRANCH  11  18
ATOM     18  C   UNL     1      -8.343   0.292   0.898  0.00  0.00    +0.148 C 
BRANCH  18  19
ATOM     19  C   UNL     1      -9.333   0.316   2.033  0.00  0.00    -0.062 C 
ATOM     20  C   UNL     1      -9.057   0.979   3.129  0.00  0.00    +0.009 C 
ATOM     21  C   UNL     1     -10.641  -0.422   1.908  0.00  0.00    +0.040 C 
ENDBRANCH  18  19
ENDBRANCH  11  18
ENDBRANCH   1   8
BRANCH   6  22
ATOM     22  C   UNL     1      -0.919  -0.794  -0.891  0.00  0.00    -0.047 C 
BRANCH  22  23
ATOM     23  C   UNL     1       0.002  -0.004   0.002  0.00  0.00    -0.086 C 
ATOM     24  C   UNL     1       0.853  -0.602   0.804  0.00  0.00    -0.029 C 
ATOM     25  C   UNL     1       1.764   0.227   1.677  0.00  0.00    +0.031 C 
ATOM     26  C   UNL     1       1.440   1.716   1.495  0.00  0.00    -0.000 C 
ATOM     27  C   UNL     1       1.409   2.092  -0.000  0.00  0.00    +0.012 C 
ATOM     28  C   UNL     1      -0.018   1.515   0.010  0.00  0.00    +0.019 C 
ATOM     29  C   UNL     1      -0.071   2.001   1.480  0.00  0.00    -0.025 C 
ATOM     30  C   UNL     1      -0.425   3.482   1.630  0.00  0.00    +0.012 C 
ATOM     31  C   UNL     1      -0.883   1.092   2.405  0.00  0.00    +0.012 C 
ENDBRANCH  22  23
ENDBRANCH   6  22
TORSDOF 6
