REMARK  Name = ZINC23126911
REMARK  7 active torsions:
REMARK  status: ('A' for Active; 'I' for Inactive)
REMARK    1  A    between atoms: C_1  and  C_2
REMARK    2  A    between atoms: C_5  and  C_8
REMARK    3  A    between atoms: C_14  and  S_19
REMARK    4  A    between atoms: N_15  and  C_18
REMARK    5  A    between atoms: S_19  and  C_20
REMARK    6  A    between atoms: C_20  and  C_21
REMARK    7  A    between atoms: N_23  and  C_24
REMARK                            x       y       z     vdW  Elec       q    Type
REMARK                         _______ _______ _______ _____ _____    ______ ____
ROOT
ATOM      1  C   UNL     1       3.261  -1.090   3.033  0.00  0.00    +0.015 A 
ATOM      2  C   UNL     1       3.950  -1.549   4.111  0.00  0.00    +0.056 A 
ATOM      3  S   UNL     1       3.071  -0.936   5.471  0.00  0.00    -0.089 S 
ATOM      4  C   UNL     1       1.785  -0.067   4.618  0.00  0.00    +0.103 A 
ATOM      5  C   UNL     1       2.075  -0.280   3.262  0.00  0.00    +0.094 A 
ATOM      6  N   UNL     1       1.228   0.288   2.360  0.00  0.00    -0.222 NA
ATOM      7  C   UNL     1       0.196   0.996   2.735  0.00  0.00    +0.172 A 
ATOM      8  N   UNL     1      -0.106   1.223   4.048  0.00  0.00    -0.290 N 
ATOM      9  C   UNL     1       0.681   0.690   5.012  0.00  0.00    +0.269 A 
ATOM     10  O   UNL     1       0.435   0.870   6.193  0.00  0.00    -0.266 OA
ATOM     11  C   UNL     1      -1.274   2.030   4.409  0.00  0.00    +0.154 C 
ENDROOT
BRANCH   1  16
ATOM     12  C   UNL     1       4.992  -2.328  -2.317  0.00  0.00    +0.044 C 
ATOM     13  C   UNL     1       4.539  -2.004  -0.916  0.00  0.00    -0.050 A 
ATOM     14  C   UNL     1       5.443  -1.498   0.000  0.00  0.00    +0.004 A 
ATOM     15  C   UNL     1       5.034  -1.200   1.284  0.00  0.00    +0.009 A 
ATOM     16  C   UNL     1       3.707  -1.409   1.656  0.00  0.00    -0.015 A 
ATOM     17  C   UNL     1       2.802  -1.924   0.729  0.00  0.00    +0.009 A 
ATOM     18  C   UNL     1       3.221  -2.214  -0.553  0.00  0.00    +0.004 A 
ENDBRANCH   1  16
BRANCH   7  19
ATOM     19  S   UNL     1      -0.846   1.693   1.497  0.00  0.00    -0.078 S 
BRANCH  19  20
ATOM     20  C   UNL     1      -0.002   1.103   0.008  0.00  0.00    +0.173 C 
BRANCH  20  21
ATOM     21  C   UNL     1      -0.738   1.591  -1.213  0.00  0.00    +0.228 C 
ATOM     22  O   UNL     1      -1.734   2.272  -1.089  0.00  0.00    -0.275 OA
ATOM     23  N   UNL     1      -0.288   1.272  -2.443  0.00  0.00    -0.283 N 
ATOM     24  H   UNL     1       0.655   0.718  -2.557  0.00  0.00    +0.155 HD
BRANCH  23  25
ATOM     25  C   UNL     1      -1.023   1.647  -3.576  0.00  0.00    +0.069 A 
ATOM     26  C   UNL     1      -1.723   2.845  -3.586  0.00  0.00    +0.029 A 
ATOM     27  C   UNL     1      -2.446   3.213  -4.704  0.00  0.00    +0.040 A 
ATOM     28  C   UNL     1      -2.473   2.388  -5.816  0.00  0.00    +0.126 A 
ATOM     29  C   UNL     1      -1.775   1.192  -5.811  0.00  0.00    +0.078 A 
ATOM     30  C   UNL     1      -1.046   0.822  -4.695  0.00  0.00    +0.147 A 
ATOM     31  F   UNL     1      -0.361  -0.343  -4.691  0.00  0.00    -0.203 F 
ATOM     32  F   UNL     1      -3.180   2.751  -6.908  0.00  0.00    -0.205 F 
ENDBRANCH  23  25
ENDBRANCH  20  21
ENDBRANCH  19  20
ENDBRANCH   7  19
TORSDOF 5
