REMARK  Name = ZINC39607744
REMARK  9 active torsions:
REMARK  status: ('A' for Active; 'I' for Inactive)
REMARK    1  A    between atoms: C_1  and  C_2
REMARK    2  A    between atoms: C_2  and  C_3
REMARK    3  A    between atoms: C_3  and  O_4
REMARK    4  A    between atoms: O_4  and  C_5
REMARK    5  A    between atoms: C_5  and  C_6
REMARK    6  A    between atoms: C_6  and  N_7
REMARK    7  A    between atoms: C_8  and  C_10
REMARK    8  A    between atoms: C_21  and  C_23
REMARK    9  A    between atoms: C_26  and  C_28
REMARK                            x       y       z     vdW  Elec       q    Type
REMARK                         _______ _______ _______ _____ _____    ______ ____
ROOT
ATOM      1  C   UNL     1      -1.047  -6.286   2.741  0.00  0.00    +0.100 C 
ATOM      2  C   UNL     1       0.424  -5.815   2.786  0.00  0.00    +0.121 C 
ATOM      3  N   UNL     1       1.156  -6.933   3.428  0.00  0.00    -0.294 N 
ATOM      4  C   UNL     1       0.532  -8.154   2.863  0.00  0.00    +0.115 C 
ATOM      5  C   UNL     1      -0.972  -7.822   2.792  0.00  0.00    -0.004 C 
ATOM      6  C   UNL     1      -1.688  -8.345   4.033  0.00  0.00    -0.010 C 
ATOM      7  C   UNL     1      -1.649  -9.876   4.031  0.00  0.00    -0.082 C 
ATOM      8  N   UNL     1      -2.299 -10.382   2.816  0.00  0.00    +0.379 N 
ATOM      9  C   UNL     1      -1.550  -9.950   1.630  0.00  0.00    -0.082 C 
ATOM     10  C   UNL     1      -1.584  -8.423   1.530  0.00  0.00    -0.010 C 
ATOM     11  C   UNL     1       2.161  -6.857   4.322  0.00  0.00    +0.282 C 
ATOM     12  O   UNL     1       2.664  -7.875   4.761  0.00  0.00    -0.267 OA
ATOM     13  H   UNL     1      -2.326 -11.390   2.846  0.00  0.00    -0.086 HD
ATOM     14  H   UNL     1      -3.241 -10.024   2.766  0.00  0.00    -0.086 HD
ENDROOT
BRANCH  11  15
ATOM     15  C   UNL     1       2.649  -5.549   4.766  0.00  0.00    +0.190 A 
ATOM     16  C   UNL     1       3.668  -5.329   5.667  0.00  0.00    +0.055 A 
ATOM     17  C   UNL     1       3.798  -3.943   5.798  0.00  0.00    +0.050 A 
ATOM     18  C   UNL     1       2.864  -3.373   4.981  0.00  0.00    +0.136 A 
ATOM     19  O   UNL     1       2.181  -4.349   4.361  0.00  0.00    -0.450 OA
BRANCH  18  20
ATOM     20  C   UNL     1       2.645  -1.923   4.805  0.00  0.00    +0.017 A 
ATOM     21  C   UNL     1       3.433  -1.005   5.503  0.00  0.00    +0.014 A 
ATOM     22  C   UNL     1       3.223   0.347   5.334  0.00  0.00    +0.039 A 
ATOM     23  C   UNL     1       2.233   0.796   4.474  0.00  0.00    +0.123 A 
ATOM     24  C   UNL     1       1.448  -0.111   3.779  0.00  0.00    +0.039 A 
ATOM     25  C   UNL     1       1.652  -1.465   3.936  0.00  0.00    +0.014 A 
ATOM     26  F   UNL     1       2.033   2.122   4.312  0.00  0.00    -0.205 F 
ENDBRANCH  18  20
ENDBRANCH  11  15
BRANCH   1  28
ATOM     27  N   UNL     1      -3.031  -5.608   1.430  0.00  0.00    -0.313 N 
ATOM     28  C   UNL     1      -1.703  -5.835   1.462  0.00  0.00    +0.218 C 
ATOM     29  O   UNL     1      -1.036  -5.676   0.462  0.00  0.00    -0.275 OA
ATOM     30  H   UNL     1      -3.565  -5.735   2.230  0.00  0.00    +0.149 HD
BRANCH  27  31
ATOM     31  C   UNL     1      -3.670  -5.169   0.187  0.00  0.00    +0.132 C 
BRANCH  31  32
ATOM     32  C   UNL     1      -5.170  -4.985   0.421  0.00  0.00    +0.178 C 
BRANCH  32  33
ATOM     33  O   UNL     1      -5.380  -3.920   1.350  0.00  0.00    -0.378 OA
BRANCH  33  34
ATOM     34  C   UNL     1      -6.756  -3.664   1.640  0.00  0.00    +0.159 C 
BRANCH  34  36
ATOM     35  C   UNL     1      -8.334  -2.237   2.951  0.00  0.00    +0.006 C 
ATOM     36  C   UNL     1      -6.861  -2.511   2.640  0.00  0.00    +0.025 C 
ENDBRANCH  34  36
ENDBRANCH  33  34
ENDBRANCH  32  33
ENDBRANCH  31  32
ENDBRANCH  27  31
ENDBRANCH   1  28
TORSDOF 8
