REMARK  Name = ZINC46911602
REMARK  11 active torsions:
REMARK  status: ('A' for Active; 'I' for Inactive)
REMARK    1  A    between atoms: C_1  and  C_2
REMARK    2  A    between atoms: C_4  and  N_24
REMARK    3  A    between atoms: C_6  and  C_7
REMARK    4  A    between atoms: N_9  and  C_10
REMARK    5  A    between atoms: C_14  and  S_16
REMARK    6  A    between atoms: S_16  and  N_19
REMARK    7  A    between atoms: N_19  and  C_20
REMARK    8  A    between atoms: C_20  and  C_21
REMARK    9  A    between atoms: C_20  and  C_22
REMARK   10  A    between atoms: C_20  and  C_23
REMARK   11  A    between atoms: C_25  and  C_27
REMARK                            x       y       z     vdW  Elec       q    Type
REMARK                         _______ _______ _______ _____ _____    ______ ____
ROOT
ATOM      1  C   UNL     1      -3.173  -0.507   3.847  0.00  0.00    +0.255 C 
ATOM      2  O   UNL     1      -2.796   0.650   3.841  0.00  0.00    -0.269 OA
ATOM      3  N   UNL     1      -2.742  -1.352   4.805  0.00  0.00    -0.281 N 
ATOM      4  H   UNL     1      -3.093  -2.255   4.849  0.00  0.00    +0.155 HD
ENDROOT
BRANCH   1  10
ATOM      5  C   UNL     1      -4.318   1.189   1.540  0.00  0.00    +0.045 C 
ATOM      6  C   UNL     1      -4.619  -0.268   1.781  0.00  0.00    -0.029 A 
ATOM      7  C   UNL     1      -5.452  -0.983   0.961  0.00  0.00    +0.035 A 
ATOM      8  C   UNL     1      -5.677  -2.310   1.246  0.00  0.00    +0.073 A 
ATOM      9  S   UNL     1      -4.762  -2.593   2.626  0.00  0.00    -0.069 S 
ATOM     10  C   UNL     1      -4.064  -0.968   2.844  0.00  0.00    +0.079 A 
BRANCH   8  11
ATOM     11  N   UNL     1      -6.478  -3.208   0.553  0.00  0.00    -0.276 N 
ATOM     12  C   UNL     1      -6.584  -4.483   0.978  0.00  0.00    +0.249 C 
ATOM     13  O   UNL     1      -5.979  -4.846   1.968  0.00  0.00    -0.270 OA
ATOM     14  H   UNL     1      -6.961  -2.918  -0.236  0.00  0.00    +0.156 HD
BRANCH  12  15
ATOM     15  C   UNL     1      -7.436  -5.439   0.240  0.00  0.00    +0.040 A 
ATOM     16  C   UNL     1      -8.128  -5.026  -0.900  0.00  0.00    +0.013 A 
ATOM     17  C   UNL     1      -8.922  -5.923  -1.585  0.00  0.00    +0.004 A 
ATOM     18  C   UNL     1      -9.034  -7.229  -1.145  0.00  0.00    +0.038 A 
ATOM     19  C   UNL     1      -8.351  -7.647  -0.014  0.00  0.00    +0.124 A 
ATOM     20  C   UNL     1      -7.548  -6.760   0.678  0.00  0.00    +0.051 A 
ATOM     21  F   UNL     1      -8.466  -8.924   0.411  0.00  0.00    -0.205 F 
ENDBRANCH  12  15
ENDBRANCH   8  11
ENDBRANCH   1  10
BRANCH   3  22
ATOM     22  C   UNL     1      -1.791  -0.925   5.737  0.00  0.00    +0.036 A 
ATOM     23  C   UNL     1      -1.809   0.384   6.201  0.00  0.00    +0.023 A 
ATOM     24  C   UNL     1      -0.869   0.802   7.122  0.00  0.00    +0.004 A 
ATOM     25  C   UNL     1       0.091  -0.082   7.582  0.00  0.00    +0.028 A 
ATOM     26  C   UNL     1       0.112  -1.385   7.122  0.00  0.00    +0.107 A 
ATOM     27  C   UNL     1      -0.829  -1.811   6.205  0.00  0.00    +0.051 A 
BRANCH  26  28
ATOM     28  S   UNL     1       1.337  -2.506   7.710  0.00  0.00    +0.059 S 
ATOM     29  O   UNL     1       1.665  -3.359   6.622  0.00  0.00    -0.153 OA
ATOM     30  O   UNL     1       2.312  -1.724   8.386  0.00  0.00    -0.153 OA
BRANCH  28  31
ATOM     31  N   UNL     1       0.618  -3.460   8.858  0.00  0.00    -0.185 NA
ATOM     32  H   UNL     1       0.502  -4.409   8.696  0.00  0.00    +0.149 HD
BRANCH  31  33
ATOM     33  C   UNL     1       0.156  -2.869  10.116  0.00  0.00    +0.032 C 
ATOM     34  C   UNL     1      -0.741  -1.666   9.816  0.00  0.00    +0.029 C 
ATOM     35  C   UNL     1      -0.637  -3.911  10.908  0.00  0.00    +0.029 C 
ATOM     36  C   UNL     1       1.363  -2.413  10.939  0.00  0.00    +0.029 C 
ENDBRANCH  31  33
ENDBRANCH  28  31
ENDBRANCH  26  28
ENDBRANCH   3  22
TORSDOF 7
