REMARK  Name = ZINC57836953
REMARK  4 active torsions:
REMARK  status: ('A' for Active; 'I' for Inactive)
REMARK    1  A    between atoms: C_6  and  C_7
REMARK    2  A    between atoms: C_7  and  C_8
REMARK    3  A    between atoms: C_8  and  C_9
REMARK    4  A    between atoms: C_18  and  N_20
REMARK                            x       y       z     vdW  Elec       q    Type
REMARK                         _______ _______ _______ _____ _____    ______ ____
ROOT
ATOM      1  C   UNL     1      -3.040  -1.798  -1.421  0.00  0.00    +0.220 C 
ATOM      2  O   UNL     1      -3.551  -2.114  -0.367  0.00  0.00    -0.275 OA
ATOM      3  N   UNL     1      -3.630  -2.137  -2.584  0.00  0.00    -0.271 N 
ATOM      4  C   UNL     1      -4.889  -2.877  -2.704  0.00  0.00    +0.118 C 
ATOM      5  C   UNL     1      -5.137  -3.011  -4.215  0.00  0.00    +0.056 C 
ATOM      6  C   UNL     1      -3.960  -2.311  -4.857  0.00  0.00    -0.022 A 
ATOM      7  C   UNL     1      -3.135  -1.827  -3.855  0.00  0.00    +0.040 A 
ATOM      8  C   UNL     1      -1.975  -1.134  -4.207  0.00  0.00    +0.026 A 
ATOM      9  C   UNL     1      -1.662  -0.933  -5.535  0.00  0.00    +0.034 A 
ATOM     10  C   UNL     1      -2.494  -1.416  -6.527  0.00  0.00    +0.127 A 
ATOM     11  C   UNL     1      -3.640  -2.111  -6.186  0.00  0.00    +0.038 A 
ENDROOT
BRANCH  10  12
ATOM     12  N   UNL     1      -2.155  -1.199  -7.952  0.00  0.00    +0.056 N 
ATOM     13  O   UNL     1      -1.149  -0.598  -8.249  0.00  0.00    -0.126 OA
ATOM     14  O   UNL     1      -2.885  -1.622  -8.818  0.00  0.00    -0.126 OA
ENDBRANCH  10  12
BRANCH   1  15
ATOM     15  C   UNL     1      -1.745  -1.028  -1.429  0.00  0.00    +0.101 C 
BRANCH  15  16
ATOM     16  C   UNL     1      -1.293  -0.775   0.010  0.00  0.00    +0.044 C 
BRANCH  16  22
ATOM     17  C   UNL     1      -0.017   1.378   0.010  0.00  0.00    +0.006 A 
ATOM     18  C   UNL     1       1.170   2.086   0.002  0.00  0.00    +0.038 A 
ATOM     19  C   UNL     1       2.379   1.410  -0.013  0.00  0.00    +0.123 A 
ATOM     20  C   UNL     1       2.396   0.026  -0.021  0.00  0.00    +0.038 A 
ATOM     21  C   UNL     1       1.208  -0.680  -0.013  0.00  0.00    +0.006 A 
ATOM     22  C   UNL     1       0.002  -0.004   0.002  0.00  0.00    -0.047 A 
ATOM     23  F   UNL     1       3.540   2.101  -0.021  0.00  0.00    -0.205 F 
ENDBRANCH  16  22
ENDBRANCH  15  16
ENDBRANCH   1  15
TORSDOF 4
