REMARK  Name = ZINC09102561
REMARK  16 active torsions:
REMARK  status: ('A' for Active; 'I' for Inactive)
REMARK    1  A    between atoms: C_1  and  C_2
REMARK    2  A    between atoms: C_3  and  C_32
REMARK    3  A    between atoms: C_4  and  C_31
REMARK    4  A    between atoms: C_7  and  C_8
REMARK    5  A    between atoms: C_8  and  C_10
REMARK    6  A    between atoms: C_10  and  C_12
REMARK    7  A    between atoms: C_10  and  S_13
REMARK    8  A    between atoms: S_13  and  C_14
REMARK    9  A    between atoms: C_17  and  C_26
REMARK   10  A    between atoms: N_18  and  C_19
REMARK   11  A    between atoms: C_26  and  C_28
REMARK   12  A    between atoms: C_26  and  N_61
REMARK   13  A    between atoms: C_29  and  N_61
REMARK   14  A    between atoms: C_30  and  N_61
REMARK   15  A    between atoms: C_32  and  O_34
REMARK   16  A    between atoms: O_34  and  C_35
REMARK                            x       y       z     vdW  Elec       q    Type
REMARK                         _______ _______ _______ _____ _____    ______ ____
ROOT
ATOM      1  C   UNL     1       3.735   3.001   5.769  0.00  0.00    +0.197 A 
ATOM      2  N   UNL     1       2.841   2.997   6.731  0.00  0.00    -0.122 NA
ATOM      3  N   UNL     1       3.375   3.403   7.827  0.00  0.00    -0.135 NA
ATOM      4  C   UNL     1       4.629   3.699   7.632  0.00  0.00    +0.125 A 
ATOM      5  N   UNL     1       4.905   3.454   6.313  0.00  0.00    -0.275 N 
ENDROOT
BRANCH   5   6
ATOM      6  C   UNL     1       6.133   3.630   5.657  0.00  0.00    +0.050 A 
ATOM      7  C   UNL     1       7.231   2.861   6.018  0.00  0.00    +0.028 A 
ATOM      8  C   UNL     1       8.437   3.033   5.367  0.00  0.00    +0.022 A 
ATOM      9  C   UNL     1       8.554   3.977   4.362  0.00  0.00    +0.041 A 
ATOM     10  C   UNL     1       7.462   4.748   4.004  0.00  0.00    +0.022 A 
ATOM     11  C   UNL     1       6.252   4.576   4.649  0.00  0.00    +0.028 A 
ATOM     12 CL   UNL     1      10.072   4.195   3.550  0.00  0.00    -0.084 Cl
ENDBRANCH   5   6
BRANCH   4  13
ATOM     13  C   UNL     1       5.597   4.214   8.666  0.00  0.00    -0.003 C 
ATOM     14  C   UNL     1       5.297   5.687   8.956  0.00  0.00    -0.005 C 
BRANCH  13  17
ATOM     15  C   UNL     1       5.643   2.000   9.643  0.00  0.00    -0.096 C 
ATOM     16  C   UNL     1       6.385   3.909  10.935  0.00  0.00    -0.096 C 
ATOM     17  N   UNL     1       5.428   3.437   9.912  0.00  0.00    +0.382 N 
ATOM     18  H   UNL     1       4.472   3.572  10.262  0.00  0.00    -0.082 HD
ENDBRANCH  13  17
ENDBRANCH   4  13
BRANCH   1  19
ATOM     19  S   UNL     1       3.473   2.522   4.094  0.00  0.00    -0.074 S 
BRANCH  19  20
ATOM     20  C   UNL     1       1.724   2.061   4.168  0.00  0.00    +0.124 C 
ATOM     21  C   UNL     1       1.555   0.845   5.080  0.00  0.00    +0.028 C 
BRANCH  20  22
ATOM     22  C   UNL     1       1.235   1.722   2.783  0.00  0.00    +0.192 C 
ATOM     23  O   UNL     1       2.020   1.343   1.938  0.00  0.00    -0.289 OA
BRANCH  22  30
ATOM     24  C   UNL     1      -0.013   1.086   0.008  0.00  0.00    +0.047 C 
ATOM     25  C   UNL     1      -0.718   1.572   1.248  0.00  0.00    -0.008 A 
ATOM     26  C   UNL     1      -2.098   1.839   1.381  0.00  0.00    +0.083 A 
ATOM     27  C   UNL     1      -2.309   2.259   2.683  0.00  0.00    +0.028 A 
ATOM     28  N   UNL     1      -1.134   2.266   3.328  0.00  0.00    -0.355 N 
ATOM     29  H   UNL     1      -1.003   2.524   4.254  0.00  0.00    +0.166 HD
ATOM     30  C   UNL     1      -0.139   1.847   2.468  0.00  0.00    +0.087 A 
ATOM     31  C   UNL     1      -3.638   2.651   3.274  0.00  0.00    +0.064 C 
BRANCH  26  32
ATOM     32  C   UNL     1      -3.121   1.694   0.332  0.00  0.00    +0.341 C 
ATOM     33  O   UNL     1      -3.708   0.638   0.197  0.00  0.00    -0.245 OA
BRANCH  32  34
ATOM     34  O   UNL     1      -3.408   2.732  -0.478  0.00  0.00    -0.464 OA
ATOM     35  C   UNL     1      -4.427   2.518  -1.489  0.00  0.00    +0.280 C 
ENDBRANCH  32  34
ENDBRANCH  26  32
ENDBRANCH  22  30
ENDBRANCH  20  22
ENDBRANCH  19  20
ENDBRANCH   1  19
TORSDOF 9
