REMARK  Name = ZINC05551729
REMARK  2 active torsions:
REMARK  status: ('A' for Active; 'I' for Inactive)
REMARK    1  A    between atoms: C_5  and  N_7
REMARK    2  A    between atoms: C_13  and  C_14
REMARK                            x       y       z     vdW  Elec       q    Type
REMARK                         _______ _______ _______ _____ _____    ______ ____
ROOT
ATOM      1  N   UNL     1       1.198  -2.193  -0.708  0.00  0.00    -0.223 NA
ATOM      2  C   UNL     1       0.087  -2.838  -0.433  0.00  0.00    +0.166 C 
ATOM      3  N   UNL     1      -0.090  -4.189  -0.226  0.00  0.00    -0.260 N 
ATOM      4  C   UNL     1      -1.289  -4.678   0.044  0.00  0.00    +0.256 C 
ATOM      5  O   UNL     1      -1.464  -5.868   0.229  0.00  0.00    -0.269 OA
ATOM      6  C   UNL     1      -2.405  -3.715   0.111  0.00  0.00    +0.078 C 
ATOM      7  C   UNL     1      -3.719  -3.936   0.367  0.00  0.00    +0.028 C 
ATOM      8  S   UNL     1      -1.559  -2.177  -0.227  0.00  0.00    -0.049 S 
ATOM      9  H   UNL     1       0.671  -4.787  -0.280  0.00  0.00    +0.157 HD
ENDROOT
BRANCH   7  10
ATOM     10  C   UNL     1      -4.690  -2.844   0.221  0.00  0.00    -0.020 A 
ATOM     11  C   UNL     1      -4.350  -1.693  -0.501  0.00  0.00    +0.012 A 
ATOM     12  C   UNL     1      -5.263  -0.671  -0.635  0.00  0.00    +0.050 A 
ATOM     13  C   UNL     1      -6.521  -0.775  -0.057  0.00  0.00    +0.166 A 
ATOM     14  C   UNL     1      -6.867  -1.919   0.664  0.00  0.00    +0.167 A 
ATOM     15  C   UNL     1      -5.960  -2.951   0.799  0.00  0.00    +0.057 A 
ATOM     16  O   UNL     1      -8.144  -1.773   1.124  0.00  0.00    -0.453 OA
ATOM     17  C   UNL     1      -8.429  -0.365   1.027  0.00  0.00    +0.466 C 
ATOM     18  O   UNL     1      -7.581   0.083  -0.047  0.00  0.00    -0.453 OA
ENDBRANCH   7  10
BRANCH   1  23
ATOM     19  C   UNL     1       0.608   1.309   0.150  0.00  0.00    +0.002 A 
ATOM     20  C   UNL     1       1.187   1.941  -0.936  0.00  0.00    +0.003 A 
ATOM     21  C   UNL     1       1.770   1.199  -1.948  0.00  0.00    +0.040 A 
ATOM     22  C   UNL     1       1.778  -0.181  -1.879  0.00  0.00    +0.149 A 
ATOM     23  C   UNL     1       1.195  -0.826  -0.784  0.00  0.00    +0.102 A 
ATOM     24  C   UNL     1       0.608  -0.068   0.233  0.00  0.00    +0.031 A 
ATOM     25  F   UNL     1       2.346  -0.905  -2.868  0.00  0.00    -0.203 F 
ENDBRANCH   1  23
TORSDOF 2
