REMARK  Name = ZINC39999556
REMARK  9 active torsions:
REMARK  status: ('A' for Active; 'I' for Inactive)
REMARK    1  A    between atoms: C_1  and  C_2
REMARK    2  A    between atoms: C_2  and  S_3
REMARK    3  A    between atoms: S_3  and  C_4
REMARK    4  A    between atoms: C_10  and  C_24
REMARK    5  A    between atoms: C_12  and  C_17
REMARK    6  A    between atoms: C_17  and  C_19
REMARK    7  A    between atoms: C_27  and  C_30
REMARK    8  A    between atoms: C_30  and  C_31
REMARK    9  A    between atoms: C_30  and  C_32
REMARK                            x       y       z     vdW  Elec       q    Type
REMARK                         _______ _______ _______ _____ _____    ______ ____
ROOT
ATOM      1  C   UNL     1      -1.575  -2.351   0.208  0.00  0.00    +0.160 A 
ATOM      2  N   UNL     1      -0.466  -3.074   0.151  0.00  0.00    -0.133 NA
ATOM      3  N   UNL     1      -0.493  -4.334   0.095  0.00  0.00    -0.125 NA
ATOM      4  C   UNL     1      -1.630  -5.011   0.090  0.00  0.00    +0.192 A 
ATOM      5  S   UNL     1      -2.799  -3.658   0.183  0.00  0.00    -0.024 S 
ATOM      6  N   UNL     1      -1.853  -6.381   0.033  0.00  0.00    -0.230 N 
ATOM      7  C   UNL     1      -0.821  -7.423  -0.031  0.00  0.00    +0.152 C 
ATOM      8  C   UNL     1      -1.557  -8.742  -0.077  0.00  0.00    +0.080 C 
ATOM      9  C   UNL     1      -2.879  -8.452  -0.042  0.00  0.00    +0.250 C 
ATOM     10  C   UNL     1      -3.054  -6.989   0.031  0.00  0.00    +0.293 C 
ATOM     11  O   UNL     1      -4.125  -6.417   0.081  0.00  0.00    -0.266 OA
ATOM     12  O   UNL     1      -3.882  -9.361  -0.067  0.00  0.00    -0.282 OA
ENDROOT
BRANCH   7  13
ATOM     13  C   UNL     1       0.014  -7.250  -1.273  0.00  0.00    -0.022 A 
ATOM     14  C   UNL     1      -0.596  -6.984  -2.485  0.00  0.00    +0.006 A 
ATOM     15  C   UNL     1       0.170  -6.825  -3.624  0.00  0.00    +0.004 A 
ATOM     16  C   UNL     1       1.547  -6.932  -3.552  0.00  0.00    -0.045 A 
ATOM     17  C   UNL     1       2.157  -7.197  -2.341  0.00  0.00    +0.004 A 
ATOM     18  C   UNL     1       1.391  -7.352  -1.200  0.00  0.00    +0.006 A 
BRANCH  16  19
ATOM     19  C   UNL     1       2.382  -6.760  -4.795  0.00  0.00    +0.013 C 
ATOM     20  C   UNL     1       3.346  -5.588  -4.603  0.00  0.00    +0.012 C 
ATOM     21  C   UNL     1       3.179  -8.040  -5.054  0.00  0.00    +0.012 C 
ENDBRANCH  16  19
ENDBRANCH   7  13
BRANCH   8  22
ATOM     22  C   UNL     1      -0.955 -10.078  -0.146  0.00  0.00    +0.230 C 
ATOM     23  O   UNL     1      -1.115 -10.767  -1.138  0.00  0.00    -0.283 OA
BRANCH  22  24
ATOM     24  C   UNL     1      -0.162 -10.583   0.978  0.00  0.00    +0.175 A 
ATOM     25  C   UNL     1       0.537 -11.771   1.009  0.00  0.00    +0.053 A 
ATOM     26  C   UNL     1       1.143 -11.845   2.271  0.00  0.00    +0.042 A 
ATOM     27  C   UNL     1       0.799 -10.724   2.946  0.00  0.00    +0.196 A 
ATOM     28  O   UNL     1       0.020  -9.966   2.164  0.00  0.00    -0.460 OA
ENDBRANCH  22  24
ENDBRANCH   8  22
BRANCH   1  29
ATOM     29  S   UNL     1      -1.785  -0.603   0.291  0.00  0.00    -0.097 S 
BRANCH  29  31
ATOM     30  C   UNL     1      -0.128   1.572   0.342  0.00  0.00    +0.016 C 
ATOM     31  C   UNL     1      -0.091   0.044   0.274  0.00  0.00    +0.073 C 
ENDBRANCH  29  31
ENDBRANCH   1  29
TORSDOF 6
