REMARK  Name = ZINC51149403
REMARK  7 active torsions:
REMARK  status: ('A' for Active; 'I' for Inactive)
REMARK    1  A    between atoms: C_1  and  C_2
REMARK    2  A    between atoms: C_5  and  O_9
REMARK    3  A    between atoms: O_9  and  C_10
REMARK    4  A    between atoms: C_10  and  C_11
REMARK    5  A    between atoms: C_13  and  N_19
REMARK    6  A    between atoms: C_16  and  N_17
REMARK    7  A    between atoms: N_17  and  N_18
REMARK                            x       y       z     vdW  Elec       q    Type
REMARK                         _______ _______ _______ _____ _____    ______ ____
ROOT
ATOM      1  C   UNL     1       0.079  -6.266  -1.111  0.00  0.00    +0.014 A 
ATOM      2  C   UNL     1       0.086  -6.802   0.162  0.00  0.00    +0.041 A 
ATOM      3  C   UNL     1       0.105  -8.174   0.336  0.00  0.00    +0.127 A 
ATOM      4  C   UNL     1       0.116  -9.013  -0.763  0.00  0.00    +0.034 A 
ATOM      5  C   UNL     1       0.108  -8.484  -2.039  0.00  0.00    +0.027 A 
ATOM      6  C   UNL     1       0.084  -7.106  -2.217  0.00  0.00    +0.047 A 
ENDROOT
BRANCH   3   7
ATOM      7  N   UNL     1       0.114  -8.745   1.701  0.00  0.00    +0.056 N 
ATOM      8  O   UNL     1       0.104  -8.012   2.663  0.00  0.00    -0.126 OA
ATOM      9  O   UNL     1       0.130  -9.944   1.855  0.00  0.00    -0.126 OA
ENDBRANCH   3   7
BRANCH   6  10
ATOM     10  N   UNL     1       0.070  -6.567  -3.505  0.00  0.00    -0.283 N 
ATOM     11  H   UNL     1       0.057  -5.605  -3.629  0.00  0.00    +0.166 HD
BRANCH  10  12
ATOM     12  N   UNL     1       0.076  -7.395  -4.592  0.00  0.00    -0.257 NA
ATOM     13  H   UNL     1       0.064  -6.865  -5.450  0.00  0.00    +0.140 HD
ATOM     14  H   UNL     1       0.865  -8.023  -4.565  0.00  0.00    +0.140 HD
ENDBRANCH  10  12
ENDBRANCH   6  10
BRANCH   1  15
ATOM     15  C   UNL     1       0.058  -4.771  -1.300  0.00  0.00    +0.266 C 
BRANCH  15  16
ATOM     16  O   UNL     1       0.057  -4.130  -0.022  0.00  0.00    -0.486 OA
BRANCH  16  21
ATOM     17  C   UNL     1      -0.018   1.503   0.010  0.00  0.00    +0.044 C 
ATOM     18  C   UNL     1       0.002  -0.004   0.002  0.00  0.00    -0.049 A 
ATOM     19  C   UNL     1       0.006  -0.688  -1.200  0.00  0.00    +0.007 A 
ATOM     20  C   UNL     1       0.024  -2.069  -1.211  0.00  0.00    +0.047 A 
ATOM     21  C   UNL     1       0.039  -2.771  -0.014  0.00  0.00    +0.135 A 
ATOM     22  C   UNL     1       0.036  -2.083   1.191  0.00  0.00    +0.060 A 
ATOM     23  C   UNL     1       0.023  -0.700   1.196  0.00  0.00    +0.022 A 
ATOM     24 BR   UNL     1       0.056  -3.035   2.825  0.00  0.00    -0.047 Br
ENDBRANCH  16  21
ENDBRANCH  15  16
ENDBRANCH   1  15
TORSDOF 6
