REMARK  Name = ZINC03389244
REMARK  12 active torsions:
REMARK  status: ('A' for Active; 'I' for Inactive)
REMARK    1  A    between atoms: C_1  and  C_2
REMARK    2  A    between atoms: C_9  and  C_11
REMARK    3  A    between atoms: N_13  and  N_14
REMARK    4  A    between atoms: C_15  and  C_16
REMARK    5  A    between atoms: C_19  and  O_24
REMARK    6  A    between atoms: C_20  and  O_22
REMARK    7  A    between atoms: O_22  and  C_23
REMARK    8  A    between atoms: O_24  and  C_25
REMARK    9  A    between atoms: C_25  and  C_26
REMARK   10  A    between atoms: N_28  and  C_29
REMARK   11  A    between atoms: C_32  and  O_35
REMARK   12  A    between atoms: O_35  and  C_36
REMARK                            x       y       z     vdW  Elec       q    Type
REMARK                         _______ _______ _______ _____ _____    ______ ____
ROOT
ATOM      1  C   UNL     1       4.341  -8.777  -0.727  0.00  0.00    -0.002 A 
ATOM      2  C   UNL     1       3.049  -8.256  -0.615  0.00  0.00    +0.013 A 
ATOM      3  C   UNL     1       2.863  -6.895  -0.489  0.00  0.00    +0.050 A 
ATOM      4  C   UNL     1       3.956  -6.040  -0.486  0.00  0.00    +0.163 A 
ATOM      5  C   UNL     1       5.246  -6.553  -0.597  0.00  0.00    +0.162 A 
ATOM      6  C   UNL     1       5.441  -7.916  -0.717  0.00  0.00    +0.059 A 
ENDROOT
BRANCH   1   8
ATOM      7  N   UNL     1       3.519 -11.030  -0.863  0.00  0.00    -0.187 NA
ATOM      8  C   UNL     1       4.542 -10.232  -0.855  0.00  0.00    +0.138 C 
BRANCH   7  11
ATOM      9  C   UNL     1       2.647 -13.242  -0.994  0.00  0.00    +0.270 C 
ATOM     10  O   UNL     1       1.521 -12.790  -0.896  0.00  0.00    -0.268 OA
ATOM     11  N   UNL     1       3.710 -12.413  -0.985  0.00  0.00    -0.203 N 
ATOM     12  H   UNL     1       4.607 -12.773  -1.063  0.00  0.00    +0.178 HD
BRANCH   9  20
ATOM     13  C   UNL     1       1.299 -20.692  -1.218  0.00  0.00    +0.008 C 
ATOM     14  C   UNL     1       2.194 -19.469  -1.007  0.00  0.00    -0.009 C 
ATOM     15  C   UNL     1       3.414 -19.567  -1.926  0.00  0.00    +0.009 C 
ATOM     16  C   UNL     1       4.428 -18.489  -1.517  0.00  0.00    +0.043 C 
ATOM     17  C   UNL     1       3.701 -17.188  -1.371  0.00  0.00    -0.006 A 
ATOM     18  C   UNL     1       2.350 -17.005  -1.281  0.00  0.00    -0.036 A 
ATOM     19  C   UNL     1       1.905 -15.700  -1.151  0.00  0.00    +0.024 A 
ATOM     20  C   UNL     1       2.848 -14.688  -1.121  0.00  0.00    +0.076 A 
ATOM     21  S   UNL     1       4.371 -15.604  -1.286  0.00  0.00    -0.088 S 
ATOM     22  C   UNL     1       1.402 -18.200  -1.325  0.00  0.00    +0.039 C 
ENDBRANCH   9  20
ENDBRANCH   7  11
ENDBRANCH   1   8
BRANCH   5  23
ATOM     23  O   UNL     1       6.315  -5.712  -0.588  0.00  0.00    -0.491 OA
ATOM     24  C   UNL     1       7.609  -6.306  -0.706  0.00  0.00    +0.277 C 
ENDBRANCH   5  23
BRANCH   4  25
ATOM     25  O   UNL     1       3.767  -4.699  -0.368  0.00  0.00    -0.479 OA
BRANCH  25  26
ATOM     26  C   UNL     1       2.417  -4.241  -0.258  0.00  0.00    +0.325 C 
BRANCH  26  27
ATOM     27  C   UNL     1       2.405  -2.739  -0.137  0.00  0.00    +0.255 C 
ATOM     28  O   UNL     1       3.449  -2.122  -0.144  0.00  0.00    -0.272 OA
ATOM     29  N   UNL     1       1.234  -2.083  -0.020  0.00  0.00    -0.283 N 
ATOM     30  H   UNL     1       0.405  -2.580   0.062  0.00  0.00    +0.155 HD
BRANCH  29  31
ATOM     31  C   UNL     1       1.213  -0.681  -0.019  0.00  0.00    +0.034 A 
ATOM     32  C   UNL     1       2.138   0.027  -0.775  0.00  0.00    +0.027 A 
ATOM     33  C   UNL     1       2.117   1.408  -0.773  0.00  0.00    +0.047 A 
ATOM     34  C   UNL     1       1.173   2.087  -0.017  0.00  0.00    +0.120 A 
ATOM     35  C   UNL     1       0.249   1.379   0.739  0.00  0.00    +0.047 A 
ATOM     36  C   UNL     1       0.269  -0.001   0.738  0.00  0.00    +0.027 A 
BRANCH  34  37
ATOM     37  O   UNL     1       1.153   3.446  -0.015  0.00  0.00    -0.495 OA
ATOM     38  C   UNL     1       0.154   4.080   0.786  0.00  0.00    +0.277 C 
ENDBRANCH  34  37
ENDBRANCH  29  31
ENDBRANCH  26  27
ENDBRANCH  25  26
ENDBRANCH   4  25
TORSDOF 9
