REMARK  Name = ZINC27521076
REMARK  7 active torsions:
REMARK  status: ('A' for Active; 'I' for Inactive)
REMARK    1  A    between atoms: C_1  and  C_2
REMARK    2  A    between atoms: C_7  and  N_8
REMARK    3  A    between atoms: C_9  and  C_11
REMARK    4  A    between atoms: C_11  and  N_22
REMARK    5  A    between atoms: C_12  and  C_13
REMARK    6  A    between atoms: C_17  and  N_19
REMARK    7  A    between atoms: C_23  and  C_25
REMARK                            x       y       z     vdW  Elec       q    Type
REMARK                         _______ _______ _______ _____ _____    ______ ____
ROOT
ATOM      1  C   UNL     1      -1.337   6.265   0.030  0.00  0.00    +0.097 C 
ATOM      2  C   UNL     1      -0.238   5.503   0.236  0.00  0.00    +0.036 C 
ENDROOT
BRANCH   2   3
ATOM      3  C   UNL     1      -0.380   4.057   0.469  0.00  0.00    -0.021 A 
ATOM      4  C   UNL     1      -1.540   3.550   1.065  0.00  0.00    +0.008 A 
ATOM      5  C   UNL     1      -1.667   2.194   1.273  0.00  0.00    +0.003 A 
ATOM      6  C   UNL     1      -0.646   1.334   0.906  0.00  0.00    +0.033 A 
ATOM      7  C   UNL     1       0.505   1.828   0.316  0.00  0.00    +0.127 A 
ATOM      8  C   UNL     1       0.645   3.182   0.095  0.00  0.00    +0.040 A 
BRANCH   7   9
ATOM      9  N   UNL     1       1.588   0.899  -0.080  0.00  0.00    +0.056 N 
ATOM     10  O   UNL     1       1.466  -0.297   0.114  0.00  0.00    -0.126 OA
ATOM     11  O   UNL     1       2.601   1.332  -0.599  0.00  0.00    -0.126 OA
ENDBRANCH   7   9
ENDBRANCH   2   3
BRANCH   1  13
ATOM     12  N   UNL     1       0.031   8.266  -0.259  0.00  0.00    -0.280 N 
ATOM     13  C   UNL     1      -1.194   7.705  -0.228  0.00  0.00    +0.262 C 
ATOM     14  O   UNL     1      -2.182   8.391  -0.413  0.00  0.00    -0.268 OA
ATOM     15  H   UNL     1       0.927   7.635  -0.172  0.00  0.00    +0.155 HD
BRANCH  12  22
ATOM     16  C   UNL     1       2.336   9.517   0.844  0.00  0.00    +0.046 C 
ATOM     17  C   UNL     1       1.272  10.302   0.122  0.00  0.00    -0.028 A 
ATOM     18  C   UNL     1       1.401  11.670  -0.025  0.00  0.00    +0.025 A 
ATOM     19  C   UNL     1       0.422  12.392  -0.683  0.00  0.00    +0.041 A 
ATOM     20  C   UNL     1      -0.687  11.746  -1.202  0.00  0.00    +0.022 A 
ATOM     21  C   UNL     1      -0.819  10.379  -1.062  0.00  0.00    +0.025 A 
ATOM     22  C   UNL     1       0.162   9.651  -0.402  0.00  0.00    +0.037 A 
ATOM     23 CL   UNL     1       0.585  14.111  -0.860  0.00  0.00    -0.084 Cl
ENDBRANCH  12  22
ENDBRANCH   1  13
BRANCH   1  24
ATOM     24  N   UNL     1      -2.608   5.683   0.063  0.00  0.00    -0.277 N 
ATOM     25  C   UNL     1      -3.527   6.122   0.944  0.00  0.00    +0.249 C 
ATOM     26  O   UNL     1      -3.227   6.964   1.768  0.00  0.00    -0.270 OA
ATOM     27  H   UNL     1      -2.857   4.867  -0.632  0.00  0.00    +0.155 HD
BRANCH  25  28
ATOM     28  C   UNL     1      -4.902   5.581   0.910  0.00  0.00    +0.051 A 
ATOM     29  C   UNL     1      -5.220   4.529   0.047  0.00  0.00    +0.014 A 
ATOM     30  C   UNL     1      -6.503   4.025   0.023  0.00  0.00    +0.001 A 
ATOM     31  C   UNL     1      -7.478   4.565   0.844  0.00  0.00    +0.001 A 
ATOM     32  C   UNL     1      -7.172   5.609   1.697  0.00  0.00    +0.016 A 
ATOM     33  C   UNL     1      -5.890   6.121   1.735  0.00  0.00    +0.030 A 
ATOM     34 BR   UNL     1      -5.474   7.551   2.901  0.00  0.00    -0.050 Br
ENDBRANCH  25  28
ENDBRANCH   1  24
TORSDOF 6
