REMARK  Name = ZINC26801444
REMARK  8 active torsions:
REMARK  status: ('A' for Active; 'I' for Inactive)
REMARK    1  A    between atoms: C_4  and  C_7
REMARK    2  A    between atoms: C_7  and  C_8
REMARK    3  A    between atoms: C_7  and  C_14
REMARK    4  A    between atoms: N_16  and  N_17
REMARK    5  A    between atoms: N_17  and  C_18
REMARK    6  A    between atoms: C_18  and  N_20
REMARK    7  A    between atoms: N_20  and  C_21
REMARK    8  A    between atoms: C_21  and  C_22
REMARK                            x       y       z     vdW  Elec       q    Type
REMARK                         _______ _______ _______ _____ _____    ______ ____
ROOT
ATOM      1  C   UNL     1       3.372   1.456   0.279  0.00  0.00    +0.241 C 
ATOM      2  O   UNL     1       2.878   2.562   0.345  0.00  0.00    -0.273 OA
ATOM      3  N   UNL     1       2.610   0.364   0.488  0.00  0.00    -0.234 N 
ATOM      4  H   UNL     1       3.058  -0.639   0.428  0.00  0.00    +0.173 HD
ENDROOT
BRANCH   3   5
ATOM      5  N   UNL     1       1.248   0.506   0.782  0.00  0.00    -0.246 N 
ATOM      6  H   UNL     1       0.800   1.509   0.842  0.00  0.00    +0.172 HD
BRANCH   5   7
ATOM      7  C   UNL     1       0.486  -0.586   0.992  0.00  0.00    +0.147 C 
ATOM      8  S   UNL     1      -1.180  -0.413   1.344  0.00  0.00    -0.017 S 
BRANCH   7   9
ATOM      9  N   UNL     1       1.035  -1.815   0.918  0.00  0.00    -0.323 N 
ATOM     10  H   UNL     1       2.105  -1.926   0.687  0.00  0.00    +0.148 HD
BRANCH   9  11
ATOM     11  C   UNL     1       0.207  -3.002   1.146  0.00  0.00    +0.134 C 
BRANCH  11  12
ATOM     12  C   UNL     1       1.069  -4.259   1.005  0.00  0.00    +0.135 C 
ATOM     13  C   UNL     1       0.207  -5.514   1.242  0.00  0.00    +0.035 C 
ATOM     14  C   UNL     1       0.347  -6.324  -0.069  0.00  0.00    +0.031 C 
ATOM     15  C   UNL     1       1.655  -5.748  -0.668  0.00  0.00    +0.160 C 
ATOM     16  O   UNL     1       1.591  -4.346  -0.331  0.00  0.00    -0.375 OA
ENDBRANCH  11  12
ENDBRANCH   9  11
ENDBRANCH   7   9
ENDBRANCH   5   7
ENDBRANCH   3   5
BRANCH   1  17
ATOM     17  C   UNL     1       4.837   1.303  -0.037  0.00  0.00    +0.136 C 
BRANCH  17  21
ATOM     18  C   UNL     1       5.291  -0.974  -3.623  0.00  0.00    +0.000 A 
ATOM     19  C   UNL     1       5.988  -1.331  -2.484  0.00  0.00    +0.000 A 
ATOM     20  C   UNL     1       5.841  -0.595  -1.324  0.00  0.00    +0.005 A 
ATOM     21  C   UNL     1       4.997   0.500  -1.302  0.00  0.00    -0.031 A 
ATOM     22  C   UNL     1       4.296   0.854  -2.439  0.00  0.00    +0.005 A 
ATOM     23  C   UNL     1       4.446   0.120  -3.601  0.00  0.00    +0.000 A 
ENDBRANCH  17  21
BRANCH  17  24
ATOM     24  C   UNL     1       5.455   2.665  -0.225  0.00  0.00    -0.031 A 
ATOM     25  C   UNL     1       4.903   3.556  -1.127  0.00  0.00    +0.005 A 
ATOM     26  C   UNL     1       5.467   4.806  -1.296  0.00  0.00    +0.000 A 
ATOM     27  C   UNL     1       6.589   5.163  -0.571  0.00  0.00    +0.000 A 
ATOM     28  C   UNL     1       7.144   4.270   0.327  0.00  0.00    +0.000 A 
ATOM     29  C   UNL     1       6.577   3.021   0.500  0.00  0.00    +0.005 A 
ENDBRANCH  17  24
ENDBRANCH   1  17
TORSDOF 8
