REMARK  Name = ZINC19817904
REMARK  5 active torsions:
REMARK  status: ('A' for Active; 'I' for Inactive)
REMARK    1  A    between atoms: C_4  and  C_7
REMARK    2  A    between atoms: N_10  and  C_12
REMARK    3  A    between atoms: C_12  and  C_13
REMARK    4  A    between atoms: C_18  and  C_19
REMARK    5  A    between atoms: C_19  and  N_21
REMARK                            x       y       z     vdW  Elec       q    Type
REMARK                         _______ _______ _______ _____ _____    ______ ____
ROOT
ATOM      1  C   UNL     1       3.759   0.828   0.061  0.00  0.00    +0.204 C 
ENDROOT
BRANCH   1   2
ATOM      2  C   UNL     1       4.087   0.809  -1.410  0.00  0.00    -0.015 A 
ATOM      3  C   UNL     1       4.540  -0.351  -2.002  0.00  0.00    +0.006 A 
ATOM      4  C   UNL     1       4.841  -0.370  -3.353  0.00  0.00    +0.000 A 
ATOM      5  C   UNL     1       4.690   0.773  -4.118  0.00  0.00    +0.001 A 
ATOM      6  C   UNL     1       4.238   1.940  -3.539  0.00  0.00    +0.010 A 
ATOM      7  C   UNL     1       3.927   1.965  -2.177  0.00  0.00    +0.008 A 
BRANCH   7   8
ATOM      8  C   UNL     1       3.437   3.209  -1.551  0.00  0.00    +0.077 C 
ATOM      9  S   UNL     1       4.544   4.295  -0.825  0.00  0.00    -0.035 S 
BRANCH   8  10
ATOM     10  N   UNL     1       2.119   3.490  -1.551  0.00  0.00    -0.352 N 
ATOM     11  H   UNL     1       1.754   4.417  -1.085  0.00  0.00    +0.143 HD
ATOM     12  H   UNL     1       1.408   2.792  -2.018  0.00  0.00    +0.143 HD
ENDBRANCH   8  10
ENDBRANCH   7   8
ENDBRANCH   1   2
BRANCH   1  16
ATOM     13  C   UNL     1       0.490  -0.414   0.532  0.00  0.00    +0.205 A 
ATOM     14  N   UNL     1       0.268   0.906   0.459  0.00  0.00    -0.108 NA
ATOM     15  N   UNL     1       1.411   1.477   0.284  0.00  0.00    -0.045 NA
ATOM     16  N   UNL     1       2.328   0.575   0.245  0.00  0.00    -0.158 N 
ATOM     17  N   UNL     1       1.789  -0.587   0.395  0.00  0.00    -0.130 NA
BRANCH  13  21
ATOM     18  C   UNL     1      -2.431  -3.454   1.097  0.00  0.00    +0.000 A 
ATOM     19  C   UNL     1      -2.818  -2.127   1.043  0.00  0.00    +0.001 A 
ATOM     20  C   UNL     1      -1.875  -1.137   0.860  0.00  0.00    +0.012 A 
ATOM     21  C   UNL     1      -0.530  -1.475   0.730  0.00  0.00    +0.023 A 
ATOM     22  C   UNL     1      -0.145  -2.813   0.780  0.00  0.00    +0.012 A 
ATOM     23  C   UNL     1      -1.097  -3.795   0.969  0.00  0.00    +0.001 A 
ENDBRANCH  13  21
ENDBRANCH   1  16
TORSDOF 5
