REMARK  Name = ZINC52584781
REMARK  8 active torsions:
REMARK  status: ('A' for Active; 'I' for Inactive)
REMARK    1  A    between atoms: C_1  and  C_2
REMARK    2  A    between atoms: C_2  and  N_3
REMARK    3  A    between atoms: C_12  and  C_14
REMARK    4  A    between atoms: N_16  and  N_17
REMARK    5  A    between atoms: N_20  and  C_21
REMARK    6  A    between atoms: C_21  and  C_23
REMARK    7  A    between atoms: C_21  and  C_24
REMARK    8  A    between atoms: C_24  and  C_25
REMARK                            x       y       z     vdW  Elec       q    Type
REMARK                         _______ _______ _______ _____ _____    ______ ____
ROOT
ATOM      1  C   UNL     1      -3.714  -1.386   2.639  0.00  0.00    +0.281 C 
ATOM      2  O   UNL     1      -4.848  -1.805   2.767  0.00  0.00    -0.267 OA
ATOM      3  N   UNL     1      -2.969  -1.115   3.729  0.00  0.00    -0.228 N 
ATOM      4  H   UNL     1      -2.064  -0.781   3.627  0.00  0.00    +0.173 HD
ENDROOT
BRANCH   1  14
ATOM      5  N   UNL     1      -1.372  -0.511   0.012  0.00  0.00    -0.229 N 
ATOM      6  C   UNL     1      -1.981  -0.731  -1.171  0.00  0.00    +0.275 A 
ATOM      7  O   UNL     1      -1.401  -0.513  -2.220  0.00  0.00    -0.266 OA
ATOM      8  C   UNL     1      -3.359  -1.239  -1.166  0.00  0.00    +0.050 A 
ATOM      9  C   UNL     1      -4.074  -1.498  -2.332  0.00  0.00    +0.014 A 
ATOM     10  C   UNL     1      -5.364  -1.974  -2.241  0.00  0.00    +0.001 A 
ATOM     11  C   UNL     1      -5.954  -2.196  -1.004  0.00  0.00    +0.001 A 
ATOM     12  C   UNL     1      -5.263  -1.946   0.163  0.00  0.00    +0.011 A 
ATOM     13  C   UNL     1      -3.959  -1.466   0.094  0.00  0.00    +0.020 A 
ATOM     14  C   UNL     1      -3.153  -1.173   1.290  0.00  0.00    +0.155 A 
ATOM     15  N   UNL     1      -1.929  -0.727   1.144  0.00  0.00    -0.163 NA
BRANCH   5  17
ATOM     16  C   UNL     1      -0.019   1.526   0.010  0.00  0.00    +0.029 C 
ATOM     17  C   UNL     1       0.002  -0.004   0.002  0.00  0.00    +0.144 C 
ENDBRANCH   5  17
ENDBRANCH   1  14
BRANCH   3  18
ATOM     18  N   UNL     1      -3.502  -1.317   5.010  0.00  0.00    -0.218 N 
ATOM     19  C   UNL     1      -2.756  -1.046   6.099  0.00  0.00    +0.316 C 
ATOM     20  O   UNL     1      -3.218  -1.221   7.210  0.00  0.00    -0.251 OA
ATOM     21  N   UNL     1      -1.499  -0.582   5.958  0.00  0.00    -0.295 N 
ATOM     22  H   UNL     1      -4.406  -1.651   5.111  0.00  0.00    +0.174 HD
ATOM     23  H   UNL     1      -1.131  -0.442   5.072  0.00  0.00    +0.151 HD
BRANCH  21  24
ATOM     24  C   UNL     1      -0.689  -0.288   7.143  0.00  0.00    +0.076 C 
ATOM     25  C   UNL     1      -1.000   1.127   7.635  0.00  0.00    +0.028 C 
BRANCH  24  26
ATOM     26  C   UNL     1       0.795  -0.389   6.784  0.00  0.00    +0.057 C 
BRANCH  26  27
ATOM     27  C   UNL     1       1.127  -1.812   6.417  0.00  0.00    -0.039 A 
ATOM     28  C   UNL     1       1.536  -2.709   7.386  0.00  0.00    +0.011 A 
ATOM     29  C   UNL     1       1.828  -3.982   7.022  0.00  0.00    +0.045 A 
ATOM     30  S   UNL     1       1.524  -3.942   5.263  0.00  0.00    -0.105 S 
ATOM     31  C   UNL     1       1.024  -2.233   5.133  0.00  0.00    +0.049 A 
ENDBRANCH  26  27
ENDBRANCH  24  26
ENDBRANCH  21  24
ENDBRANCH   3  18
TORSDOF 6
