REMARK  Name = ZINC04926153
REMARK  13 active torsions:
REMARK  status: ('A' for Active; 'I' for Inactive)
REMARK    1  A    between atoms: C_1  and  C_2
REMARK    2  A    between atoms: C_2  and  C_3
REMARK    3  A    between atoms: C_3  and  C_5
REMARK    4  A    between atoms: C_3  and  N_6
REMARK    5  A    between atoms: N_6  and  C_7
REMARK    6  A    between atoms: C_7  and  C_8
REMARK    7  A    between atoms: N_10  and  C_11
REMARK    8  A    between atoms: N_10  and  C_18
REMARK    9  A    between atoms: C_11  and  C_12
REMARK   10  A    between atoms: C_18  and  C_19
REMARK   11  A    between atoms: C_20  and  C_24
REMARK   12  A    between atoms: C_25  and  C_27
REMARK   13  A    between atoms: C_27  and  C_28
REMARK                            x       y       z     vdW  Elec       q    Type
REMARK                         _______ _______ _______ _____ _____    ______ ____
ROOT
ATOM      1  C   UNL     1      -2.237   4.245   2.722  0.00  0.00    +0.234 C 
ATOM      2  O   UNL     1      -1.500   3.859   3.604  0.00  0.00    -0.274 OA
ATOM      3  N   UNL     1      -3.387   4.875   3.033  0.00  0.00    -0.291 N 
ENDROOT
BRANCH   1   4
ATOM      4  C   UNL     1      -1.868   4.019   1.279  0.00  0.00    +0.203 C 
BRANCH   4   5
ATOM      5  N   UNL     1      -0.659   3.195   1.208  0.00  0.00    -0.290 N 
ATOM      6  C   UNL     1       0.556   3.768   1.316  0.00  0.00    +0.216 C 
ATOM      7  O   UNL     1       0.647   4.952   1.564  0.00  0.00    -0.276 OA
BRANCH   5   8
ATOM      8  C   UNL     1      -0.770   1.746   1.018  0.00  0.00    +0.073 C 
ATOM      9  C   UNL     1      -1.622   1.458  -0.220  0.00  0.00    +0.028 C 
BRANCH   8  11
ATOM     10  C   UNL     1      -0.497   1.257   3.453  0.00  0.00    +0.005 C 
ATOM     11  C   UNL     1      -1.430   1.120   2.248  0.00  0.00    +0.019 C 
ENDBRANCH   8  11
ENDBRANCH   5   8
BRANCH   6  12
ATOM     12  C   UNL     1       1.800   2.939   1.130  0.00  0.00    +0.092 C 
ATOM     13  C   UNL     1       3.033   3.796   1.424  0.00  0.00    +0.013 C 
ENDBRANCH   6  12
ENDBRANCH   4   5
ENDBRANCH   1   4
BRANCH   3  14
ATOM     14  C   UNL     1      -3.747   5.095   4.436  0.00  0.00    +0.143 C 
BRANCH  14  15
ATOM     15  C   UNL     1      -3.302   6.471   4.859  0.00  0.00    -0.030 A 
ATOM     16  C   UNL     1      -2.042   6.655   5.399  0.00  0.00    +0.005 A 
ATOM     17  C   UNL     1      -1.632   7.918   5.782  0.00  0.00    +0.000 A 
ATOM     18  C   UNL     1      -2.485   8.996   5.636  0.00  0.00    +0.000 A 
ATOM     19  C   UNL     1      -3.747   8.811   5.101  0.00  0.00    +0.000 A 
ATOM     20  C   UNL     1      -4.155   7.549   4.712  0.00  0.00    +0.005 A 
ENDBRANCH  14  15
ENDBRANCH   3  14
BRANCH   3  21
ATOM     21  C   UNL     1      -4.278   5.341   1.967  0.00  0.00    +0.150 C 
BRANCH  21  22
ATOM     22  C   UNL     1      -5.341   4.304   1.711  0.00  0.00    +0.010 A 
ATOM     23  C   UNL     1      -6.607   4.243   2.193  0.00  0.00    -0.039 A 
ATOM     24  C   UNL     1      -7.417   3.188   1.816  0.00  0.00    +0.011 A 
ATOM     25  C   UNL     1      -6.918   2.241   0.985  0.00  0.00    +0.046 A 
ATOM     26  S   UNL     1      -5.258   2.834   0.702  0.00  0.00    -0.100 S 
ATOM     27  C   UNL     1      -7.124   5.311   3.121  0.00  0.00    +0.044 C 
ENDBRANCH  21  22
ENDBRANCH   3  21
TORSDOF 9
