REMARK  Name = ZINC04997499
REMARK  6 active torsions:
REMARK  status: ('A' for Active; 'I' for Inactive)
REMARK    1  A    between atoms: C_1  and  C_2
REMARK    2  A    between atoms: C_5  and  C_11
REMARK    3  A    between atoms: C_7  and  N_8
REMARK    4  A    between atoms: C_21  and  C_32
REMARK    5  A    between atoms: C_22  and  C_23
REMARK    6  A    between atoms: N_25  and  C_26
REMARK                            x       y       z     vdW  Elec       q    Type
REMARK                         _______ _______ _______ _____ _____    ______ ____
ROOT
ATOM      1  C   UNL     1      -3.357   1.419   4.023  0.00  0.00    +0.090 C 
ATOM      2  C   UNL     1      -3.457   0.690   2.706  0.00  0.00    +0.024 C 
ATOM      3  C   UNL     1      -2.363   0.139   2.138  0.00  0.00    +0.015 C 
ATOM      4  C   UNL     1      -2.454  -0.591   0.821  0.00  0.00    +0.051 C 
ATOM      5  C   UNL     1      -3.578   0.013  -0.024  0.00  0.00    +0.014 C 
ATOM      6  C   UNL     1      -4.888  -0.090   0.764  0.00  0.00    +0.080 C 
ATOM      7  C   UNL     1      -4.717   0.602   2.089  0.00  0.00    +0.162 C 
ATOM      8  O   UNL     1      -5.684   1.094   2.635  0.00  0.00    -0.292 OA
ATOM      9  N   UNL     1      -1.142   0.230   2.751  0.00  0.00    -0.321 N 
ATOM     10  C   UNL     1      -1.053   0.505   4.088  0.00  0.00    +0.014 C 
ATOM     11  C   UNL     1      -2.085   1.067   4.738  0.00  0.00    +0.043 C 
ATOM     12  C   UNL     1       0.212   0.174   4.838  0.00  0.00    +0.061 C 
ATOM     13  H   UNL     1      -0.221   0.082   2.168  0.00  0.00    +0.152 HD
ENDROOT
BRANCH   1  18
ATOM     14  C   UNL     1      -3.476   7.114   3.054  0.00  0.00    +0.046 C 
ATOM     15  C   UNL     1      -3.445   5.629   3.307  0.00  0.00    -0.020 A 
ATOM     16  C   UNL     1      -2.443   4.854   2.753  0.00  0.00    +0.006 A 
ATOM     17  C   UNL     1      -2.412   3.493   2.988  0.00  0.00    +0.005 A 
ATOM     18  C   UNL     1      -3.388   2.904   3.770  0.00  0.00    -0.033 A 
ATOM     19  C   UNL     1      -4.389   3.679   4.324  0.00  0.00    +0.037 A 
ATOM     20  C   UNL     1      -4.418   5.041   4.092  0.00  0.00    +0.129 A 
BRANCH  20  21
ATOM     21  N   UNL     1      -5.491   5.871   4.686  0.00  0.00    +0.057 N 
ATOM     22  O   UNL     1      -5.238   6.987   5.103  0.00  0.00    -0.126 OA
ATOM     23  O   UNL     1      -6.627   5.437   4.757  0.00  0.00    -0.126 OA
ENDBRANCH  20  21
ENDBRANCH   1  18
BRANCH  11  24
ATOM     24  C   UNL     1      -1.972   1.334   6.124  0.00  0.00    +0.247 C 
ATOM     25  O   UNL     1      -0.987   0.963   6.737  0.00  0.00    -0.270 OA
ATOM     26  N   UNL     1      -2.953   2.000   6.765  0.00  0.00    -0.282 N 
ATOM     27  H   UNL     1      -3.878   2.264   6.231  0.00  0.00    +0.155 HD
BRANCH  26  28
ATOM     28  C   UNL     1      -2.796   2.354   8.109  0.00  0.00    +0.034 A 
ATOM     29  C   UNL     1      -3.893   2.359   8.960  0.00  0.00    +0.023 A 
ATOM     30  C   UNL     1      -3.733   2.703  10.288  0.00  0.00    +0.002 A 
ATOM     31  C   UNL     1      -2.484   3.055  10.767  0.00  0.00    +0.000 A 
ATOM     32  C   UNL     1      -1.391   3.057   9.921  0.00  0.00    +0.002 A 
ATOM     33  C   UNL     1      -1.543   2.708   8.593  0.00  0.00    +0.023 A 
ENDBRANCH  26  28
ENDBRANCH  11  24
TORSDOF 4
