REMARK  Name = ZINC30984403
REMARK  5 active torsions:
REMARK  status: ('A' for Active; 'I' for Inactive)
REMARK    1  A    between atoms: C_1  and  C_2
REMARK    2  A    between atoms: C_2  and  C_3
REMARK    3  A    between atoms: C_8  and  N_9
REMARK    4  A    between atoms: N_12  and  C_13
REMARK    5  A    between atoms: C_13  and  C_14
REMARK                            x       y       z     vdW  Elec       q    Type
REMARK                         _______ _______ _______ _____ _____    ______ ____
ROOT
ATOM      1  N   UNL     1      -1.153  -4.696   1.116  0.00  0.00    -0.269 N 
ATOM      2  C   UNL     1      -0.139  -4.086   0.471  0.00  0.00    +0.304 C 
ATOM      3  O   UNL     1       0.576  -4.723  -0.278  0.00  0.00    -0.253 OA
ATOM      4  N   UNL     1       0.082  -2.769   0.656  0.00  0.00    -0.296 N 
ATOM      5  H   UNL     1      -1.742  -4.143   1.863  0.00  0.00    +0.156 HD
ATOM      6  H   UNL     1      -0.566  -2.192   1.333  0.00  0.00    +0.150 HD
ENDROOT
BRANCH   1  12
ATOM      7  C   UNL     1      -2.104  -6.813   1.786  0.00  0.00    -0.026 A 
ATOM      8  C   UNL     1      -2.403  -8.132   1.506  0.00  0.00    +0.005 A 
ATOM      9  C   UNL     1      -2.057  -8.677   0.283  0.00  0.00    +0.000 A 
ATOM     10  C   UNL     1      -1.412  -7.903  -0.664  0.00  0.00    +0.002 A 
ATOM     11  C   UNL     1      -1.115  -6.582  -0.393  0.00  0.00    +0.023 A 
ATOM     12  C   UNL     1      -1.456  -6.033   0.837  0.00  0.00    +0.038 A 
BRANCH   7  14
ATOM     13  C   UNL     1      -3.831  -5.508   2.997  0.00  0.00    +0.009 C 
ATOM     14  C   UNL     1      -2.482  -6.220   3.119  0.00  0.00    +0.033 C 
ENDBRANCH   7  14
ENDBRANCH   1  12
BRANCH   4  15
ATOM     15  C   UNL     1       1.184  -2.106  -0.046  0.00  0.00    +0.153 C 
BRANCH  15  16
ATOM     16  C   UNL     1       1.214  -0.625   0.337  0.00  0.00    +0.228 C 
ATOM     17  C   UNL     1       2.348   0.082  -0.418  0.00  0.00    +0.275 C 
ATOM     18  O   UNL     1       2.339   1.465  -0.048  0.00  0.00    -0.485 OA
ATOM     19  C   UNL     1       1.130   2.089  -0.045  0.00  0.00    +0.162 A 
ATOM     20  C   UNL     1       1.079   3.475  -0.052  0.00  0.00    +0.049 A 
ATOM     21  C   UNL     1      -0.141   4.124  -0.045  0.00  0.00    +0.004 A 
ATOM     22  C   UNL     1      -1.315   3.393  -0.032  0.00  0.00    +0.004 A 
ATOM     23  C   UNL     1      -1.272   2.012  -0.032  0.00  0.00    +0.049 A 
ATOM     24  C   UNL     1      -0.050   1.355  -0.034  0.00  0.00    +0.163 A 
ATOM     25  O   UNL     1      -0.024  -0.006  -0.031  0.00  0.00    -0.480 OA
ENDBRANCH  15  16
ENDBRANCH   4  15
TORSDOF 4
