REMARK  Name = ZINC12880198
REMARK  8 active torsions:
REMARK  status: ('A' for Active; 'I' for Inactive)
REMARK    1  A    between atoms: C_1  and  C_2
REMARK    2  A    between atoms: C_7  and  N_8
REMARK    3  A    between atoms: N_8  and  C_9
REMARK    4  A    between atoms: C_9  and  C_10
REMARK    5  A    between atoms: N_12  and  C_13
REMARK    6  A    between atoms: C_18  and  C_20
REMARK    7  A    between atoms: C_20  and  C_32
REMARK    8  A    between atoms: C_29  and  C_31
REMARK                            x       y       z     vdW  Elec       q    Type
REMARK                         _______ _______ _______ _____ _____    ______ ____
ROOT
ATOM      1  N   UNL     1      -0.406   0.453   2.224  0.00  0.00    -0.261 N 
ATOM      2  C   UNL     1      -1.248  -0.077   3.133  0.00  0.00    +0.244 C 
ATOM      3  O   UNL     1      -2.071  -0.900   2.791  0.00  0.00    -0.273 OA
ENDROOT
BRANCH   2   4
ATOM      4  C   UNL     1      -1.167   0.352   4.576  0.00  0.00    +0.122 C 
ATOM      5  C   UNL     1      -1.450   1.856   4.682  0.00  0.00    +0.133 C 
ATOM      6  C   UNL     1      -1.118   2.304   6.085  0.00  0.00    +0.240 C 
ATOM      7  O   UNL     1      -1.777   3.178   6.616  0.00  0.00    -0.274 OA
ATOM      8  N   UNL     1      -0.113   1.746   6.737  0.00  0.00    -0.165 NA
ATOM      9  C   UNL     1       0.626   0.774   6.189  0.00  0.00    +0.119 C 
ATOM     10  N   UNL     1       0.183   0.093   5.092  0.00  0.00    -0.279 N 
ATOM     11  C   UNL     1       0.971  -0.828   4.486  0.00  0.00    +0.078 C 
ATOM     12  C   UNL     1       2.179  -1.156   5.007  0.00  0.00    +0.019 C 
ATOM     13  C   UNL     1       2.630  -0.531   6.174  0.00  0.00    -0.046 C 
ATOM     14  C   UNL     1       1.858   0.431   6.763  0.00  0.00    +0.044 C 
ATOM     15  C   UNL     1       3.957  -0.914   6.777  0.00  0.00    +0.044 C 
ATOM     16  C   UNL     1      -2.192  -0.427   5.402  0.00  0.00    +0.042 C 
ENDBRANCH   2   4
BRANCH   1  23
ATOM     17  C   UNL     1       1.639  -1.385   1.492  0.00  0.00    +0.045 C 
ATOM     18  C   UNL     1       0.585  -0.934   0.513  0.00  0.00    -0.029 A 
ATOM     19  C   UNL     1       0.590  -1.419  -0.780  0.00  0.00    +0.005 A 
ATOM     20  C   UNL     1      -0.376  -1.005  -1.678  0.00  0.00    +0.000 A 
ATOM     21  C   UNL     1      -1.351  -0.106  -1.285  0.00  0.00    +0.002 A 
ATOM     22  C   UNL     1      -1.362   0.382   0.007  0.00  0.00    +0.024 A 
ATOM     23  C   UNL     1      -0.395  -0.035   0.913  0.00  0.00    +0.040 A 
ENDBRANCH   1  23
BRANCH   1  24
ATOM     24  C   UNL     1       0.497   1.540   2.609  0.00  0.00    +0.209 C 
BRANCH  24  25
ATOM     25  C   UNL     1      -0.100   2.860   2.192  0.00  0.00    +0.231 C 
ATOM     26  O   UNL     1      -1.211   2.897   1.708  0.00  0.00    -0.274 OA
ATOM     27  N   UNL     1       0.602   3.999   2.359  0.00  0.00    -0.311 N 
ATOM     28  H   UNL     1       1.490   3.969   2.746  0.00  0.00    +0.149 HD
BRANCH  27  29
ATOM     29  C   UNL     1       0.022   5.282   1.954  0.00  0.00    +0.073 C 
ATOM     30  C   UNL     1       0.338   5.560   0.470  0.00  0.00    +0.022 C 
ATOM     31  C   UNL     1       0.586   7.088   0.415  0.00  0.00    +0.002 C 
ATOM     32  C   UNL     1       1.340   7.360   1.740  0.00  0.00    +0.002 C 
ATOM     33  C   UNL     1       0.659   6.426   2.761  0.00  0.00    +0.022 C 
ENDBRANCH  27  29
ENDBRANCH  24  25
ENDBRANCH   1  24
TORSDOF 5
