REMARK  Name = ZINC09456894
REMARK  12 active torsions:
REMARK  status: ('A' for Active; 'I' for Inactive)
REMARK    1  A    between atoms: C_1  and  C_2
REMARK    2  A    between atoms: C_2  and  O_3
REMARK    3  A    between atoms: O_3  and  C_4
REMARK    4  A    between atoms: C_7  and  C_9
REMARK    5  A    between atoms: C_9  and  S_10
REMARK    6  A    between atoms: S_10  and  C_11
REMARK    7  A    between atoms: C_14  and  C_15
REMARK    8  A    between atoms: C_18  and  C_21
REMARK    9  A    between atoms: C_21  and  C_22
REMARK   10  A    between atoms: C_21  and  C_23
REMARK   11  A    between atoms: N_26  and  C_27
REMARK   12  A    between atoms: C_30  and  C_33
REMARK                            x       y       z     vdW  Elec       q    Type
REMARK                         _______ _______ _______ _____ _____    ______ ____
ROOT
ATOM      1  C   UNL     1      -4.002   1.918   0.146  0.00  0.00    +0.169 C 
ATOM      2  N   UNL     1      -3.997   3.225   0.146  0.00  0.00    -0.220 NA
ATOM      3  C   UNL     1      -5.284   3.680   0.078  0.00  0.00    +0.129 C 
ATOM      4  C   UNL     1      -5.696   4.981   0.054  0.00  0.00    +0.041 C 
ATOM      5  C   UNL     1      -6.137   2.476   0.041  0.00  0.00    +0.275 C 
ATOM      6  O   UNL     1      -7.352   2.435  -0.017  0.00  0.00    -0.268 OA
ATOM      7  N   UNL     1      -5.285   1.429   0.086  0.00  0.00    -0.214 N 
ENDROOT
BRANCH   7   8
ATOM      8  C   UNL     1      -5.647   0.075   0.074  0.00  0.00    +0.044 A 
ATOM      9  C   UNL     1      -5.299  -0.729  -1.003  0.00  0.00    +0.024 A 
ATOM     10  C   UNL     1      -5.653  -2.064  -1.009  0.00  0.00    +0.005 A 
ATOM     11  C   UNL     1      -6.362  -2.598   0.051  0.00  0.00    -0.050 A 
ATOM     12  C   UNL     1      -6.715  -1.798   1.122  0.00  0.00    +0.005 A 
ATOM     13  C   UNL     1      -6.360  -0.464   1.137  0.00  0.00    +0.024 A 
ATOM     14  C   UNL     1      -6.752  -4.054   0.038  0.00  0.00    +0.044 C 
ENDBRANCH   7   8
BRANCH   4  15
ATOM     15  C   UNL     1      -4.708   6.062  -0.048  0.00  0.00    -0.023 A 
ATOM     16  C   UNL     1      -3.355   5.763  -0.252  0.00  0.00    +0.008 A 
ATOM     17  C   UNL     1      -2.435   6.784  -0.353  0.00  0.00    +0.004 A 
ATOM     18  C   UNL     1      -2.844   8.102  -0.241  0.00  0.00    -0.045 A 
ATOM     19  C   UNL     1      -4.178   8.407  -0.034  0.00  0.00    +0.004 A 
ATOM     20  C   UNL     1      -5.112   7.398   0.063  0.00  0.00    +0.008 A 
BRANCH  18  21
ATOM     21  C   UNL     1      -1.830   9.212  -0.346  0.00  0.00    +0.013 C 
ATOM     22  C   UNL     1      -0.782   9.052   0.758  0.00  0.00    +0.012 C 
ATOM     23  C   UNL     1      -1.144   9.149  -1.712  0.00  0.00    +0.012 C 
ENDBRANCH  18  21
ENDBRANCH   4  15
BRANCH   1  24
ATOM     24  S   UNL     1      -2.555   0.915   0.220  0.00  0.00    -0.080 S 
BRANCH  24  25
ATOM     25  C   UNL     1      -1.283   2.202   0.276  0.00  0.00    +0.173 C 
BRANCH  25  29
ATOM     26  C   UNL     1       2.402   1.755   0.445  0.00  0.00    +0.407 C 
ATOM     27  O   UNL     1       2.503   0.545   0.455  0.00  0.00    -0.226 OA
ATOM     28  N   UNL     1       1.184   2.329   0.389  0.00  0.00    -0.221 N 
ATOM     29  C   UNL     1       0.078   1.560   0.345  0.00  0.00    +0.232 C 
ATOM     30  O   UNL     1       0.179   0.352   0.355  0.00  0.00    -0.274 OA
ATOM     31  H   UNL     1       1.104   3.296   0.381  0.00  0.00    +0.161 HD
BRANCH  26  32
ATOM     32  O   UNL     1       3.507   2.523   0.490  0.00  0.00    -0.450 OA
BRANCH  32  34
ATOM     33  C   UNL     1       5.915   2.867   0.593  0.00  0.00    +0.048 C 
ATOM     34  C   UNL     1       4.785   1.837   0.548  0.00  0.00    +0.230 C 
ENDBRANCH  32  34
ENDBRANCH  26  32
ENDBRANCH  25  29
ENDBRANCH  24  25
ENDBRANCH   1  24
TORSDOF 8
