REMARK  Name = ZINC28631900
REMARK  11 active torsions:
REMARK  status: ('A' for Active; 'I' for Inactive)
REMARK    1  A    between atoms: C_1  and  C_2
REMARK    2  A    between atoms: C_6  and  C_8
REMARK    3  A    between atoms: N_10  and  C_11
REMARK    4  A    between atoms: C_11  and  C_12
REMARK    5  A    between atoms: C_11  and  C_15
REMARK    6  A    between atoms: C_12  and  C_13
REMARK    7  A    between atoms: C_12  and  C_14
REMARK    8  A    between atoms: N_17  and  N_18
REMARK    9  A    between atoms: N_18  and  C_19
REMARK   10  A    between atoms: C_19  and  N_21
REMARK   11  A    between atoms: N_21  and  C_22
REMARK                            x       y       z     vdW  Elec       q    Type
REMARK                         _______ _______ _______ _____ _____    ______ ____
ROOT
ATOM      1  C   UNL     1       0.658  -6.303   3.466  0.00  0.00    +0.250 C 
ATOM      2  O   UNL     1       1.148  -6.588   2.394  0.00  0.00    -0.272 OA
ATOM      3  N   UNL     1       0.629  -7.215   4.458  0.00  0.00    -0.234 N 
ATOM      4  H   UNL     1       0.303  -6.966   5.337  0.00  0.00    +0.173 HD
ENDROOT
BRANCH   3   5
ATOM      5  N   UNL     1       1.069  -8.524   4.219  0.00  0.00    -0.246 N 
ATOM      6  H   UNL     1       1.395  -8.773   3.340  0.00  0.00    +0.172 HD
BRANCH   5   7
ATOM      7  C   UNL     1       1.041  -9.436   5.210  0.00  0.00    +0.147 C 
ATOM      8  S   UNL     1       1.579 -11.035   4.918  0.00  0.00    -0.017 S 
BRANCH   7   9
ATOM      9  N   UNL     1       0.588  -9.090   6.431  0.00  0.00    -0.323 N 
ATOM     10  H   UNL     1       0.283  -8.184   6.597  0.00  0.00    +0.148 HD
BRANCH   9  11
ATOM     11  C   UNL     1       0.557 -10.082   7.509  0.00  0.00    +0.072 C 
ATOM     12  C   UNL     1      -0.739 -10.892   7.420  0.00  0.00    +0.022 C 
ATOM     13  C   UNL     1      -0.771 -11.927   8.545  0.00  0.00    +0.002 C 
ATOM     14  C   UNL     1      -0.708 -11.214   9.897  0.00  0.00    +0.000 C 
ATOM     15  C   UNL     1       0.587 -10.404   9.986  0.00  0.00    +0.002 C 
ATOM     16  C   UNL     1       0.620  -9.368   8.861  0.00  0.00    +0.022 C 
ENDBRANCH   9  11
ENDBRANCH   7   9
ENDBRANCH   5   7
ENDBRANCH   3   5
BRANCH   1  17
ATOM     17  C   UNL     1       0.081  -4.929   3.690  0.00  0.00    +0.163 C 
BRANCH  17  20
ATOM     18  C   UNL     1       0.689  -2.681   2.971  0.00  0.00    +0.245 C 
ATOM     19  O   UNL     1       0.280  -2.262   4.036  0.00  0.00    -0.270 OA
ATOM     20  N   UNL     1       0.633  -4.000   2.700  0.00  0.00    -0.300 N 
ATOM     21  H   UNL     1       0.959  -4.335   1.850  0.00  0.00    +0.150 HD
BRANCH  18  27
ATOM     22  C   UNL     1       1.888   1.968   1.610  0.00  0.00    +0.044 C 
ATOM     23  C   UNL     1       1.824   0.491   1.313  0.00  0.00    -0.050 A 
ATOM     24  C   UNL     1       2.288   0.011   0.101  0.00  0.00    +0.003 A 
ATOM     25  C   UNL     1       2.234  -1.343  -0.180  0.00  0.00    +0.001 A 
ATOM     26  C   UNL     1       1.715  -2.223   0.748  0.00  0.00    +0.013 A 
ATOM     27  C   UNL     1       1.246  -1.744   1.972  0.00  0.00    +0.037 A 
ATOM     28  C   UNL     1       1.309  -0.378   2.251  0.00  0.00    +0.016 A 
ENDBRANCH  18  27
ENDBRANCH  17  20
BRANCH  17  29
ATOM     29  C   UNL     1      -1.441  -4.984   3.544  0.00  0.00    +0.012 C 
ATOM     30  C   UNL     1      -2.036  -3.617   3.885  0.00  0.00    +0.009 C 
ATOM     31  C   UNL     1      -1.802  -5.353   2.103  0.00  0.00    +0.009 C 
ENDBRANCH  17  29
ENDBRANCH   1  17
TORSDOF 8
