REMARK  Name = ZINC21107875
REMARK  5 active torsions:
REMARK  status: ('A' for Active; 'I' for Inactive)
REMARK    1  A    between atoms: C_1  and  C_2
REMARK    2  A    between atoms: C_5  and  N_8
REMARK    3  A    between atoms: C_9  and  N_19
REMARK    4  A    between atoms: N_19  and  C_20
REMARK    5  A    between atoms: C_22  and  N_27
REMARK                            x       y       z     vdW  Elec       q    Type
REMARK                         _______ _______ _______ _____ _____    ______ ____
ROOT
ATOM      1  N   UNL     1       2.707   2.944  -0.453  0.00  0.00    -0.243 N 
ATOM      2  C   UNL     1       1.903   3.994   0.181  0.00  0.00    +0.217 C 
ATOM      3  C   UNL     1       0.604   3.344   0.592  0.00  0.00    +0.092 A 
ATOM      4  C   UNL     1       0.697   2.006   0.201  0.00  0.00    +0.062 A 
ATOM      5  C   UNL     1      -0.380   1.152   0.458  0.00  0.00    +0.016 A 
ATOM      6  C   UNL     1      -1.495   1.677   1.089  0.00  0.00    +0.020 A 
ATOM      7  C   UNL     1      -1.506   3.012   1.449  0.00  0.00    +0.111 A 
ATOM      8  N   UNL     1      -0.474   3.795   1.193  0.00  0.00    -0.256 NA
ATOM      9  C   UNL     1       2.007   1.797  -0.441  0.00  0.00    +0.254 C 
ATOM     10  O   UNL     1       2.398   0.738  -0.892  0.00  0.00    -0.270 OA
ENDROOT
BRANCH   1  15
ATOM     11  C   UNL     1       7.911   3.614  -2.608  0.00  0.00    +0.044 C 
ATOM     12  C   UNL     1       6.529   3.436  -2.036  0.00  0.00    -0.050 A 
ATOM     13  C   UNL     1       5.973   2.173  -1.955  0.00  0.00    +0.005 A 
ATOM     14  C   UNL     1       4.706   2.006  -1.431  0.00  0.00    +0.024 A 
ATOM     15  C   UNL     1       3.990   3.109  -0.984  0.00  0.00    +0.039 A 
ATOM     16  C   UNL     1       4.549   4.378  -1.072  0.00  0.00    +0.024 A 
ATOM     17  C   UNL     1       5.819   4.537  -1.593  0.00  0.00    +0.005 A 
ENDBRANCH   1  15
BRANCH   2  18
ATOM     18  N   UNL     1       2.599   4.517   1.360  0.00  0.00    -0.318 N 
ATOM     19  H   UNL     1       2.696   3.896   2.262  0.00  0.00    +0.148 HD
BRANCH  18  20
ATOM     20  C   UNL     1       3.140   5.807   1.338  0.00  0.00    +0.067 A 
ATOM     21  C   UNL     1       2.880   6.652   0.268  0.00  0.00    +0.058 A 
ATOM     22  C   UNL     1       3.410   7.928   0.252  0.00  0.00    +0.128 A 
ATOM     23  C   UNL     1       4.211   8.359   1.293  0.00  0.00    +0.035 A 
ATOM     24  C   UNL     1       4.478   7.519   2.358  0.00  0.00    +0.042 A 
ATOM     25  C   UNL     1       3.945   6.243   2.385  0.00  0.00    +0.144 A 
ATOM     26  F   UNL     1       4.206   5.422   3.425  0.00  0.00    -0.204 F 
BRANCH  22  27
ATOM     27  N   UNL     1       3.127   8.831  -0.886  0.00  0.00    +0.056 N 
ATOM     28  O   UNL     1       3.599   9.954  -0.904  0.00  0.00    -0.126 OA
ATOM     29  O   UNL     1       2.423   8.452  -1.804  0.00  0.00    -0.126 OA
ENDBRANCH  22  27
ENDBRANCH  18  20
ENDBRANCH   2  18
TORSDOF 4
