REMARK  Name = ZINC03359540
REMARK  7 active torsions:
REMARK  status: ('A' for Active; 'I' for Inactive)
REMARK    1  A    between atoms: C_1  and  C_2
REMARK    2  A    between atoms: C_2  and  C_4
REMARK    3  A    between atoms: C_2  and  S_23
REMARK    4  A    between atoms: N_6  and  C_7
REMARK    5  A    between atoms: C_9  and  C_19
REMARK    6  A    between atoms: C_12  and  N_13
REMARK    7  A    between atoms: S_23  and  C_24
REMARK                            x       y       z     vdW  Elec       q    Type
REMARK                         _______ _______ _______ _____ _____    ______ ____
ROOT
ATOM      1  C   UNL     1      -0.700   4.364   3.264  0.00  0.00    +0.055 A 
ATOM      2  C   UNL     1      -1.304   4.863   4.408  0.00  0.00    +0.037 A 
ATOM      3  C   UNL     1      -2.622   4.552   4.685  0.00  0.00    +0.057 A 
ATOM      4  C   UNL     1      -3.344   3.747   3.822  0.00  0.00    +0.014 A 
ATOM      5  C   UNL     1      -2.751   3.250   2.677  0.00  0.00    +0.025 A 
ATOM      6  C   UNL     1      -1.429   3.557   2.391  0.00  0.00    +0.051 A 
ENDROOT
BRANCH   6   7
ATOM      7  N   UNL     1      -0.827   3.054   1.232  0.00  0.00    -0.324 N 
ATOM      8  C   UNL     1      -0.752   1.587   1.272  0.00  0.00    +0.133 C 
ATOM      9  C   UNL     1      -0.035   1.083   0.016  0.00  0.00    +0.178 C 
ATOM     10  O   UNL     1      -0.724   1.560  -1.143  0.00  0.00    -0.377 OA
ATOM     11  C   UNL     1      -0.813   2.986  -1.214  0.00  0.00    +0.178 C 
ATOM     12  C   UNL     1      -1.538   3.508   0.029  0.00  0.00    +0.133 C 
ENDBRANCH   6   7
BRANCH   1  15
ATOM     13  C   UNL     1       1.477   5.004   3.985  0.00  0.00    +0.230 C 
ATOM     14  O   UNL     1       1.104   4.935   5.137  0.00  0.00    -0.274 OA
ATOM     15  N   UNL     1       0.638   4.674   2.983  0.00  0.00    -0.283 N 
ATOM     16  H   UNL     1       0.959   4.652   2.069  0.00  0.00    +0.155 HD
BRANCH  13  18
ATOM     17  C   UNL     1       3.759   4.238   3.389  0.00  0.00    +0.029 C 
ATOM     18  C   UNL     1       2.880   5.457   3.674  0.00  0.00    +0.136 C 
BRANCH  18  19
ATOM     19  S   UNL     1       3.550   6.368   5.092  0.00  0.00    -0.084 S 
BRANCH  19  20
ATOM     20  C   UNL     1       5.113   6.951   4.525  0.00  0.00    +0.161 A 
ATOM     21  N   UNL     1       5.695   6.779   3.353  0.00  0.00    -0.133 NA
ATOM     22  N   UNL     1       6.932   7.331   3.116  0.00  0.00    -0.125 NA
ATOM     23  C   UNL     1       7.536   8.021   4.064  0.00  0.00    +0.180 A 
ATOM     24  S   UNL     1       6.338   7.926   5.385  0.00  0.00    -0.025 S 
ATOM     25  N   UNL     1       8.774   8.651   4.041  0.00  0.00    -0.336 N 
ATOM     26  H   UNL     1       9.091   9.127   4.826  0.00  0.00    +0.144 HD
ATOM     27  H   UNL     1       9.322   8.617   3.241  0.00  0.00    +0.144 HD
ENDBRANCH  19  20
ENDBRANCH  18  19
ENDBRANCH  13  18
ENDBRANCH   1  15
BRANCH   3  28
ATOM     28  C   UNL     1      -3.275   5.090   5.932  0.00  0.00    +0.417 C 
ATOM     29  F   UNL     1      -4.599   4.643   5.996  0.00  0.00    -0.166 F 
ATOM     30  F   UNL     1      -2.575   4.639   7.057  0.00  0.00    -0.166 F 
ATOM     31  F   UNL     1      -3.256   6.489   5.902  0.00  0.00    -0.166 F 
ENDBRANCH   3  28
TORSDOF 6
