REMARK  Name = ZINC56810074
REMARK  4 active torsions:
REMARK  status: ('A' for Active; 'I' for Inactive)
REMARK    1  A    between atoms: C_6  and  C_11
REMARK    2  A    between atoms: C_11  and  C_12
REMARK    3  A    between atoms: C_12  and  C_13
REMARK    4  A    between atoms: C_18  and  C_21
REMARK                            x       y       z     vdW  Elec       q    Type
REMARK                         _______ _______ _______ _____ _____    ______ ____
ROOT
ATOM      1  C   UNL     1       6.791  -3.677   1.360  0.00  0.00    +0.220 C 
ATOM      2  O   UNL     1       7.312  -3.963   0.303  0.00  0.00    -0.275 OA
ATOM      3  N   UNL     1       7.393  -4.007   2.519  0.00  0.00    -0.255 N 
ATOM      4  C   UNL     1       8.610  -4.674   2.504  0.00  0.00    +0.221 A 
ATOM      5  N   UNL     1       9.308  -5.057   1.397  0.00  0.00    -0.308 N 
ATOM      6  C   UNL     1      10.441  -5.677   1.867  0.00  0.00    +0.181 A 
ATOM      7  N   UNL     1      10.382  -5.644   3.179  0.00  0.00    -0.126 NA
ATOM      8  N   UNL     1       9.306  -5.048   3.553  0.00  0.00    -0.113 NA
ATOM      9  H   UNL     1       6.976  -3.778   3.365  0.00  0.00    +0.158 HD
ATOM     10  H   UNL     1       9.057  -4.920   0.470  0.00  0.00    +0.170 HD
ENDROOT
BRANCH   6  11
ATOM     11  C   UNL     1      11.521  -6.269   1.050  0.00  0.00    +0.108 A 
ATOM     12  C   UNL     1      12.612  -6.873   1.678  0.00  0.00    +0.031 A 
ATOM     13  C   UNL     1      13.614  -7.423   0.900  0.00  0.00    +0.004 A 
ATOM     14  C   UNL     1      13.495  -7.353  -0.482  0.00  0.00    +0.020 A 
ATOM     15  C   UNL     1      12.388  -6.740  -1.038  0.00  0.00    +0.111 A 
ATOM     16  N   UNL     1      11.444  -6.228  -0.275  0.00  0.00    -0.252 NA
ENDBRANCH   6  11
BRANCH   1  17
ATOM     17  C   UNL     1       5.470  -2.953   1.377  0.00  0.00    +0.101 C 
BRANCH  17  18
ATOM     18  C   UNL     1       5.008  -2.700  -0.060  0.00  0.00    +0.044 C 
BRANCH  18  24
ATOM     19  C   UNL     1      -0.016   1.357   0.009  0.00  0.00    +0.001 A 
ATOM     20  C   UNL     1       1.169   2.091   0.002  0.00  0.00    +0.001 A 
ATOM     21  C   UNL     1       2.378   1.468  -0.013  0.00  0.00    +0.008 A 
ATOM     22  C   UNL     1       2.438   0.063  -0.021  0.00  0.00    -0.018 A 
ATOM     23  C   UNL     1       3.668  -0.615  -0.036  0.00  0.00    +0.012 A 
ATOM     24  C   UNL     1       3.687  -1.976  -0.043  0.00  0.00    -0.046 A 
ATOM     25  C   UNL     1       2.502  -2.710  -0.036  0.00  0.00    +0.004 A 
ATOM     26  C   UNL     1       1.292  -2.087  -0.021  0.00  0.00    +0.009 A 
ATOM     27  C   UNL     1       1.233  -0.683  -0.013  0.00  0.00    -0.018 A 
ATOM     28  C   UNL     1       0.002  -0.004   0.002  0.00  0.00    +0.008 A 
ENDBRANCH  18  24
ENDBRANCH  17  18
ENDBRANCH   1  17
TORSDOF 4
