REMARK  Name = ZINC00308139
REMARK  5 active torsions:
REMARK  status: ('A' for Active; 'I' for Inactive)
REMARK    1  A    between atoms: C_1  and  C_2
REMARK    2  A    between atoms: C_5  and  N_9
REMARK    3  A    between atoms: C_7  and  C_8
REMARK    4  A    between atoms: C_10  and  C_12
REMARK    5  A    between atoms: C_12  and  C_13
REMARK                            x       y       z     vdW  Elec       q    Type
REMARK                         _______ _______ _______ _____ _____    ______ ____
ROOT
ATOM      1  C   UNL     1      -0.134  -6.343  -1.187  0.00  0.00    +0.127 C 
ENDROOT
BRANCH   1   2
ATOM      2  C   UNL     1      -0.236  -6.847  -2.628  0.00  0.00    +0.166 C 
ATOM      3  C   UNL     1      -0.449  -8.340  -2.626  0.00  0.00    +0.238 C 
ATOM      4  O   UNL     1      -1.577  -8.785  -2.622  0.00  0.00    -0.273 OA
ATOM      5  N   UNL     1       0.600  -9.183  -2.629  0.00  0.00    -0.282 N 
ATOM      6  C   UNL     1       1.906  -8.704  -2.777  0.00  0.00    +0.055 A 
ATOM      7  C   UNL     1       2.992  -9.543  -2.579  0.00  0.00    +0.025 A 
ATOM      8  C   UNL     1       4.277  -9.051  -2.720  0.00  0.00    +0.002 A 
ATOM      9  C   UNL     1       4.485  -7.727  -3.057  0.00  0.00    +0.002 A 
ATOM     10  C   UNL     1       3.408  -6.883  -3.260  0.00  0.00    +0.025 A 
ATOM     11  C   UNL     1       2.119  -7.370  -3.125  0.00  0.00    +0.049 A 
ATOM     12  N   UNL     1       1.009  -6.540  -3.346  0.00  0.00    -0.331 N 
ATOM     13  H   UNL     1       0.448 -10.136  -2.527  0.00  0.00    +0.155 HD
ATOM     14  H   UNL     1       1.060  -5.787  -3.956  0.00  0.00    +0.147 HD
ENDBRANCH   1   2
BRANCH   1  16
ATOM     15  N   UNL     1       0.059  -4.170  -0.021  0.00  0.00    -0.285 N 
ATOM     16  C   UNL     1      -0.040  -4.839  -1.187  0.00  0.00    +0.219 C 
ATOM     17  O   UNL     1      -0.054  -4.230  -2.236  0.00  0.00    -0.275 OA
ATOM     18  H   UNL     1       0.147  -4.658   0.812  0.00  0.00    +0.155 HD
BRANCH  15  23
ATOM     19  C   UNL     1      -0.041   1.502   0.014  0.00  0.00    +0.044 C 
ATOM     20  C   UNL     1      -0.015  -0.004   0.004  0.00  0.00    -0.047 A 
ATOM     21  C   UNL     1      -0.752  -0.702  -0.935  0.00  0.00    +0.005 A 
ATOM     22  C   UNL     1      -0.730  -2.082  -0.946  0.00  0.00    +0.023 A 
ATOM     23  C   UNL     1       0.034  -2.771  -0.013  0.00  0.00    +0.034 A 
ATOM     24  C   UNL     1       0.773  -2.068   0.929  0.00  0.00    +0.027 A 
ATOM     25  C   UNL     1       0.751  -0.686   0.932  0.00  0.00    -0.046 A 
ATOM     26  C   UNL     1       1.557   0.078   1.950  0.00  0.00    +0.044 C 
ENDBRANCH  15  23
ENDBRANCH   1  16
TORSDOF 3
