REMARK  Name = ZINC19314145
REMARK  6 active torsions:
REMARK  status: ('A' for Active; 'I' for Inactive)
REMARK    1  A    between atoms: C_1  and  C_2
REMARK    2  A    between atoms: C_2  and  C_3
REMARK    3  A    between atoms: C_2  and  C_4
REMARK    4  A    between atoms: C_2  and  C_5
REMARK    5  A    between atoms: C_12  and  C_14
REMARK    6  A    between atoms: C_12  and  N_18
REMARK                            x       y       z     vdW  Elec       q    Type
REMARK                         _______ _______ _______ _____ _____    ______ ____
ROOT
ATOM      1  C   UNL     1       0.002  -0.004   0.002  0.00  0.00    -0.038 A 
ATOM      2  C   UNL     1       1.209  -0.677  -0.013  0.00  0.00    +0.008 A 
ATOM      3  C   UNL     1       1.233  -2.060  -0.020  0.00  0.00    +0.050 A 
ATOM      4  C   UNL     1       0.046  -2.774  -0.012  0.00  0.00    +0.168 A 
ATOM      5  C   UNL     1      -1.170  -2.095   0.003  0.00  0.00    +0.169 A 
ATOM      6  C   UNL     1      -1.186  -0.710   0.015  0.00  0.00    +0.053 A 
ATOM      7  O   UNL     1      -2.181  -3.012   0.009  0.00  0.00    -0.432 OA
ATOM      8  C   UNL     1      -1.580  -4.250  -0.415  0.00  0.00    +0.363 C 
ATOM      9  O   UNL     1      -0.203  -4.116  -0.016  0.00  0.00    -0.432 OA
ENDROOT
BRANCH   1  11
ATOM     10  C   UNL     1       1.417   2.032  -0.001  0.00  0.00    +0.015 C 
ATOM     11  C   UNL     1      -0.018   1.503   0.010  0.00  0.00    -0.013 C 
ATOM     12  C   UNL     1      -0.758   2.010  -1.229  0.00  0.00    +0.015 C 
ATOM     13  C   UNL     1      -0.735   1.996   1.269  0.00  0.00    +0.015 C 
ENDBRANCH   1  11
BRANCH   8  14
ATOM     14  C   UNL     1      -2.233  -5.437   0.297  0.00  0.00    +0.283 C 
ATOM     15 CL   UNL     1      -2.125  -5.200   2.081  0.00  0.00    -0.074 Cl
ATOM     16 CL   UNL     1      -3.965  -5.552  -0.191  0.00  0.00    -0.074 Cl
ATOM     17 CL   UNL     1      -1.377  -6.957  -0.160  0.00  0.00    -0.074 Cl
ENDBRANCH   8  14
BRANCH   8  18
ATOM     18  N   UNL     1      -1.682  -4.405  -1.872  0.00  0.00    -0.255 NA
ATOM     19  H   UNL     1      -1.217  -5.355  -2.174  0.00  0.00    +0.125 HD
ATOM     20  H   UNL     1      -2.742  -4.405  -2.167  0.00  0.00    +0.125 HD
ENDBRANCH   8  18
TORSDOF 3
