REMARK  Name = ZINC33697644
REMARK  8 active torsions:
REMARK  status: ('A' for Active; 'I' for Inactive)
REMARK    1  A    between atoms: C_1  and  C_2
REMARK    2  A    between atoms: C_2  and  O_3
REMARK    3  A    between atoms: O_3  and  C_4
REMARK    4  A    between atoms: C_7  and  C_10
REMARK    5  A    between atoms: N_18  and  C_21
REMARK    6  A    between atoms: C_25  and  C_27
REMARK    7  A    between atoms: C_32  and  N_36
REMARK    8  A    between atoms: C_33  and  C_34
REMARK                            x       y       z     vdW  Elec       q    Type
REMARK                         _______ _______ _______ _____ _____    ______ ____
ROOT
ATOM      1  C   UNL     1      -2.001  -6.092  -0.011  0.00  0.00    +0.075 C 
ATOM      2  C   UNL     1      -2.752  -6.510   1.221  0.00  0.00    +0.110 C 
ATOM      3  C   UNL     1      -2.845  -8.068   1.229  0.00  0.00    +0.152 C 
ATOM      4  C   UNL     1      -3.192  -8.290   2.676  0.00  0.00    +0.240 C 
ATOM      5  O   UNL     1      -3.856  -9.195   3.134  0.00  0.00    -0.274 OA
ATOM      6  N   UNL     1      -2.611  -7.275   3.366  0.00  0.00    -0.209 N 
ATOM      7  C   UNL     1      -2.158  -6.277   2.573  0.00  0.00    +0.232 C 
ATOM      8  O   UNL     1      -1.421  -5.372   2.899  0.00  0.00    -0.274 OA
ATOM      9  S   UNL     1      -4.160  -8.461   0.048  0.00  0.00    -0.096 S 
ATOM     10  C   UNL     1      -3.675  -7.473  -1.340  0.00  0.00    +0.074 C 
ATOM     11  C   UNL     1      -2.765  -6.499  -1.242  0.00  0.00    +0.064 C 
ENDROOT
BRANCH   1  15
ATOM     12  C   UNL     1      -1.498  -1.848   0.006  0.00  0.00    +0.121 A 
ATOM     13  C   UNL     1      -0.388  -2.679  -0.003  0.00  0.00    +0.046 A 
ATOM     14  C   UNL     1      -0.553  -4.051  -0.008  0.00  0.00    +0.008 A 
ATOM     15  C   UNL     1      -1.823  -4.596  -0.005  0.00  0.00    -0.038 A 
ATOM     16  C   UNL     1      -2.932  -3.769   0.004  0.00  0.00    +0.008 A 
ATOM     17  C   UNL     1      -2.772  -2.397   0.016  0.00  0.00    +0.046 A 
BRANCH  12  18
ATOM     18  O   UNL     1      -1.339  -0.499   0.012  0.00  0.00    -0.492 OA
BRANCH  18  20
ATOM     19  C   UNL     1      -0.019   1.526   0.010  0.00  0.00    +0.048 C 
ATOM     20  C   UNL     1       0.002  -0.004   0.002  0.00  0.00    +0.225 C 
ENDBRANCH  18  20
ENDBRANCH  12  18
ENDBRANCH   1  15
BRANCH   6  21
ATOM     21  C   UNL     1      -2.486  -7.268   4.762  0.00  0.00    +0.044 A 
ATOM     22  C   UNL     1      -1.886  -6.191   5.401  0.00  0.00    +0.024 A 
ATOM     23  C   UNL     1      -1.764  -6.188   6.777  0.00  0.00    +0.002 A 
ATOM     24  C   UNL     1      -2.238  -7.255   7.518  0.00  0.00    +0.012 A 
ATOM     25  C   UNL     1      -2.836  -8.328   6.884  0.00  0.00    +0.057 A 
ATOM     26  C   UNL     1      -2.966  -8.335   5.509  0.00  0.00    +0.036 A 
BRANCH  25  27
ATOM     27  C   UNL     1      -3.352  -9.489   7.695  0.00  0.00    +0.417 C 
ATOM     28  F   UNL     1      -3.113  -9.252   9.053  0.00  0.00    -0.166 F 
ATOM     29  F   UNL     1      -4.727  -9.633   7.481  0.00  0.00    -0.166 F 
ATOM     30  F   UNL     1      -2.694 -10.660   7.303  0.00  0.00    -0.166 F 
ENDBRANCH  25  27
ENDBRANCH   6  21
BRANCH  10  31
ATOM     31  N   UNL     1      -4.271  -7.702  -2.558  0.00  0.00    -0.352 N 
ATOM     32  H   UNL     1      -4.944  -8.395  -2.646  0.00  0.00    +0.143 HD
ATOM     33  H   UNL     1      -4.018  -7.171  -3.329  0.00  0.00    +0.143 HD
ENDBRANCH  10  31
BRANCH  11  34
ATOM     34  C   UNL     1      -2.470  -5.783  -2.446  0.00  0.00    +0.098 C 
ATOM     35  N   UNL     1      -2.237  -5.214  -3.401  0.00  0.00    -0.191 NA
ENDBRANCH  11  34
TORSDOF 7
