REMARK  Name = ZINC21375980
REMARK  11 active torsions:
REMARK  status: ('A' for Active; 'I' for Inactive)
REMARK    1  A    between atoms: C_1  and  C_2
REMARK    2  A    between atoms: C_2  and  C_4
REMARK    3  A    between atoms: C_2  and  N_14
REMARK    4  A    between atoms: C_7  and  C_10
REMARK    5  A    between atoms: C_10  and  C_11
REMARK    6  A    between atoms: C_11  and  C_12
REMARK    7  A    between atoms: C_11  and  C_13
REMARK    8  A    between atoms: C_15  and  C_17
REMARK    9  A    between atoms: C_17  and  N_18
REMARK   10  A    between atoms: C_21  and  C_25
REMARK   11  A    between atoms: C_21  and  C_26
REMARK                            x       y       z     vdW  Elec       q    Type
REMARK                         _______ _______ _______ _____ _____    ______ ____
ROOT
ATOM      1  N   UNL     1      -0.240  -1.150  -4.711  0.00  0.00    -0.215 N 
ATOM      2  C   UNL     1      -0.988  -2.230  -5.014  0.00  0.00    +0.251 C 
ATOM      3  O   UNL     1      -1.000  -3.297  -4.439  0.00  0.00    -0.272 OA
ATOM      4  C   UNL     1      -1.811  -1.831  -6.223  0.00  0.00    +0.135 C 
ATOM      5  N   UNL     1      -1.392  -0.444  -6.485  0.00  0.00    -0.281 N 
ATOM      6  C   UNL     1      -0.477  -0.134  -5.549  0.00  0.00    +0.310 C 
ATOM      7  O   UNL     1       0.074   0.946  -5.474  0.00  0.00    -0.252 OA
ATOM      8  C   UNL     1      -1.482  -2.728  -7.418  0.00  0.00    +0.047 C 
ATOM      9  H   UNL     1      -1.716   0.135  -7.193  0.00  0.00    +0.152 HD
ENDROOT
BRANCH   4  10
ATOM     10  C   UNL     1      -3.283  -1.890  -5.904  0.00  0.00    -0.015 A 
ATOM     11  C   UNL     1      -3.752  -2.790  -4.966  0.00  0.00    +0.006 A 
ATOM     12  C   UNL     1      -5.102  -2.842  -4.675  0.00  0.00    +0.004 A 
ATOM     13  C   UNL     1      -5.987  -1.995  -5.321  0.00  0.00    -0.044 A 
ATOM     14  C   UNL     1      -5.517  -1.095  -6.259  0.00  0.00    -0.044 A 
ATOM     15  C   UNL     1      -4.163  -1.040  -6.545  0.00  0.00    +0.010 A 
ATOM     16  C   UNL     1      -6.671  -0.289  -6.818  0.00  0.00    +0.036 C 
ATOM     17  C   UNL     1      -7.938  -1.088  -6.446  0.00  0.00    +0.009 C 
ATOM     18  C   UNL     1      -7.488  -1.856  -5.185  0.00  0.00    +0.036 C 
ENDBRANCH   4  10
BRANCH   1  19
ATOM     19  C   UNL     1       0.712  -1.094  -3.598  0.00  0.00    +0.213 C 
BRANCH  19  21
ATOM     20  N   UNL     1       0.688  -0.476  -1.203  0.00  0.00    -0.307 N 
ATOM     21  C   UNL     1       0.006  -0.608  -2.358  0.00  0.00    +0.231 C 
ATOM     22  O   UNL     1      -1.175  -0.336  -2.400  0.00  0.00    -0.274 OA
ATOM     23  H   UNL     1       1.632  -0.695  -1.170  0.00  0.00    +0.149 HD
BRANCH  20  25
ATOM     24  C   UNL     1      -0.019   1.526   0.010  0.00  0.00    +0.033 C 
ATOM     25  C   UNL     1       0.002  -0.004   0.002  0.00  0.00    +0.100 C 
BRANCH  25  26
ATOM     26  C   UNL     1       0.731  -0.503   1.223  0.00  0.00    -0.027 A 
ATOM     27  C   UNL     1       2.113  -0.514   1.247  0.00  0.00    +0.006 A 
ATOM     28  C   UNL     1       2.782  -0.972   2.366  0.00  0.00    +0.004 A 
ATOM     29  C   UNL     1       2.068  -1.419   3.463  0.00  0.00    -0.047 A 
ATOM     30  C   UNL     1       0.686  -1.407   3.439  0.00  0.00    +0.004 A 
ATOM     31  C   UNL     1       0.017  -0.945   2.321  0.00  0.00    +0.006 A 
BRANCH  29  32
ATOM     32  C   UNL     1       2.797  -1.919   4.683  0.00  0.00    +0.038 C 
BRANCH  32  33
ATOM     33  C   UNL     1       3.046  -0.753   5.642  0.00  0.00    -0.013 C 
ATOM     34  C   UNL     1       1.707  -0.223   6.159  0.00  0.00    +0.007 C 
ATOM     35  C   UNL     1       3.893  -1.234   6.822  0.00  0.00    +0.007 C 
ENDBRANCH  32  33
ENDBRANCH  29  32
ENDBRANCH  25  26
ENDBRANCH  20  25
ENDBRANCH  19  21
ENDBRANCH   1  19
TORSDOF 7
