REMARK  Name = ZINC13739313
REMARK  2 active torsions:
REMARK  status: ('A' for Active; 'I' for Inactive)
REMARK    1  A    between atoms: C_4  and  C_7
REMARK    2  A    between atoms: C_10  and  N_12
REMARK                            x       y       z     vdW  Elec       q    Type
REMARK                         _______ _______ _______ _____ _____    ______ ____
ROOT
ATOM      1  C   UNL     1       4.032  -1.470   0.812  0.00  0.00    +0.080 A 
ATOM      2  C   UNL     1       3.554  -1.650  -0.458  0.00  0.00    +0.077 A 
ATOM      3  S   UNL     1       4.940  -1.062  -1.422  0.00  0.00    -0.056 S 
ATOM      4  C   UNL     1       6.004  -0.641  -0.049  0.00  0.00    +0.194 A 
ATOM      5  N   UNL     1       5.242  -0.965   0.985  0.00  0.00    -0.221 NA
ENDROOT
BRANCH   4   6
ATOM      6  N   UNL     1       7.263  -0.119  -0.062  0.00  0.00    -0.211 NA
ATOM      7  C   UNL     1       8.298  -0.910   0.020  0.00  0.00    +0.098 C 
ATOM      8  C   UNL     1       8.107  -2.425   0.001  0.00  0.00    +0.071 C 
ATOM      9  C   UNL     1       8.660  -2.932  -1.313  0.00  0.00    +0.007 C 
ATOM     10  C   UNL     1      10.153  -3.263  -1.258  0.00  0.00    +0.002 C 
ATOM     11  C   UNL     1      10.970  -2.215  -0.501  0.00  0.00    +0.019 C 
ATOM     12  C   UNL     1      10.572  -0.794  -0.834  0.00  0.00    +0.102 C 
ATOM     13  N   UNL     1       9.507  -0.405   0.114  0.00  0.00    -0.332 N 
ATOM     14  H   UNL     1       9.707   0.233   0.817  0.00  0.00    +0.147 HD
ENDBRANCH   4   6
BRANCH   1  18
ATOM     15  C   UNL     1       1.639  -2.507   4.170  0.00  0.00    +0.000 A 
ATOM     16  C   UNL     1       2.904  -1.981   4.361  0.00  0.00    +0.001 A 
ATOM     17  C   UNL     1       3.685  -1.643   3.275  0.00  0.00    +0.010 A 
ATOM     18  C   UNL     1       3.197  -1.832   1.983  0.00  0.00    +0.001 A 
ATOM     19  C   UNL     1       1.922  -2.363   1.796  0.00  0.00    +0.010 A 
ATOM     20  C   UNL     1       1.149  -2.697   2.890  0.00  0.00    +0.001 A 
ENDBRANCH   1  18
TORSDOF 2
