REMARK  Name = ZINC63122569
REMARK  7 active torsions:
REMARK  status: ('A' for Active; 'I' for Inactive)
REMARK    1  A    between atoms: C_1  and  C_2
REMARK    2  A    between atoms: N_4  and  C_5
REMARK    3  A    between atoms: C_5  and  C_7
REMARK    4  A    between atoms: C_5  and  C_17
REMARK    5  A    between atoms: C_7  and  C_8
REMARK    6  A    between atoms: C_22  and  C_25
REMARK    7  A    between atoms: C_25  and  N_26
REMARK                            x       y       z     vdW  Elec       q    Type
REMARK                         _______ _______ _______ _____ _____    ______ ____
ROOT
ATOM      1  C   UNL     1      -0.431  -2.645  -1.239  0.00  0.00    +0.239 C 
ATOM      2  O   UNL     1       0.315  -1.903  -1.842  0.00  0.00    -0.273 OA
ATOM      3  N   UNL     1      -0.628  -3.904  -1.677  0.00  0.00    -0.263 N 
ATOM      4  C   UNL     1       0.022  -4.352  -2.820  0.00  0.00    +0.165 A 
ATOM      5  N   UNL     1      -0.053  -5.534  -3.393  0.00  0.00    -0.231 NA
ATOM      6  C   UNL     1       0.635  -5.807  -4.487  0.00  0.00    +0.034 A 
ATOM      7  C   UNL     1       1.415  -4.817  -4.987  0.00  0.00    +0.070 A 
ATOM      8  S   UNL     1       1.091  -3.512  -3.812  0.00  0.00    -0.060 S 
ATOM      9  H   UNL     1      -1.225  -4.497  -1.194  0.00  0.00    +0.157 HD
ENDROOT
BRANCH   1  10
ATOM     10  C   UNL     1      -1.136  -2.159   0.001  0.00  0.00    +0.163 C 
BRANCH  10  14
ATOM     11  C   UNL     1      -0.018   1.503   0.010  0.00  0.00    +0.109 C 
ATOM     12  C   UNL     1       0.002  -0.004   0.002  0.00  0.00    +0.211 C 
ATOM     13  O   UNL     1       1.060  -0.596  -0.011  0.00  0.00    -0.276 OA
ATOM     14  N   UNL     1      -1.156  -0.694   0.009  0.00  0.00    -0.304 N 
ATOM     15  H   UNL     1      -2.002  -0.220   0.020  0.00  0.00    +0.149 HD
ENDBRANCH  10  14
BRANCH  10  16
ATOM     16  C   UNL     1      -0.396  -2.665   1.241  0.00  0.00    +0.065 C 
BRANCH  16  17
ATOM     17  C   UNL     1      -1.168  -2.284   2.478  0.00  0.00    -0.039 C 
ATOM     18  C   UNL     1      -2.060  -3.049   3.148  0.00  0.00    -0.001 A 
ATOM     19  C   UNL     1      -2.559  -4.412   2.933  0.00  0.00    +0.010 A 
ATOM     20  C   UNL     1      -3.473  -4.919   3.793  0.00  0.00    +0.001 A 
ATOM     21  C   UNL     1      -3.953  -4.176   4.880  0.00  0.00    +0.002 A 
ATOM     22  C   UNL     1      -3.541  -2.917   5.143  0.00  0.00    +0.026 A 
ATOM     23  C   UNL     1      -2.582  -2.286   4.304  0.00  0.00    +0.043 A 
ATOM     24  N   UNL     1      -2.034  -1.095   4.346  0.00  0.00    -0.380 N 
ATOM     25  C   UNL     1      -1.097  -0.971   3.225  0.00  0.00    +0.144 C 
ATOM     26  H   UNL     1      -2.216  -0.412   5.011  0.00  0.00    +0.160 HD
ENDBRANCH  16  17
ENDBRANCH  10  16
ENDBRANCH   1  10
BRANCH   6  27
ATOM     27  C   UNL     1       0.556  -7.158  -5.149  0.00  0.00    -0.022 C 
BRANCH  27  28
ATOM     28  N   UNL     1       1.506  -8.075  -4.507  0.00  0.00    +0.383 N 
ATOM     29  C   UNL     1       2.871  -7.538  -4.678  0.00  0.00    -0.078 C 
ATOM     30  C   UNL     1       3.736  -8.085  -3.570  0.00  0.00    -0.019 C 
ATOM     31  C   UNL     1       4.514  -9.333  -4.027  0.00  0.00    -0.002 C 
ATOM     32  C   UNL     1       3.644 -10.264  -4.895  0.00  0.00    -0.002 C 
ATOM     33  C   UNL     1       2.239 -10.396  -4.365  0.00  0.00    -0.019 C 
ATOM     34  C   UNL     1       1.340  -9.348  -5.054  0.00  0.00    -0.078 C 
ATOM     35  H   UNL     1       1.298  -8.117  -3.520  0.00  0.00    -0.081 HD
ENDBRANCH  27  28
ENDBRANCH   6  27
TORSDOF 6
