REMARK  Name = ZINC38649282
REMARK  12 active torsions:
REMARK  status: ('A' for Active; 'I' for Inactive)
REMARK    1  A    between atoms: C_1  and  C_2
REMARK    2  A    between atoms: C_2  and  C_3
REMARK    3  A    between atoms: C_6  and  O_9
REMARK    4  A    between atoms: O_9  and  C_10
REMARK    5  A    between atoms: C_10  and  C_12
REMARK    6  A    between atoms: C_10  and  C_13
REMARK    7  A    between atoms: C_13  and  O_15
REMARK    8  A    between atoms: O_15  and  C_16
REMARK    9  A    between atoms: C_23  and  N_36
REMARK   10  A    between atoms: C_24  and  C_34
REMARK   11  A    between atoms: C_25  and  C_27
REMARK   12  A    between atoms: C_30  and  C_33
REMARK                            x       y       z     vdW  Elec       q    Type
REMARK                         _______ _______ _______ _____ _____    ______ ____
ROOT
ATOM      1  C   UNL     1       6.099  -1.568  -7.522  0.00  0.00    +0.135 A 
ATOM      2  C   UNL     1       5.111  -1.320  -8.465  0.00  0.00    +0.047 A 
ATOM      3  C   UNL     1       5.458  -1.041  -9.772  0.00  0.00    +0.012 A 
ATOM      4  C   UNL     1       6.790  -1.008 -10.148  0.00  0.00    +0.008 A 
ATOM      5  C   UNL     1       7.781  -1.254  -9.210  0.00  0.00    +0.138 A 
ATOM      6  C   UNL     1       7.433  -1.529  -7.894  0.00  0.00    +0.093 A 
ATOM      7  O   UNL     1       9.091  -1.226  -9.559  0.00  0.00    -0.441 OA
ATOM      8  C   UNL     1       9.443  -1.342 -10.851  0.00  0.00    +0.199 C 
ATOM      9  C   UNL     1       8.568  -1.108 -11.856  0.00  0.00    +0.098 C 
ATOM     10  C   UNL     1       7.148  -0.701 -11.578  0.00  0.00    +0.098 C 
ENDROOT
BRANCH  10  11
ATOM     11  C   UNL     1       6.994   0.778 -11.825  0.00  0.00    -0.035 A 
ATOM     12  C   UNL     1       7.743   1.682 -11.095  0.00  0.00    +0.005 A 
ATOM     13  C   UNL     1       7.602   3.038 -11.322  0.00  0.00    +0.003 A 
ATOM     14  C   UNL     1       6.713   3.490 -12.279  0.00  0.00    -0.050 A 
ATOM     15  C   UNL     1       5.965   2.586 -13.009  0.00  0.00    +0.003 A 
ATOM     16  C   UNL     1       6.109   1.230 -12.785  0.00  0.00    +0.005 A 
ATOM     17  C   UNL     1       6.559   4.969 -12.525  0.00  0.00    +0.044 C 
ENDBRANCH  10  11
BRANCH   8  18
ATOM     18  N   UNL     1      10.729  -1.710 -11.159  0.00  0.00    -0.328 N 
ATOM     19  H   UNL     1      11.368  -1.881 -10.450  0.00  0.00    +0.145 HD
ATOM     20  H   UNL     1      10.999  -1.799 -12.087  0.00  0.00    +0.145 HD
ENDBRANCH   8  18
BRANCH   9  21
ATOM     21  C   UNL     1       9.003  -1.249 -13.213  0.00  0.00    +0.101 C 
ATOM     22  N   UNL     1       9.349  -1.361 -14.289  0.00  0.00    -0.191 NA
ENDBRANCH   9  21
BRANCH   1  23
ATOM     23  O   UNL     1       5.759  -1.843  -6.236  0.00  0.00    -0.423 OA
BRANCH  23  24
ATOM     24  C   UNL     1       5.098  -2.985  -5.989  0.00  0.00    +0.353 C 
ATOM     25  O   UNL     1       4.904  -3.776  -6.881  0.00  0.00    -0.246 OA
BRANCH  24  26
ATOM     26  C   UNL     1       4.596  -3.280  -4.599  0.00  0.00    +0.279 C 
ATOM     27  C   UNL     1       5.778  -3.321  -3.628  0.00  0.00    +0.064 C 
BRANCH  26  28
ATOM     28  O   UNL     1       3.930  -4.545  -4.591  0.00  0.00    -0.478 OA
BRANCH  28  32
ATOM     29  C   UNL     1       0.717  -4.953  -2.035  0.00  0.00    -0.047 A 
ATOM     30  C   UNL     1       1.486  -3.804  -2.000  0.00  0.00    +0.007 A 
ATOM     31  C   UNL     1       2.562  -3.665  -2.855  0.00  0.00    +0.046 A 
ATOM     32  C   UNL     1       2.872  -4.679  -3.749  0.00  0.00    +0.122 A 
ATOM     33  C   UNL     1       2.100  -5.831  -3.782  0.00  0.00    +0.046 A 
ATOM     34  C   UNL     1       1.028  -5.968  -2.922  0.00  0.00    +0.007 A 
BRANCH  29  36
ATOM     35  C   UNL     1       0.008  -5.752   0.202  0.00  0.00    +0.009 C 
ATOM     36  C   UNL     1      -0.457  -5.102  -1.102  0.00  0.00    +0.032 C 
ENDBRANCH  29  36
ENDBRANCH  28  32
ENDBRANCH  26  28
ENDBRANCH  24  26
ENDBRANCH  23  24
ENDBRANCH   1  23
TORSDOF 9
