REMARK  Name = ZINC14666701
REMARK  10 active torsions:
REMARK  status: ('A' for Active; 'I' for Inactive)
REMARK    1  A    between atoms: C_1  and  C_2
REMARK    2  A    between atoms: C_2  and  C_3
REMARK    3  A    between atoms: C_2  and  C_4
REMARK    4  A    between atoms: C_2  and  C_5
REMARK    5  A    between atoms: C_10  and  O_11
REMARK    6  A    between atoms: O_11  and  C_12
REMARK    7  A    between atoms: C_12  and  C_13
REMARK    8  A    between atoms: N_15  and  N_16
REMARK    9  A    between atoms: C_17  and  C_19
REMARK   10  A    between atoms: C_24  and  N_25
REMARK                            x       y       z     vdW  Elec       q    Type
REMARK                         _______ _______ _______ _____ _____    ______ ____
ROOT
ATOM      1  C   UNL     1      -2.641   4.399  -1.871  0.00  0.00    +0.267 C 
ATOM      2  O   UNL     1      -3.605   3.694  -2.081  0.00  0.00    -0.271 OA
ATOM      3  N   UNL     1      -2.808   5.631  -1.350  0.00  0.00    -0.231 N 
ATOM      4  H   UNL     1      -2.037   6.195  -1.182  0.00  0.00    +0.173 HD
ENDROOT
BRANCH   3   5
ATOM      5  N   UNL     1      -4.095   6.097  -1.052  0.00  0.00    -0.230 N 
ATOM      6  C   UNL     1      -4.262   7.329  -0.531  0.00  0.00    +0.262 C 
ATOM      7  O   UNL     1      -3.296   8.036  -0.321  0.00  0.00    -0.269 OA
ATOM      8  H   UNL     1      -4.866   5.533  -1.220  0.00  0.00    +0.173 HD
BRANCH   6   9
ATOM      9  C   UNL     1      -5.620   7.821  -0.216  0.00  0.00    +0.068 A 
ATOM     10  C   UNL     1      -6.718   6.965  -0.325  0.00  0.00    +0.015 A 
ATOM     11  C   UNL     1      -7.982   7.429  -0.025  0.00  0.00    +0.001 A 
ATOM     12  C   UNL     1      -8.165   8.742   0.372  0.00  0.00    +0.002 A 
ATOM     13  C   UNL     1      -7.082   9.597   0.476  0.00  0.00    +0.033 A 
ATOM     14  C   UNL     1      -5.811   9.144   0.184  0.00  0.00    +0.138 A 
BRANCH  14  15
ATOM     15  N   UNL     1      -4.654  10.060   0.296  0.00  0.00    +0.057 N 
ATOM     16  O   UNL     1      -4.481  10.702   1.316  0.00  0.00    -0.126 OA
ATOM     17  O   UNL     1      -3.873  10.171  -0.633  0.00  0.00    -0.126 OA
ENDBRANCH  14  15
ENDBRANCH   6   9
ENDBRANCH   3   5
BRANCH   1  18
ATOM     18  C   UNL     1      -1.257   3.898  -2.192  0.00  0.00    +0.326 C 
BRANCH  18  19
ATOM     19  O   UNL     1      -1.341   2.576  -2.728  0.00  0.00    -0.482 OA
BRANCH  19  25
ATOM     20  C   UNL     1      -0.181   0.691  -3.599  0.00  0.00    -0.000 A 
ATOM     21  C   UNL     1       1.008   0.084  -3.954  0.00  0.00    +0.008 A 
ATOM     22  C   UNL     1       2.206   0.753  -3.784  0.00  0.00    +0.001 A 
ATOM     23  C   UNL     1       2.217   2.033  -3.260  0.00  0.00    +0.004 A 
ATOM     24  C   UNL     1       1.031   2.644  -2.903  0.00  0.00    +0.046 A 
ATOM     25  C   UNL     1      -0.172   1.974  -3.073  0.00  0.00    +0.125 A 
BRANCH  20  27
ATOM     26  C   UNL     1      -1.215  -1.423  -4.378  0.00  0.00    +0.015 C 
ATOM     27  C   UNL     1      -1.486  -0.039  -3.785  0.00  0.00    -0.009 C 
ATOM     28  C   UNL     1      -2.182  -0.192  -2.432  0.00  0.00    +0.015 C 
ATOM     29  C   UNL     1      -2.384   0.755  -4.735  0.00  0.00    +0.015 C 
ENDBRANCH  20  27
ENDBRANCH  19  25
ENDBRANCH  18  19
ENDBRANCH   1  18
TORSDOF 7
