REMARK  Name = ZINC38621100
REMARK  9 active torsions:
REMARK  status: ('A' for Active; 'I' for Inactive)
REMARK    1  A    between atoms: C_1  and  C_2
REMARK    2  A    between atoms: C_5  and  N_9
REMARK    3  A    between atoms: C_6  and  C_8
REMARK    4  A    between atoms: C_10  and  C_12
REMARK    5  A    between atoms: N_14  and  C_15
REMARK    6  A    between atoms: C_15  and  C_16
REMARK    7  A    between atoms: C_16  and  C_18
REMARK    8  A    between atoms: C_16  and  N_27
REMARK    9  A    between atoms: N_30  and  C_33
REMARK                            x       y       z     vdW  Elec       q    Type
REMARK                         _______ _______ _______ _____ _____    ______ ____
ROOT
ATOM      1  C   UNL     1       0.289  -8.618  -3.917  0.00  0.00    +0.104 C 
ENDROOT
BRANCH   1   2
ATOM      2  C   UNL     1       0.133 -10.114  -3.828  0.00  0.00    -0.025 A 
ATOM      3  C   UNL     1      -1.109 -10.664  -3.571  0.00  0.00    +0.009 A 
ATOM      4  C   UNL     1      -1.257 -12.036  -3.488  0.00  0.00    +0.050 A 
ATOM      5  C   UNL     1      -0.160 -12.864  -3.661  0.00  0.00    +0.166 A 
ATOM      6  C   UNL     1       1.092 -12.310  -3.919  0.00  0.00    +0.167 A 
ATOM      7  C   UNL     1       1.232 -10.934  -4.007  0.00  0.00    +0.054 A 
ATOM      8  O   UNL     1       1.999 -13.322  -4.049  0.00  0.00    -0.453 OA
ATOM      9  C   UNL     1       1.371 -14.478  -3.464  0.00  0.00    +0.466 C 
ATOM     10  O   UNL     1      -0.037 -14.223  -3.629  0.00  0.00    -0.453 OA
ENDBRANCH   1   2
BRANCH   1  11
ATOM     11  N   UNL     1      -0.865  -8.047  -4.625  0.00  0.00    -0.291 NA
ATOM     12  C   UNL     1      -1.048  -8.686  -5.935  0.00  0.00    +0.104 C 
ATOM     13  C   UNL     1      -2.359  -8.195  -6.560  0.00  0.00    +0.120 C 
ATOM     14  N   UNL     1      -2.345  -6.725  -6.581  0.00  0.00    -0.325 N 
ATOM     15  C   UNL     1      -2.032  -6.014  -5.332  0.00  0.00    +0.120 C 
ATOM     16  C   UNL     1      -0.735  -6.590  -4.756  0.00  0.00    +0.104 C 
BRANCH  14  17
ATOM     17  C   UNL     1      -2.621  -6.021  -7.758  0.00  0.00    +0.065 A 
ATOM     18  C   UNL     1      -3.926  -5.651  -8.056  0.00  0.00    +0.026 A 
ATOM     19  C   UNL     1      -4.196  -4.956  -9.219  0.00  0.00    +0.002 A 
ATOM     20  C   UNL     1      -3.170  -4.628 -10.086  0.00  0.00    +0.003 A 
ATOM     21  C   UNL     1      -1.869  -4.995  -9.793  0.00  0.00    +0.040 A 
ATOM     22  C   UNL     1      -1.590  -5.686  -8.628  0.00  0.00    +0.144 A 
ATOM     23  F   UNL     1      -0.319  -6.039  -8.339  0.00  0.00    -0.204 F 
ENDBRANCH  14  17
ENDBRANCH   1  11
BRANCH   1  24
ATOM     24  C   UNL     1       0.366  -8.028  -2.508  0.00  0.00    +0.128 C 
BRANCH  24  27
ATOM     25  C   UNL     1       1.805  -8.204  -0.550  0.00  0.00    +0.299 C 
ATOM     26  O   UNL     1       1.005  -7.528   0.063  0.00  0.00    -0.265 OA
ATOM     27  N   UNL     1       1.579  -8.511  -1.842  0.00  0.00    -0.306 N 
ATOM     28  H   UNL     1       2.218  -9.051  -2.332  0.00  0.00    +0.149 HD
BRANCH  25  30
ATOM     29  N   UNL     1       3.267  -8.390   1.422  0.00  0.00    -0.278 N 
ATOM     30  C   UNL     1       3.041  -8.697   0.129  0.00  0.00    +0.303 C 
ATOM     31  O   UNL     1       3.841  -9.373  -0.483  0.00  0.00    -0.265 OA
ATOM     32  H   UNL     1       2.596  -7.910   1.931  0.00  0.00    +0.155 HD
BRANCH  29  37
ATOM     33  C   UNL     1       8.146  -9.909   3.883  0.00  0.00    +0.044 C 
ATOM     34  C   UNL     1       6.850  -9.505   3.229  0.00  0.00    -0.050 A 
ATOM     35  C   UNL     1       6.287 -10.312   2.257  0.00  0.00    +0.005 A 
ATOM     36  C   UNL     1       5.099  -9.946   1.656  0.00  0.00    +0.024 A 
ATOM     37  C   UNL     1       4.469  -8.764   2.029  0.00  0.00    +0.037 A 
ATOM     38  C   UNL     1       5.037  -7.957   3.005  0.00  0.00    -0.029 A 
ATOM     39  C   UNL     1       6.223  -8.332   3.606  0.00  0.00    +0.008 A 
ATOM     40  C   UNL     1       4.358  -6.675   3.413  0.00  0.00    +0.045 C 
ENDBRANCH  29  37
ENDBRANCH  25  30
ENDBRANCH  24  27
ENDBRANCH   1  24
TORSDOF 7
