REMARK  Name = ZINC08771680
REMARK  3 active torsions:
REMARK  status: ('A' for Active; 'I' for Inactive)
REMARK    1  A    between atoms: C_6  and  N_7
REMARK    2  A    between atoms: C_12  and  C_14
REMARK    3  A    between atoms: C_14  and  N_16
REMARK                            x       y       z     vdW  Elec       q    Type
REMARK                         _______ _______ _______ _____ _____    ______ ____
ROOT
ATOM      1  N   UNL     1      -1.199  -0.721   0.010  0.00  0.00    -0.239 N 
ATOM      2  C   UNL     1      -1.144  -2.071  -0.097  0.00  0.00    +0.117 A 
ATOM      3  C   UNL     1      -2.276  -2.814  -0.095  0.00  0.00    +0.073 A 
ATOM      4  C   UNL     1      -3.515  -2.133   0.022  0.00  0.00    +0.212 A 
ATOM      5  O   UNL     1      -4.576  -2.739   0.032  0.00  0.00    -0.285 OA
ATOM      6  C   UNL     1      -3.468  -0.667   0.133  0.00  0.00    +0.194 A 
ATOM      7  N   UNL     1      -2.297  -0.069   0.122  0.00  0.00    -0.158 NA
ENDROOT
BRANCH   1  13
ATOM      8  C   UNL     1      -0.017   1.385  -0.037  0.00  0.00    +0.030 A 
ATOM      9  C   UNL     1       1.170   2.090  -0.045  0.00  0.00    +0.040 A 
ATOM     10  C   UNL     1       2.379   1.414  -0.013  0.00  0.00    +0.124 A 
ATOM     11  C   UNL     1       2.400   0.030   0.026  0.00  0.00    +0.040 A 
ATOM     12  C   UNL     1       1.216  -0.680   0.034  0.00  0.00    +0.030 A 
ATOM     13  C   UNL     1       0.002  -0.004   0.002  0.00  0.00    +0.066 A 
ATOM     14  F   UNL     1       3.539   2.107  -0.022  0.00  0.00    -0.205 F 
ENDBRANCH   1  13
BRANCH   6  15
ATOM     15  C   UNL     1      -4.715   0.119   0.258  0.00  0.00    +0.293 C 
ATOM     16  O   UNL     1      -5.795  -0.448   0.270  0.00  0.00    -0.266 OA
BRANCH  15  17
ATOM     17  N   UNL     1      -4.659   1.451   0.357  0.00  0.00    -0.151 NA
ATOM     18  C   UNL     1      -5.778   2.157   0.470  0.00  0.00    +0.164 A 
ATOM     19  N   UNL     1      -5.906   3.506   0.574  0.00  0.00    -0.335 N 
ATOM     20  H   UNL     1      -5.117   4.071   0.572  0.00  0.00    +0.168 HD
ATOM     21  C   UNL     1      -7.164   4.070   0.683  0.00  0.00    +0.055 A 
ATOM     22  C   UNL     1      -7.520   5.421   0.801  0.00  0.00    +0.029 A 
ATOM     23  C   UNL     1      -8.841   5.791   0.901  0.00  0.00    +0.040 A 
ATOM     24  C   UNL     1      -9.855   4.845   0.887  0.00  0.00    +0.125 A 
ATOM     25  C   UNL     1      -9.528   3.503   0.771  0.00  0.00    +0.055 A 
ATOM     26  C   UNL     1      -8.207   3.134   0.672  0.00  0.00    +0.041 A 
ATOM     27  S   UNL     1      -7.358   1.585   0.507  0.00  0.00    -0.052 S 
ATOM     28  F   UNL     1     -11.147   5.226   0.986  0.00  0.00    -0.205 F 
ENDBRANCH  15  17
ENDBRANCH   6  15
TORSDOF 3
