REMARK  Name = ZINC45367604
REMARK  6 active torsions:
REMARK  status: ('A' for Active; 'I' for Inactive)
REMARK    1  A    between atoms: C_3  and  N_20
REMARK    2  A    between atoms: C_5  and  O_7
REMARK    3  A    between atoms: O_7  and  C_8
REMARK    4  A    between atoms: C_21  and  C_23
REMARK    5  A    between atoms: C_27  and  O_30
REMARK    6  A    between atoms: O_30  and  C_31
REMARK                            x       y       z     vdW  Elec       q    Type
REMARK                         _______ _______ _______ _____ _____    ______ ____
ROOT
ATOM      1  C   UNL     1       0.012   1.397  -0.179  0.00  0.00    +0.005 A 
ATOM      2  C   UNL     1       1.214   2.074  -0.255  0.00  0.00    +0.023 A 
ATOM      3  C   UNL     1       2.410   1.387  -0.093  0.00  0.00    +0.037 A 
ATOM      4  C   UNL     1       2.396   0.019   0.146  0.00  0.00    +0.069 A 
ATOM      5  C   UNL     1       1.188  -0.656   0.222  0.00  0.00    +0.130 A 
ATOM      6  C   UNL     1      -0.004   0.036   0.058  0.00  0.00    +0.046 A 
ENDROOT
BRANCH   3   7
ATOM      7  N   UNL     1       3.627   2.071  -0.170  0.00  0.00    -0.281 N 
ATOM      8  C   UNL     1       4.702   1.475  -0.724  0.00  0.00    +0.251 C 
ATOM      9  O   UNL     1       4.637   0.315  -1.081  0.00  0.00    -0.270 OA
ATOM     10  H   UNL     1       3.698   2.975   0.175  0.00  0.00    +0.155 HD
BRANCH   8  11
ATOM     11  C   UNL     1       5.958   2.232  -0.897  0.00  0.00    +0.076 A 
ATOM     12  C   UNL     1       6.038   3.564  -0.483  0.00  0.00    +0.016 A 
ATOM     13  C   UNL     1       7.213   4.267  -0.646  0.00  0.00    +0.004 A 
ATOM     14  C   UNL     1       8.316   3.659  -1.221  0.00  0.00    +0.049 A 
ATOM     15  C   UNL     1       8.248   2.338  -1.636  0.00  0.00    +0.166 A 
ATOM     16  C   UNL     1       7.074   1.617  -1.471  0.00  0.00    +0.177 A 
ATOM     17  F   UNL     1       7.008   0.328  -1.870  0.00  0.00    -0.201 F 
BRANCH  15  18
ATOM     18  O   UNL     1       9.335   1.747  -2.200  0.00  0.00    -0.403 OA
BRANCH  18  19
ATOM     19  C   UNL     1      10.512   2.546  -2.333  0.00  0.00    +0.575 C 
ATOM     20  F   UNL     1      10.931   2.974  -1.069  0.00  0.00    -0.133 F 
ATOM     21  F   UNL     1      11.526   1.787  -2.928  0.00  0.00    -0.133 F 
ATOM     22  F   UNL     1      10.233   3.659  -3.133  0.00  0.00    -0.133 F 
ENDBRANCH  18  19
ENDBRANCH  15  18
ENDBRANCH   8  11
ENDBRANCH   3   7
BRANCH   5  23
ATOM     23  O   UNL     1       1.171  -1.994   0.455  0.00  0.00    -0.454 OA
BRANCH  23  24
ATOM     24  C   UNL     1       1.406  -2.425   1.723  0.00  0.00    +0.154 A 
ATOM     25  C   UNL     1       1.544  -1.508   2.754  0.00  0.00    +0.048 A 
ATOM     26  C   UNL     1       1.784  -1.944   4.045  0.00  0.00    +0.006 A 
ATOM     27  C   UNL     1       1.888  -3.294   4.318  0.00  0.00    +0.028 A 
ATOM     28  C   UNL     1       1.751  -4.220   3.293  0.00  0.00    +0.070 A 
ATOM     29  C   UNL     1       1.503  -3.786   1.992  0.00  0.00    +0.110 A 
ATOM     30  N   UNL     1       1.409  -4.927   1.196  0.00  0.00    -0.303 N 
ATOM     31  H   UNL     1       1.245  -4.942   0.240  0.00  0.00    +0.171 HD
ATOM     32  C   UNL     1       1.586  -6.006   1.982  0.00  0.00    +0.325 A 
ATOM     33  O   UNL     1       1.563  -7.162   1.601  0.00  0.00    -0.247 OA
ATOM     34  N   UNL     1       1.803  -5.612   3.251  0.00  0.00    -0.306 N 
ATOM     35  H   UNL     1       1.958  -6.197   4.008  0.00  0.00    +0.170 HD
ENDBRANCH  23  24
ENDBRANCH   5  23
TORSDOF 6
