REMARK  Name = ZINC05697222
REMARK  6 active torsions:
REMARK  status: ('A' for Active; 'I' for Inactive)
REMARK    1  A    between atoms: C_1  and  C_2
REMARK    2  A    between atoms: C_3  and  C_8
REMARK    3  A    between atoms: N_5  and  C_7
REMARK    4  A    between atoms: N_9  and  N_10
REMARK    5  A    between atoms: C_16  and  C_32
REMARK    6  A    between atoms: C_29  and  O_31
REMARK                            x       y       z     vdW  Elec       q    Type
REMARK                         _______ _______ _______ _____ _____    ______ ____
ROOT
ATOM      1  N   UNL     1       0.014   1.227   4.240  0.00  0.00    -0.158 NA
ATOM      2  C   UNL     1      -0.005   2.491   4.478  0.00  0.00    +0.047 C 
ATOM      3  C   UNL     1      -0.051   3.648   3.485  0.00  0.00    +0.053 C 
ATOM      4  C   UNL     1       0.381   4.921   4.269  0.00  0.00    +0.010 C 
ATOM      5  C   UNL     1       0.996   4.323   5.546  0.00  0.00    +0.005 C 
ATOM      6  C   UNL     1       0.012   3.171   5.839  0.00  0.00    +0.011 C 
ATOM      7  C   UNL     1       0.478   2.307   6.978  0.00  0.00    +0.013 C 
ATOM      8  C   UNL     1       1.135   3.138   8.091  0.00  0.00    +0.009 C 
ATOM      9  C   UNL     1       0.714   4.591   8.013  0.00  0.00    +0.023 C 
ATOM     10  C   UNL     1       1.209   5.222   6.710  0.00  0.00    +0.001 C 
ATOM     11  C   UNL     1       0.600   6.619   6.618  0.00  0.00    +0.009 C 
ATOM     12  C   UNL     1       1.323   7.486   7.653  0.00  0.00    +0.036 C 
ATOM     13  C   UNL     1       1.482   6.776   8.973  0.00  0.00    -0.040 A 
ATOM     14  C   UNL     1       1.207   5.435   9.159  0.00  0.00    -0.041 A 
ATOM     15  C   UNL     1       1.371   4.854  10.404  0.00  0.00    +0.008 A 
ATOM     16  C   UNL     1       1.807   5.605  11.477  0.00  0.00    +0.046 A 
ATOM     17  C   UNL     1       2.090   6.951  11.299  0.00  0.00    +0.117 A 
ATOM     18  C   UNL     1       1.927   7.530  10.052  0.00  0.00    +0.049 A 
ATOM     19  C   UNL     1      -1.414   3.670   6.081  0.00  0.00    +0.018 C 
ENDROOT
BRANCH   1  21
ATOM     20  C   UNL     1       0.013  -0.521   2.677  0.00  0.00    +0.146 C 
ATOM     21  N   UNL     1      -0.007   0.762   2.919  0.00  0.00    -0.157 NA
BRANCH  20  24
ATOM     22  C   UNL     1      -0.081   1.292   0.075  0.00  0.00    +0.068 C 
ATOM     23  C   UNL     1      -0.051  -0.214   0.122  0.00  0.00    +0.069 A 
ATOM     24  C   UNL     1      -0.009  -1.009   1.290  0.00  0.00    +0.035 A 
ATOM     25  C   UNL     1       0.007  -2.330   0.885  0.00  0.00    +0.117 A 
ATOM     26  N   UNL     1      -0.024  -2.337  -0.460  0.00  0.00    -0.274 N 
ATOM     27  N   UNL     1      -0.065  -1.013  -0.910  0.00  0.00    -0.176 NA
ATOM     28  C   UNL     1      -0.020  -3.530  -1.310  0.00  0.00    +0.172 C 
ENDBRANCH  20  24
ENDBRANCH   1  21
BRANCH  17  29
ATOM     29  O   UNL     1       2.522   7.701  12.346  0.00  0.00    -0.507 OA
ATOM     30  H   UNL     1       3.484   7.716  12.450  0.00  0.00    +0.292 HD
ENDBRANCH  17  29
TORSDOF 3
