REMARK  Name = ZINC66557488
REMARK  7 active torsions:
REMARK  status: ('A' for Active; 'I' for Inactive)
REMARK    1  A    between atoms: C_1  and  C_2
REMARK    2  A    between atoms: C_6  and  C_7
REMARK    3  A    between atoms: N_9  and  N_10
REMARK    4  A    between atoms: C_11  and  C_13
REMARK    5  A    between atoms: C_14  and  C_24
REMARK    6  A    between atoms: C_16  and  C_23
REMARK    7  A    between atoms: C_18  and  C_22
REMARK                            x       y       z     vdW  Elec       q    Type
REMARK                         _______ _______ _______ _____ _____    ______ ____
ROOT
ATOM      1  N   UNL     1       0.131  -0.715   4.847  0.00  0.00    -0.230 N 
ATOM      2  C   UNL     1       0.248  -1.608   5.849  0.00  0.00    +0.267 C 
ATOM      3  O   UNL     1       0.275  -2.799   5.602  0.00  0.00    -0.268 OA
ATOM      4  H   UNL     1       0.110   0.235   5.044  0.00  0.00    +0.173 HD
ENDROOT
BRANCH   2   5
ATOM      5  C   UNL     1       0.342  -1.144   7.241  0.00  0.00    +0.081 A 
ATOM      6  C   UNL     1       0.469  -1.885   8.373  0.00  0.00    -0.022 A 
ATOM      7  C   UNL     1       0.543  -1.245   9.623  0.00  0.00    +0.014 A 
ATOM      8  C   UNL     1       0.675  -1.831  10.909  0.00  0.00    -0.039 A 
ATOM      9  C   UNL     1       0.730  -1.021  12.005  0.00  0.00    +0.027 A 
ATOM     10  C   UNL     1       0.656   0.358  11.870  0.00  0.00    +0.040 A 
ATOM     11  N   UNL     1       0.534   0.906  10.676  0.00  0.00    -0.245 NA
ATOM     12  C   UNL     1       0.478   0.170   9.590  0.00  0.00    +0.110 A 
ATOM     13  S   UNL     1       0.326   0.530   7.857  0.00  0.00    -0.064 S 
ATOM     14  C   UNL     1       0.717   1.234  13.094  0.00  0.00    +0.065 C 
ATOM     15  C   UNL     1       0.754  -3.328  11.061  0.00  0.00    +0.044 C 
ATOM     16  C   UNL     1       0.528  -3.388   8.290  0.00  0.00    +0.046 C 
ENDBRANCH   2   5
BRANCH   1  19
ATOM     17  C   UNL     1      -0.075  -0.264   2.519  0.00  0.00    +0.267 C 
ATOM     18  O   UNL     1      -0.102   0.928   2.766  0.00  0.00    -0.268 OA
ATOM     19  N   UNL     1       0.041  -1.157   3.521  0.00  0.00    -0.230 N 
ATOM     20  H   UNL     1       0.063  -2.107   3.324  0.00  0.00    +0.173 HD
BRANCH  17  26
ATOM     21  C   UNL     1      -0.351   1.524  -0.018  0.00  0.00    +0.045 C 
ATOM     22  C   UNL     1      -0.293   0.018  -0.032  0.00  0.00    -0.031 A 
ATOM     23  C   UNL     1      -0.353  -0.705  -1.200  0.00  0.00    +0.011 A 
ATOM     24  C   UNL     1      -0.294  -2.058  -1.141  0.00  0.00    +0.046 A 
ATOM     25  S   UNL     1      -0.156  -2.394   0.499  0.00  0.00    -0.092 S 
ATOM     26  C   UNL     1      -0.169  -0.727   1.131  0.00  0.00    +0.078 A 
ENDBRANCH  17  26
ENDBRANCH   1  19
TORSDOF 3
