REMARK  Name = ZINC39636679
REMARK  8 active torsions:
REMARK  status: ('A' for Active; 'I' for Inactive)
REMARK    1  A    between atoms: C_1  and  C_2
REMARK    2  A    between atoms: C_5  and  C_37
REMARK    3  A    between atoms: C_6  and  C_8
REMARK    4  A    between atoms: C_8  and  N_9
REMARK    5  A    between atoms: C_10  and  C_12
REMARK    6  A    between atoms: C_23  and  C_25
REMARK    7  A    between atoms: C_32  and  C_36
REMARK    8  A    between atoms: N_34  and  C_35
REMARK                            x       y       z     vdW  Elec       q    Type
REMARK                         _______ _______ _______ _____ _____    ______ ____
ROOT
ATOM      1  C   UNL     1       3.557  -4.145   4.505  0.00  0.00    +0.100 C 
ATOM      2  C   UNL     1       3.798  -5.191   3.394  0.00  0.00    +0.121 C 
ATOM      3  N   UNL     1       4.474  -6.317   4.080  0.00  0.00    -0.296 N 
ATOM      4  C   UNL     1       3.787  -6.417   5.390  0.00  0.00    +0.115 C 
ATOM      5  C   UNL     1       3.550  -4.954   5.814  0.00  0.00    -0.004 C 
ATOM      6  C   UNL     1       4.672  -4.481   6.733  0.00  0.00    -0.010 C 
ATOM      7  C   UNL     1       4.609  -5.261   8.049  0.00  0.00    -0.082 C 
ATOM      8  N   UNL     1       3.305  -5.045   8.686  0.00  0.00    +0.379 N 
ATOM      9  C   UNL     1       2.237  -5.585   7.837  0.00  0.00    -0.082 C 
ATOM     10  C   UNL     1       2.199  -4.820   6.511  0.00  0.00    -0.010 C 
ATOM     11  C   UNL     1       5.486  -7.079   3.618  0.00  0.00    +0.250 C 
ATOM     12  O   UNL     1       5.873  -8.032   4.264  0.00  0.00    -0.270 OA
ATOM     13  H   UNL     1       3.288  -5.509   9.582  0.00  0.00    -0.086 HD
ATOM     14  H   UNL     1       3.157  -4.055   8.821  0.00  0.00    -0.086 HD
ENDROOT
BRANCH  11  15
ATOM     15  C   UNL     1       6.122  -6.755   2.326  0.00  0.00    +0.074 A 
ATOM     16  C   UNL     1       5.360  -6.242   1.267  0.00  0.00    +0.127 A 
ATOM     17  N   UNL     1       5.907  -5.948   0.112  0.00  0.00    -0.235 NA
ATOM     18  C   UNL     1       7.206  -6.119  -0.115  0.00  0.00    +0.160 A 
ATOM     19  C   UNL     1       8.042  -6.630   0.899  0.00  0.00    +0.060 A 
ATOM     20  C   UNL     1       7.494  -6.950   2.145  0.00  0.00    +0.067 A 
ATOM     21 CL   UNL     1       8.486  -7.575   3.425  0.00  0.00    -0.082 Cl
ATOM     22  C   UNL     1       9.386  -6.692   0.333  0.00  0.00    +0.071 A 
ATOM     23  N   UNL     1       9.318  -6.256  -0.892  0.00  0.00    -0.174 NA
ATOM     24  N   UNL     1       8.003  -5.897  -1.202  0.00  0.00    -0.249 N 
ATOM     25  C   UNL     1       7.552  -5.365  -2.490  0.00  0.00    +0.174 C 
ATOM     26  C   UNL     1      10.627  -7.174   1.040  0.00  0.00    +0.068 C 
ENDBRANCH  11  15
BRANCH   1  28
ATOM     27  N   UNL     1       2.050  -2.197   4.732  0.00  0.00    -0.311 N 
ATOM     28  C   UNL     1       2.229  -3.462   4.303  0.00  0.00    +0.218 C 
ATOM     29  O   UNL     1       1.321  -4.051   3.756  0.00  0.00    -0.275 OA
ATOM     30  H   UNL     1       2.775  -1.726   5.170  0.00  0.00    +0.149 HD
BRANCH  27  31
ATOM     31  C   UNL     1       0.758  -1.533   4.536  0.00  0.00    +0.139 C 
BRANCH  31  37
ATOM     32  C   UNL     1      -0.246   1.701   8.220  0.00  0.00    +0.044 C 
ATOM     33  C   UNL     1       0.339   1.411   6.862  0.00  0.00    -0.050 A 
ATOM     34  C   UNL     1       0.933   2.425   6.134  0.00  0.00    +0.003 A 
ATOM     35  C   UNL     1       1.470   2.158   4.889  0.00  0.00    +0.004 A 
ATOM     36  C   UNL     1       1.414   0.877   4.372  0.00  0.00    -0.046 A 
ATOM     37  C   UNL     1       0.821  -0.137   5.100  0.00  0.00    -0.027 A 
ATOM     38  C   UNL     1       0.287   0.129   6.348  0.00  0.00    +0.008 A 
ATOM     39  C   UNL     1       1.998   0.587   3.013  0.00  0.00    +0.044 C 
ENDBRANCH  31  37
ENDBRANCH  27  31
ENDBRANCH   1  28
TORSDOF 4
