REMARK  Name = ZINC14548460
REMARK  2 active torsions:
REMARK  status: ('A' for Active; 'I' for Inactive)
REMARK    1  A    between atoms: C_3  and  C_6
REMARK    2  A    between atoms: C_17  and  C_22
REMARK                            x       y       z     vdW  Elec       q    Type
REMARK                         _______ _______ _______ _____ _____    ______ ____
ROOT
ATOM      1  C   UNL     1       2.565   1.272  -0.016  0.00  0.00    +0.111 C 
ATOM      2  C   UNL     1       3.186   1.406   1.363  0.00  0.00    +0.029 C 
ATOM      3  C   UNL     1       2.636   0.498   2.471  0.00  0.00    +0.033 C 
ATOM      4  C   UNL     1       3.862   0.335   3.371  0.00  0.00    -0.030 C 
ATOM      5  C   UNL     1       4.971   0.503   2.662  0.00  0.00    -0.023 C 
ATOM      6  C   UNL     1       4.596   0.754   1.247  0.00  0.00    +0.049 C 
ATOM      7  C   UNL     1       5.418   1.604   0.358  0.00  0.00    -0.019 A 
ATOM      8  C   UNL     1       6.769   1.768   0.541  0.00  0.00    +0.019 A 
ATOM      9  C   UNL     1       7.508   2.553  -0.349  0.00  0.00    +0.037 A 
ATOM     10  C   UNL     1       6.865   3.170  -1.426  0.00  0.00    +0.015 A 
ATOM     11  C   UNL     1       5.512   3.010  -1.602  0.00  0.00    +0.024 A 
ATOM     12  C   UNL     1       4.769   2.235  -0.714  0.00  0.00    +0.031 A 
ATOM     13  N   UNL     1       3.395   2.106  -0.911  0.00  0.00    -0.336 N 
ATOM     14  H   UNL     1       2.975   2.573  -1.651  0.00  0.00    +0.147 HD
ENDROOT
BRANCH   1  17
ATOM     15  C   UNL     1      -1.213   1.761   0.017  0.00  0.00    +0.008 A 
ATOM     16  C   UNL     1      -0.013   1.076   0.008  0.00  0.00    +0.013 A 
ATOM     17  C   UNL     1       1.146   1.780   0.001  0.00  0.00    +0.010 A 
ATOM     18  S   UNL     1       0.555   3.464   0.015  0.00  0.00    -0.100 S 
ATOM     19  C   UNL     1      -1.196   3.116   0.030  0.00  0.00    +0.045 A 
ENDBRANCH   1  17
BRANCH   9  20
ATOM     20  C   UNL     1       8.960   2.729  -0.152  0.00  0.00    +0.242 C 
ATOM     21  O   UNL     1       9.516   2.190   0.786  0.00  0.00    -0.270 OA
ATOM     22  N   UNL     1       9.670   3.486  -1.011  0.00  0.00    -0.325 N 
ATOM     23  H   UNL     1       9.226   3.916  -1.760  0.00  0.00    +0.145 HD
ATOM     24  H   UNL     1      10.624   3.602  -0.882  0.00  0.00    +0.145 HD
ENDBRANCH   9  20
TORSDOF 2
