REMARK  Name = ZINC09504421
REMARK  13 active torsions:
REMARK  status: ('A' for Active; 'I' for Inactive)
REMARK    1  A    between atoms: C_1  and  C_2
REMARK    2  A    between atoms: C_2  and  N_63
REMARK    3  A    between atoms: C_3  and  C_4
REMARK    4  A    between atoms: C_3  and  N_63
REMARK    5  A    between atoms: C_5  and  C_6
REMARK    6  A    between atoms: C_5  and  N_63
REMARK    7  A    between atoms: C_6  and  N_7
REMARK    8  A    between atoms: C_11  and  C_18
REMARK    9  A    between atoms: C_12  and  C_17
REMARK   10  A    between atoms: C_19  and  C_21
REMARK   11  A    between atoms: C_21  and  C_22
REMARK   12  A    between atoms: C_25  and  C_29
REMARK   13  A    between atoms: C_27  and  C_28
REMARK                            x       y       z     vdW  Elec       q    Type
REMARK                         _______ _______ _______ _____ _____    ______ ____
ROOT
ATOM      1  N   UNL     1       5.464  -1.054   0.323  0.00  0.00    -0.252 N 
ATOM      2  C   UNL     1       4.228  -0.432   0.254  0.00  0.00    +0.168 A 
ATOM      3  N   UNL     1       3.039  -0.973   0.129  0.00  0.00    -0.224 NA
ATOM      4  C   UNL     1       1.908  -0.237   0.075  0.00  0.00    +0.083 A 
ATOM      5  C   UNL     1       0.576  -0.692  -0.057  0.00  0.00    -0.021 A 
ATOM      6  C   UNL     1      -0.467   0.196  -0.096  0.00  0.00    -0.045 A 
ATOM      7  C   UNL     1      -0.257   1.565  -0.010  0.00  0.00    +0.005 A 
ATOM      8  C   UNL     1       1.033   2.045   0.120  0.00  0.00    +0.017 A 
ATOM      9  C   UNL     1       2.084   1.163   0.160  0.00  0.00    +0.041 A 
ATOM     10  S   UNL     1       3.848   1.314   0.312  0.00  0.00    -0.052 S 
ATOM     11  C   UNL     1      -1.874  -0.325  -0.237  0.00  0.00    +0.044 C 
ATOM     12  C   UNL     1       0.299  -2.171  -0.155  0.00  0.00    +0.046 C 
ATOM     13  C   UNL     1       5.546  -2.398   0.260  0.00  0.00    +0.225 C 
ATOM     14  O   UNL     1       4.538  -3.062   0.144  0.00  0.00    -0.275 OA
ENDROOT
BRANCH   1  15
ATOM     15  C   UNL     1       6.682  -0.252   0.463  0.00  0.00    +0.097 C 
BRANCH  15  16
ATOM     16  C   UNL     1       6.989  -0.046   1.948  0.00  0.00    -0.059 C 
BRANCH  16  17
ATOM     17  N   UNL     1       8.230   0.746   2.073  0.00  0.00    +0.380 N 
ATOM     18  H   UNL     1       8.965   0.307   1.505  0.00  0.00    -0.082 HD
BRANCH  17  20
ATOM     19  C   UNL     1       6.939   2.824   2.428  0.00  0.00    -0.017 C 
ATOM     20  C   UNL     1       8.003   2.122   1.582  0.00  0.00    -0.082 C 
ENDBRANCH  17  20
BRANCH  17  21
ATOM     21  C   UNL     1       8.669   0.778   3.484  0.00  0.00    -0.082 C 
ATOM     22  C   UNL     1      10.112   1.284   3.538  0.00  0.00    -0.017 C 
ENDBRANCH  17  21
ENDBRANCH  16  17
ENDBRANCH  15  16
ENDBRANCH   1  15
BRANCH  13  23
ATOM     23  C   UNL     1       6.890  -3.075   0.335  0.00  0.00    +0.131 C 
BRANCH  23  24
ATOM     24  C   UNL     1       6.706  -4.568   0.243  0.00  0.00    -0.036 A 
ATOM     25  C   UNL     1       6.628  -5.327   1.396  0.00  0.00    +0.004 A 
ATOM     26  C   UNL     1       6.459  -6.696   1.312  0.00  0.00    +0.003 A 
ATOM     27  C   UNL     1       6.368  -7.307   0.075  0.00  0.00    -0.050 A 
ATOM     28  C   UNL     1       6.446  -6.548  -1.078  0.00  0.00    +0.007 A 
ATOM     29  C   UNL     1       6.609  -5.178  -0.994  0.00  0.00    -0.047 A 
ATOM     30  C   UNL     1       6.688  -4.350  -2.250  0.00  0.00    +0.044 C 
ATOM     31  C   UNL     1       6.183  -8.800  -0.017  0.00  0.00    +0.044 C 
ENDBRANCH  23  24
ENDBRANCH  13  23
TORSDOF 7
