REMARK  Name = ZINC25259726
REMARK  8 active torsions:
REMARK  status: ('A' for Active; 'I' for Inactive)
REMARK    1  A    between atoms: C_1  and  C_2
REMARK    2  A    between atoms: C_2  and  C_3
REMARK    3  A    between atoms: C_3  and  C_5
REMARK    4  A    between atoms: C_3  and  C_6
REMARK    5  A    between atoms: C_6  and  C_8
REMARK    6  A    between atoms: C_6  and  N_23
REMARK    7  A    between atoms: N_10  and  N_11
REMARK    8  A    between atoms: C_12  and  C_14
REMARK                            x       y       z     vdW  Elec       q    Type
REMARK                         _______ _______ _______ _____ _____    ______ ____
ROOT
ATOM      1  C   UNL     1       7.340  -3.436   4.091  0.00  0.00    +0.250 C 
ATOM      2  O   UNL     1       7.248  -4.609   3.798  0.00  0.00    -0.272 OA
ATOM      3  N   UNL     1       6.281  -2.617   3.935  0.00  0.00    -0.233 N 
ATOM      4  H   UNL     1       6.338  -1.573   4.276  0.00  0.00    +0.173 HD
ENDROOT
BRANCH   3   5
ATOM      5  N   UNL     1       5.108  -3.095   3.338  0.00  0.00    -0.230 N 
ATOM      6  C   UNL     1       4.049  -2.276   3.182  0.00  0.00    +0.260 C 
ATOM      7  O   UNL     1       4.112  -1.122   3.560  0.00  0.00    -0.269 OA
ATOM      8  H   UNL     1       5.051  -4.139   2.997  0.00  0.00    +0.173 HD
BRANCH   6   9
ATOM      9  C   UNL     1       2.812  -2.781   2.553  0.00  0.00    +0.042 A 
ATOM     10  C   UNL     1       2.738  -4.106   2.119  0.00  0.00    +0.017 A 
ATOM     11  C   UNL     1       1.583  -4.575   1.533  0.00  0.00    +0.050 A 
ATOM     12  C   UNL     1       0.490  -3.735   1.371  0.00  0.00    +0.166 A 
ATOM     13  C   UNL     1       0.558  -2.409   1.803  0.00  0.00    +0.167 A 
ATOM     14  C   UNL     1       1.713  -1.933   2.391  0.00  0.00    +0.062 A 
ATOM     15  O   UNL     1      -0.634  -1.801   1.531  0.00  0.00    -0.453 OA
ATOM     16  C   UNL     1      -1.569  -2.873   1.305  0.00  0.00    +0.466 C 
ATOM     17  O   UNL     1      -0.743  -3.953   0.831  0.00  0.00    -0.453 OA
ENDBRANCH   6   9
ENDBRANCH   3   5
BRANCH   1  18
ATOM     18  C   UNL     1       8.640  -2.893   4.629  0.00  0.00    +0.165 C 
BRANCH  18  19
ATOM     19  N   UNL     1       9.618  -3.979   4.730  0.00  0.00    -0.288 N 
ATOM     20  C   UNL     1      10.915  -3.747   4.446  0.00  0.00    +0.298 C 
ATOM     21  O   UNL     1      11.287  -2.619   4.186  0.00  0.00    -0.253 OA
ATOM     22  N   UNL     1      11.798  -4.764   4.449  0.00  0.00    -0.313 N 
ATOM     23  H   UNL     1       9.293  -4.984   5.038  0.00  0.00    +0.151 HD
ATOM     24  H   UNL     1      12.856  -4.575   4.218  0.00  0.00    +0.146 HD
ATOM     25  H   UNL     1      11.460  -5.785   4.684  0.00  0.00    +0.146 HD
ENDBRANCH  18  19
BRANCH  18  26
ATOM     26  C   UNL     1       8.405  -2.287   6.014  0.00  0.00    +0.015 C 
ATOM     27  C   UNL     1       9.680  -1.587   6.487  0.00  0.00    +0.010 C 
BRANCH  26  29
ATOM     28  C   UNL     1       6.676  -3.985   6.623  0.00  0.00    +0.004 C 
ATOM     29  C   UNL     1       8.037  -3.398   7.000  0.00  0.00    +0.002 C 
ENDBRANCH  26  29
ENDBRANCH  18  26
ENDBRANCH   1  18
TORSDOF 6
