REMARK  Name = ZINC06624559
REMARK  5 active torsions:
REMARK  status: ('A' for Active; 'I' for Inactive)
REMARK    1  A    between atoms: C_1  and  C_2
REMARK    2  A    between atoms: C_8  and  C_12
REMARK    3  A    between atoms: C_19  and  O_20
REMARK    4  A    between atoms: O_20  and  C_21
REMARK    5  A    between atoms: C_27  and  N_48
REMARK                            x       y       z     vdW  Elec       q    Type
REMARK                         _______ _______ _______ _____ _____    ______ ____
ROOT
ATOM      1  C   UNL     1      -1.991   4.625   0.092  0.00  0.00    -0.001 C 
ATOM      2  C   UNL     1      -0.792   3.713   0.087  0.00  0.00    -0.008 A 
ATOM      3  C   UNL     1       0.496   4.205   0.068  0.00  0.00    -0.040 A 
ATOM      4  C   UNL     1       1.571   3.330   0.058  0.00  0.00    +0.053 A 
ATOM      5  C   UNL     1       1.365   1.961   0.070  0.00  0.00    +0.170 A 
ATOM      6  C   UNL     1       0.067   1.461   0.093  0.00  0.00    +0.208 A 
ATOM      7  C   UNL     1      -1.007   2.338   0.097  0.00  0.00    +0.167 A 
ATOM      8  O   UNL     1       0.126   0.096   0.104  0.00  0.00    -0.449 OA
ATOM      9  C   UNL     1       1.472  -0.228   0.499  0.00  0.00    +0.467 C 
ATOM     10  O   UNL     1       2.238   0.912   0.065  0.00  0.00    -0.452 OA
ATOM     11  C   UNL     1       0.776   5.686   0.065  0.00  0.00    +0.017 C 
ATOM     12  C   UNL     1      -0.483   6.455  -0.335  0.00  0.00    -0.073 C 
ATOM     13  C   UNL     1      -2.746   6.901   0.410  0.00  0.00    -0.095 C 
ATOM     14  N   UNL     1      -1.593   5.978   0.514  0.00  0.00    +0.385 N 
ATOM     15  H   UNL     1      -1.278   5.945   1.491  0.00  0.00    -0.081 HD
ENDROOT
BRANCH   1  23
ATOM     16  C   UNL     1      -1.203   5.020   5.752  0.00  0.00    +0.044 C 
ATOM     17  C   UNL     1      -2.221   4.497   4.772  0.00  0.00    -0.050 A 
ATOM     18  C   UNL     1      -3.383   3.897   5.240  0.00  0.00    +0.005 A 
ATOM     19  C   UNL     1      -4.326   3.411   4.362  0.00  0.00    +0.026 A 
ATOM     20  C   UNL     1      -4.116   3.522   2.991  0.00  0.00    +0.047 A 
ATOM     21  C   UNL     1      -2.938   4.131   2.522  0.00  0.00    +0.002 A 
ATOM     22  C   UNL     1      -1.995   4.616   3.430  0.00  0.00    +0.013 A 
ATOM     23  C   UNL     1      -3.017   4.093   1.060  0.00  0.00    -0.032 A 
ATOM     24  C   UNL     1      -4.180   3.501   0.745  0.00  0.00    +0.086 A 
ATOM     25  N   UNL     1      -4.847   3.148   1.887  0.00  0.00    -0.360 N 
ATOM     26  H   UNL     1      -5.709   2.703   1.913  0.00  0.00    +0.165 HD
ENDBRANCH   1  23
BRANCH   7  27
ATOM     27  O   UNL     1      -2.277   1.853   0.112  0.00  0.00    -0.491 OA
ATOM     28  C   UNL     1      -2.848   1.487  -1.146  0.00  0.00    +0.277 C 
ENDBRANCH   7  27
TORSDOF 2
