REMARK  Name = ZINC39370625
REMARK  10 active torsions:
REMARK  status: ('A' for Active; 'I' for Inactive)
REMARK    1  A    between atoms: C_1  and  C_2
REMARK    2  A    between atoms: C_2  and  O_3
REMARK    3  A    between atoms: O_3  and  C_4
REMARK    4  A    between atoms: C_4  and  C_6
REMARK    5  A    between atoms: C_8  and  N_18
REMARK    6  A    between atoms: C_11  and  O_16
REMARK    7  A    between atoms: O_16  and  C_17
REMARK    8  A    between atoms: N_18  and  C_19
REMARK    9  A    between atoms: C_19  and  N_21
REMARK   10  A    between atoms: N_24  and  C_27
REMARK                            x       y       z     vdW  Elec       q    Type
REMARK                         _______ _______ _______ _____ _____    ______ ____
ROOT
ATOM      1  C   UNL     1      -2.910  -2.412   0.038  0.00  0.00    +0.234 C 
ATOM      2  C   UNL     1      -3.480  -2.410  -1.363  0.00  0.00    +0.052 C 
ATOM      3  C   UNL     1      -3.726  -3.737  -1.670  0.00  0.00    +0.021 A 
ATOM      4  C   UNL     1      -4.254  -4.369  -2.823  0.00  0.00    +0.057 A 
ATOM      5  C   UNL     1      -4.388  -5.721  -2.848  0.00  0.00    +0.121 A 
ATOM      6  C   UNL     1      -4.016  -6.514  -1.754  0.00  0.00    +0.047 A 
ATOM      7  C   UNL     1      -3.505  -5.975  -0.622  0.00  0.00    +0.029 A 
ATOM      8  C   UNL     1      -3.335  -4.570  -0.521  0.00  0.00    +0.045 A 
ATOM      9  N   UNL     1      -2.869  -3.816   0.458  0.00  0.00    -0.367 N 
ATOM     10  H   UNL     1      -2.550  -4.138   1.315  0.00  0.00    +0.161 HD
ENDROOT
BRANCH   1  11
ATOM     11  C   UNL     1      -1.519  -1.830   0.033  0.00  0.00    +0.336 C 
ATOM     12  O   UNL     1      -0.558  -2.562   0.033  0.00  0.00    -0.248 OA
BRANCH  11  13
ATOM     13  O   UNL     1      -1.349  -0.499   0.030  0.00  0.00    -0.463 OA
BRANCH  13  15
ATOM     14  C   UNL     1      -0.009   1.513   0.023  0.00  0.00    +0.048 C 
ATOM     15  C   UNL     1      -0.003  -0.017   0.026  0.00  0.00    +0.229 C 
ENDBRANCH  13  15
ENDBRANCH  11  13
ENDBRANCH   1  11
BRANCH   5  16
ATOM     16  O   UNL     1      -4.896  -6.318  -3.960  0.00  0.00    -0.495 OA
ATOM     17  C   UNL     1      -5.017  -7.742  -3.934  0.00  0.00    +0.277 C 
ENDBRANCH   5  16
BRANCH   2  18
ATOM     18  N   UNL     1      -3.704  -1.328  -2.158  0.00  0.00    -0.297 N 
ATOM     19  H   UNL     1      -3.555  -0.433  -1.813  0.00  0.00    +0.154 HD
BRANCH  18  20
ATOM     20  C   UNL     1      -4.132  -1.498  -3.425  0.00  0.00    +0.137 C 
ATOM     21  S   UNL     1      -3.024  -1.385  -4.725  0.00  0.00    -0.018 S 
BRANCH  20  22
ATOM     22  N   UNL     1      -5.431  -1.759  -3.667  0.00  0.00    -0.309 N 
ATOM     23  C   UNL     1      -6.414  -1.742  -2.574  0.00  0.00    +0.125 C 
ATOM     24  C   UNL     1      -7.539  -0.766  -2.942  0.00  0.00    +0.124 C 
ATOM     25  N   UNL     1      -7.999  -1.071  -4.303  0.00  0.00    -0.327 N 
ATOM     26  C   UNL     1      -7.017  -1.088  -5.396  0.00  0.00    +0.124 C 
ATOM     27  C   UNL     1      -5.893  -2.058  -5.030  0.00  0.00    +0.125 C 
BRANCH  25  28
ATOM     28  C   UNL     1      -9.347  -1.341  -4.555  0.00  0.00    +0.031 A 
ATOM     29  C   UNL     1     -10.248  -1.428  -3.501  0.00  0.00    +0.023 A 
ATOM     30  C   UNL     1     -11.579  -1.694  -3.752  0.00  0.00    +0.003 A 
ATOM     31  C   UNL     1     -12.017  -1.875  -5.052  0.00  0.00    +0.020 A 
ATOM     32  C   UNL     1     -11.122  -1.789  -6.104  0.00  0.00    +0.043 A 
ATOM     33  C   UNL     1      -9.789  -1.517  -5.859  0.00  0.00    +0.043 A 
ATOM     34 CL   UNL     1     -11.676  -2.017  -7.734  0.00  0.00    -0.083 Cl
ENDBRANCH  25  28
ENDBRANCH  20  22
ENDBRANCH  18  20
ENDBRANCH   2  18
TORSDOF 8
