REMARK  Name = ZINC07681071
REMARK  10 active torsions:
REMARK  status: ('A' for Active; 'I' for Inactive)
REMARK    1  A    between atoms: C_1  and  C_2
REMARK    2  A    between atoms: C_2  and  C_3
REMARK    3  A    between atoms: C_3  and  C_24
REMARK    4  A    between atoms: N_6  and  N_10
REMARK    5  A    between atoms: C_11  and  C_13
REMARK    6  A    between atoms: C_13  and  N_14
REMARK    7  A    between atoms: N_14  and  C_15
REMARK    8  A    between atoms: N_14  and  C_16
REMARK    9  A    between atoms: C_16  and  C_17
REMARK   10  A    between atoms: C_22  and  C_23
REMARK                            x       y       z     vdW  Elec       q    Type
REMARK                         _______ _______ _______ _____ _____    ______ ____
ROOT
ATOM      1  C   UNL     1       0.718  -0.497  -1.257  0.00  0.00    +0.139 C 
ATOM      2  C   UNL     1       0.081   0.093  -2.499  0.00  0.00    +0.268 C 
ATOM      3  O   UNL     1      -1.061  -0.057  -2.878  0.00  0.00    -0.271 OA
ATOM      4  N   UNL     1       1.047   0.819  -3.095  0.00  0.00    -0.137 N 
ATOM      5  C   UNL     1       2.195   0.770  -2.408  0.00  0.00    +0.327 C 
ATOM      6  O   UNL     1       3.210   1.345  -2.748  0.00  0.00    -0.251 OA
ATOM      7  N   UNL     1       2.099   0.013  -1.301  0.00  0.00    -0.280 N 
ATOM      8  H   UNL     1       2.803  -0.163  -0.657  0.00  0.00    +0.152 HD
ENDROOT
BRANCH   1   9
ATOM      9  C   UNL     1       0.707  -2.003  -1.315  0.00  0.00    -0.015 A 
ATOM     10  C   UNL     1      -0.340  -2.709  -0.752  0.00  0.00    +0.006 A 
ATOM     11  C   UNL     1      -0.350  -4.090  -0.806  0.00  0.00    +0.000 A 
ATOM     12  C   UNL     1       0.686  -4.766  -1.424  0.00  0.00    +0.000 A 
ATOM     13  C   UNL     1       1.732  -4.060  -1.988  0.00  0.00    +0.000 A 
ATOM     14  C   UNL     1       1.740  -2.679  -1.938  0.00  0.00    +0.006 A 
ENDBRANCH   1   9
BRANCH   4  15
ATOM     15  N   UNL     1       0.872   1.536  -4.285  0.00  0.00    -0.225 N 
ATOM     16  C   UNL     1       0.759   2.878  -4.253  0.00  0.00    +0.213 C 
ATOM     17  O   UNL     1       0.810   3.466  -3.194  0.00  0.00    -0.276 OA
ATOM     18  H   UNL     1       0.832   1.066  -5.133  0.00  0.00    +0.173 HD
BRANCH  16  19
ATOM     19  C   UNL     1       0.571   3.650  -5.535  0.00  0.00    +0.020 C 
BRANCH  19  20
ATOM     20  N   UNL     1       0.476   5.084  -5.233  0.00  0.00    +0.386 N 
ATOM     21  C   UNL     1      -0.736   5.339  -4.444  0.00  0.00    -0.095 C 
ATOM     22  H   UNL     1       1.287   5.372  -4.706  0.00  0.00    -0.081 HD
BRANCH  20  23
ATOM     23  C   UNL     1       0.413   5.845  -6.488  0.00  0.00    -0.042 C 
BRANCH  23  24
ATOM     24  C   UNL     1       0.439   7.321  -6.183  0.00  0.00    -0.061 A 
ATOM     25  C   UNL     1      -0.737   8.046  -6.176  0.00  0.00    +0.002 A 
ATOM     26  C   UNL     1      -0.713   9.399  -5.896  0.00  0.00    +0.000 A 
ATOM     27  C   UNL     1       0.488  10.027  -5.622  0.00  0.00    +0.000 A 
ATOM     28  C   UNL     1       1.664   9.302  -5.628  0.00  0.00    +0.003 A 
ATOM     29  C   UNL     1       1.639   7.947  -5.903  0.00  0.00    -0.049 A 
ATOM     30  C   UNL     1       2.921   7.155  -5.904  0.00  0.00    +0.044 C 
ENDBRANCH  23  24
ENDBRANCH  20  23
ENDBRANCH  19  20
ENDBRANCH  16  19
ENDBRANCH   4  15
BRANCH   1  32
ATOM     31  C   UNL     1      -0.019   1.526   0.010  0.00  0.00    +0.007 C 
ATOM     32  C   UNL     1       0.002  -0.004   0.002  0.00  0.00    +0.037 C 
ENDBRANCH   1  32
TORSDOF 7
