REMARK  Name = ZINC48971534
REMARK  5 active torsions:
REMARK  status: ('A' for Active; 'I' for Inactive)
REMARK    1  A    between atoms: C_1  and  N_2
REMARK    2  A    between atoms: N_2  and  C_3
REMARK    3  A    between atoms: N_2  and  C_10
REMARK    4  A    between atoms: C_3  and  C_4
REMARK    5  A    between atoms: C_15  and  N_16
REMARK                            x       y       z     vdW  Elec       q    Type
REMARK                         _______ _______ _______ _____ _____    ______ ____
ROOT
ATOM      1  C   UNL     1       0.000  -0.699  -1.217  0.00  0.00    +0.053 A 
ATOM      2  C   UNL     1       1.211  -1.026  -1.819  0.00  0.00    +0.026 A 
ATOM      3  C   UNL     1       1.213  -1.711  -3.020  0.00  0.00    +0.019 A 
ATOM      4  C   UNL     1       0.019  -2.061  -3.605  0.00  0.00    +0.041 A 
ATOM      5  C   UNL     1      -1.230  -1.749  -3.027  0.00  0.00    +0.101 A 
ATOM      6  C   UNL     1      -1.206  -1.052  -1.796  0.00  0.00    +0.073 A 
ATOM      7  N   UNL     1      -2.282  -2.179  -3.756  0.00  0.00    -0.246 NA
ATOM      8  C   UNL     1      -2.131  -2.817  -4.878  0.00  0.00    +0.157 A 
ATOM      9  S   UNL     1      -0.463  -2.913  -5.085  0.00  0.00    -0.075 S 
ENDROOT
BRANCH   6  10
ATOM     10  N   UNL     1      -2.408  -0.713  -1.162  0.00  0.00    -0.355 N 
ATOM     11  H   UNL     1      -2.394  -0.232  -0.320  0.00  0.00    +0.142 HD
ATOM     12  H   UNL     1      -3.255  -0.959  -1.566  0.00  0.00    +0.142 HD
ENDBRANCH   6  10
BRANCH   1  14
ATOM     13  C   UNL     1      -0.018   1.461   0.010  0.00  0.00    +0.129 C 
ATOM     14  N   UNL     1       0.002  -0.004   0.002  0.00  0.00    -0.327 N 
BRANCH  14  15
ATOM     15  C   UNL     1       0.024  -0.743   1.267  0.00  0.00    +0.147 C 
BRANCH  15  16
ATOM     16  C   UNL     1      -1.389  -1.016   1.714  0.00  0.00    +0.008 A 
ATOM     17  C   UNL     1      -2.180  -2.082   1.440  0.00  0.00    +0.014 A 
ATOM     18  C   UNL     1      -3.459  -2.121   1.964  0.00  0.00    +0.028 A 
ATOM     19  C   UNL     1      -3.883  -1.090   2.737  0.00  0.00    +0.078 A 
ATOM     20  S   UNL     1      -2.452  -0.022   2.748  0.00  0.00    -0.080 S 
ATOM     21 CL   UNL     1      -5.418  -0.869   3.518  0.00  0.00    -0.076 Cl
ENDBRANCH  15  16
ENDBRANCH  14  15
ENDBRANCH   1  14
TORSDOF 4
