REMARK  Name = ZINC09808644
REMARK  8 active torsions:
REMARK  status: ('A' for Active; 'I' for Inactive)
REMARK    1  A    between atoms: C_3  and  C_28
REMARK    2  A    between atoms: C_6  and  C_7
REMARK    3  A    between atoms: C_8  and  C_9
REMARK    4  A    between atoms: C_9  and  O_11
REMARK    5  A    between atoms: O_11  and  C_12
REMARK    6  A    between atoms: C_12  and  C_13
REMARK    7  A    between atoms: N_15  and  C_16
REMARK    8  A    between atoms: C_17  and  C_25
REMARK                            x       y       z     vdW  Elec       q    Type
REMARK                         _______ _______ _______ _____ _____    ______ ____
ROOT
ATOM      1  C   UNL     1       3.536   2.075  -0.021  0.00  0.00    +0.255 C 
ATOM      2  O   UNL     1       3.361   3.275  -0.012  0.00  0.00    -0.272 OA
ATOM      3  N   UNL     1       4.788   1.577  -0.035  0.00  0.00    -0.277 N 
ATOM      4  H   UNL     1       4.928   0.617  -0.042  0.00  0.00    +0.155 HD
ENDROOT
BRANCH   3   5
ATOM      5  C   UNL     1       5.876   2.436  -0.041  0.00  0.00    +0.084 A 
ATOM      6  C   UNL     1       7.227   2.117  -0.050  0.00  0.00    +0.068 A 
ATOM      7  C   UNL     1       8.176   3.217  -0.058  0.00  0.00    -0.023 A 
ATOM      8  C   UNL     1       7.627   4.451  -0.045  0.00  0.00    -0.004 A 
ATOM      9  S   UNL     1       5.880   4.169  -0.031  0.00  0.00    -0.077 S 
ATOM     10  C   UNL     1       8.351   5.762  -0.044  0.00  0.00    +0.043 C 
ATOM     11  C   UNL     1       9.821   5.503   0.320  0.00  0.00    +0.005 C 
ATOM     12  C   UNL     1      10.341   4.338  -0.528  0.00  0.00    +0.005 C 
ATOM     13  C   UNL     1       9.689   3.031  -0.073  0.00  0.00    +0.037 C 
BRANCH   6  14
ATOM     14  C   UNL     1       7.679   0.723  -0.055  0.00  0.00    +0.244 C 
ATOM     15  O   UNL     1       7.860   0.146  -1.111  0.00  0.00    -0.270 OA
ATOM     16  N   UNL     1       7.893   0.079   1.109  0.00  0.00    -0.325 N 
ATOM     17  H   UNL     1       7.749   0.539   1.951  0.00  0.00    +0.145 HD
ATOM     18  H   UNL     1       8.192  -0.844   1.106  0.00  0.00    +0.145 HD
ENDBRANCH   6  14
ENDBRANCH   3   5
BRANCH   1  19
ATOM     19  C   UNL     1       2.353   1.141  -0.014  0.00  0.00    +0.328 C 
BRANCH  19  20
ATOM     20  O   UNL     1       1.145   1.902   0.001  0.00  0.00    -0.452 OA
BRANCH  20  21
ATOM     21  C   UNL     1      -0.014   1.212   0.009  0.00  0.00    +0.332 C 
ATOM     22  O   UNL     1       0.002  -0.004   0.002  0.00  0.00    -0.246 OA
BRANCH  21  24
ATOM     23  C   UNL     1      -2.450   1.236   0.020  0.00  0.00    +0.015 C 
ATOM     24  C   UNL     1      -1.291   1.926   0.019  0.00  0.00    +0.092 C 
BRANCH  23  30
ATOM     25  C   UNL     1      -3.757   3.352   0.044  0.00  0.00    +0.008 A 
ATOM     26  C   UNL     1      -4.965   4.018   0.047  0.00  0.00    +0.013 A 
ATOM     27  C   UNL     1      -6.152   3.306   0.049  0.00  0.00    +0.055 A 
ATOM     28  C   UNL     1      -6.137   1.922   0.042  0.00  0.00    +0.013 A 
ATOM     29  C   UNL     1      -4.938   1.242   0.032  0.00  0.00    +0.008 A 
ATOM     30  C   UNL     1      -3.734   1.954   0.030  0.00  0.00    -0.025 A 
BRANCH  27  31
ATOM     31  C   UNL     1      -7.467   4.042   0.059  0.00  0.00    +0.417 C 
ATOM     32  F   UNL     1      -7.867   4.263   1.381  0.00  0.00    -0.166 F 
ATOM     33  F   UNL     1      -7.319   5.270  -0.595  0.00  0.00    -0.166 F 
ATOM     34  F   UNL     1      -8.435   3.276  -0.600  0.00  0.00    -0.166 F 
ENDBRANCH  27  31
ENDBRANCH  23  30
ENDBRANCH  21  24
ENDBRANCH  20  21
ENDBRANCH  19  20
ENDBRANCH   1  19
TORSDOF 8
