REMARK  Name = ZINC50866128
REMARK  2 active torsions:
REMARK  status: ('A' for Active; 'I' for Inactive)
REMARK    1  A    between atoms: C_3  and  C_9
REMARK    2  A    between atoms: C_13  and  N_15
REMARK                            x       y       z     vdW  Elec       q    Type
REMARK                         _______ _______ _______ _____ _____    ______ ____
ROOT
ATOM      1  C   UNL     1       3.659   2.168  -0.022  0.00  0.00    +0.163 A 
ATOM      2  N   UNL     1       4.805   1.503  -0.042  0.00  0.00    -0.232 NA
ATOM      3  C   UNL     1       5.965   2.144  -0.050  0.00  0.00    +0.050 A 
ATOM      4  C   UNL     1       5.971   3.525  -0.038  0.00  0.00    +0.013 A 
ATOM      5  C   UNL     1       4.748   4.199  -0.017  0.00  0.00    +0.123 A 
ATOM      6  N   UNL     1       3.622   3.493  -0.015  0.00  0.00    -0.213 NA
ATOM      7  C   UNL     1       7.393   4.035  -0.051  0.00  0.00    +0.041 C 
ATOM      8  C   UNL     1       8.258   2.825   0.364  0.00  0.00    +0.011 C 
ATOM      9  C   UNL     1       7.386   1.628  -0.073  0.00  0.00    +0.056 C 
ENDROOT
BRANCH   1  12
ATOM     10  C   UNL     1      -0.017   1.379   0.010  0.00  0.00    +0.002 A 
ATOM     11  C   UNL     1       1.167   2.089   0.002  0.00  0.00    +0.013 A 
ATOM     12  C   UNL     1       2.384   1.410  -0.013  0.00  0.00    +0.039 A 
ATOM     13  C   UNL     1       2.399   0.015  -0.021  0.00  0.00    +0.070 A 
ATOM     14  C   UNL     1       1.207  -0.685  -0.013  0.00  0.00    +0.060 A 
ATOM     15  C   UNL     1       0.002  -0.004   0.002  0.00  0.00    +0.021 A 
ATOM     16 CL   UNL     1       1.221  -2.421  -0.023  0.00  0.00    -0.082 Cl
ATOM     17 CL   UNL     1       3.910  -0.839  -0.040  0.00  0.00    -0.081 Cl
ENDBRANCH   1  12
BRANCH   5  18
ATOM     18  N   UNL     1       4.709   5.584  -0.004  0.00  0.00    -0.343 N 
ATOM     19  H   UNL     1       5.535   6.093  -0.009  0.00  0.00    +0.144 HD
ATOM     20  H   UNL     1       3.855   6.045   0.011  0.00  0.00    +0.144 HD
ENDBRANCH   5  18
TORSDOF 2
