REMARK  Name = ZINC59475529
REMARK  10 active torsions:
REMARK  status: ('A' for Active; 'I' for Inactive)
REMARK    1  A    between atoms: C_2  and  C_3
REMARK    2  A    between atoms: C_3  and  N_4
REMARK    3  A    between atoms: C_5  and  C_26
REMARK    4  A    between atoms: C_8  and  S_9
REMARK    5  A    between atoms: S_9  and  C_10
REMARK    6  A    between atoms: C_10  and  C_11
REMARK    7  A    between atoms: N_13  and  N_14
REMARK    8  A    between atoms: C_15  and  C_16
REMARK    9  A    between atoms: C_26  and  N_27
REMARK   10  A    between atoms: N_27  and  C_28
REMARK                            x       y       z     vdW  Elec       q    Type
REMARK                         _______ _______ _______ _____ _____    ______ ____
ROOT
ATOM      1  N   UNL     1      -1.348  -1.711  -1.117  0.00  0.00    -0.301 N 
ATOM      2  C   UNL     1      -1.816  -1.458  -2.377  0.00  0.00    +0.152 A 
ATOM      3  N   UNL     1      -1.643  -2.541  -3.079  0.00  0.00    -0.132 NA
ATOM      4  N   UNL     1      -1.101  -3.455  -2.355  0.00  0.00    -0.122 NA
ATOM      5  C   UNL     1      -0.893  -2.998  -1.142  0.00  0.00    +0.192 A 
ENDROOT
BRANCH   1   6
ATOM      6  C   UNL     1      -1.332  -0.789   0.022  0.00  0.00    +0.152 C 
BRANCH   6   8
ATOM      7  C   UNL     1      -0.066   1.298   0.033  0.00  0.00    +0.005 C 
ATOM      8  C   UNL     1      -0.041  -0.012   0.022  0.00  0.00    -0.013 C 
ENDBRANCH   6   8
ENDBRANCH   1   6
BRANCH   5   9
ATOM      9  S   UNL     1      -0.168  -3.880   0.200  0.00  0.00    -0.077 S 
BRANCH   9  10
ATOM     10  C   UNL     1       0.206  -5.511  -0.499  0.00  0.00    +0.174 C 
BRANCH  10  11
ATOM     11  C   UNL     1       0.840  -6.377   0.559  0.00  0.00    +0.242 C 
ATOM     12  O   UNL     1       1.021  -5.937   1.675  0.00  0.00    -0.273 OA
ATOM     13  N   UNL     1       1.205  -7.641   0.266  0.00  0.00    -0.206 N 
ATOM     14  H   UNL     1       1.060  -7.993  -0.626  0.00  0.00    +0.177 HD
BRANCH  13  15
ATOM     15  N   UNL     1       1.794  -8.446   1.250  0.00  0.00    -0.188 NA
ATOM     16  C   UNL     1       2.146  -9.665   0.967  0.00  0.00    +0.139 C 
BRANCH  16  17
ATOM     17  C   UNL     1       2.764 -10.510   2.000  0.00  0.00    +0.002 A 
ATOM     18  C   UNL     1       3.044 -11.848   1.748  0.00  0.00    +0.010 A 
ATOM     19  C   UNL     1       3.628 -12.643   2.725  0.00  0.00    +0.001 A 
ATOM     20  C   UNL     1       3.946 -12.153   3.954  0.00  0.00    +0.008 A 
ATOM     21  C   UNL     1       3.692 -10.809   4.279  0.00  0.00    -0.017 A 
ATOM     22  C   UNL     1       3.103  -9.959   3.311  0.00  0.00    -0.009 A 
ATOM     23  C   UNL     1       2.853  -8.619   3.628  0.00  0.00    +0.009 A 
ATOM     24  C   UNL     1       3.184  -8.146   4.863  0.00  0.00    +0.001 A 
ATOM     25  C   UNL     1       3.769  -8.978   5.815  0.00  0.00    +0.001 A 
ATOM     26  C   UNL     1       4.015 -10.289   5.544  0.00  0.00    +0.008 A 
ENDBRANCH  16  17
ENDBRANCH  13  15
ENDBRANCH  10  11
ENDBRANCH   9  10
ENDBRANCH   5   9
BRANCH   2  27
ATOM     27  C   UNL     1      -2.421  -0.166  -2.862  0.00  0.00    +0.178 C 
BRANCH  27  28
ATOM     28  N   UNL     1      -1.365   0.698  -3.395  0.00  0.00    -0.336 N 
ATOM     29  H   UNL     1      -0.444   0.395  -3.393  0.00  0.00    +0.147 HD
BRANCH  28  30
ATOM     30  C   UNL     1      -1.684   1.954  -3.906  0.00  0.00    +0.035 A 
ATOM     31  C   UNL     1      -2.991   2.393  -3.907  0.00  0.00    +0.023 A 
ATOM     32  C   UNL     1      -3.320   3.647  -4.414  0.00  0.00    +0.002 A 
ATOM     33  C   UNL     1      -2.364   4.472  -4.923  0.00  0.00    +0.008 A 
ATOM     34  C   UNL     1      -1.020   4.063  -4.940  0.00  0.00    -0.016 A 
ATOM     35  C   UNL     1      -0.672   2.792  -4.421  0.00  0.00    +0.003 A 
ATOM     36  C   UNL     1       0.672   2.386  -4.435  0.00  0.00    +0.010 A 
ATOM     37  C   UNL     1       1.623   3.220  -4.941  0.00  0.00    +0.001 A 
ATOM     38  C   UNL     1       1.282   4.473  -5.446  0.00  0.00    +0.001 A 
ATOM     39  C   UNL     1      -0.013   4.894  -5.459  0.00  0.00    +0.008 A 
ENDBRANCH  28  30
ENDBRANCH  27  28
ENDBRANCH   2  27
TORSDOF 10
