REMARK  Name = ZINC23030141
REMARK  5 active torsions:
REMARK  status: ('A' for Active; 'I' for Inactive)
REMARK    1  A    between atoms: C_1  and  C_2
REMARK    2  A    between atoms: C_2  and  C_4
REMARK    3  A    between atoms: C_2  and  N_14
REMARK    4  A    between atoms: C_15  and  C_17
REMARK    5  A    between atoms: N_26  and  C_27
REMARK                            x       y       z     vdW  Elec       q    Type
REMARK                         _______ _______ _______ _____ _____    ______ ____
ROOT
ATOM      1  N   UNL     1       0.023   3.163   3.138  0.00  0.00    -0.312 N 
ATOM      2  C   UNL     1      -1.001   2.383   2.738  0.00  0.00    +0.218 C 
ATOM      3  O   UNL     1      -1.526   1.622   3.523  0.00  0.00    -0.275 OA
ATOM      4  H   UNL     1       0.499   3.853   2.425  0.00  0.00    +0.149 HD
ENDROOT
BRANCH   2   5
ATOM      5  C   UNL     1      -1.494   2.457   1.316  0.00  0.00    +0.092 C 
ATOM      6  C   UNL     1      -2.653   1.472   1.119  0.00  0.00    +0.016 C 
ATOM      7  C   UNL     1      -3.172   1.570  -0.317  0.00  0.00    +0.020 C 
ATOM      8  C   UNL     1      -2.050   1.194  -1.289  0.00  0.00    +0.109 C 
ATOM      9  N   UNL     1      -0.880   2.039  -1.011  0.00  0.00    -0.285 N 
ATOM     10  C   UNL     1      -0.354   2.088   0.360  0.00  0.00    +0.122 C 
ATOM     11  C   UNL     1      -0.301   2.756  -1.995  0.00  0.00    +0.306 C 
ATOM     12  O   UNL     1       0.601   3.527  -1.734  0.00  0.00    -0.252 OA
ATOM     13  N   UNL     1      -0.723   2.617  -3.267  0.00  0.00    -0.269 N 
ATOM     14  H   UNL     1      -1.618   2.017  -3.487  0.00  0.00    +0.156 HD
BRANCH  13  15
ATOM     15  C   UNL     1      -0.022   3.236  -4.308  0.00  0.00    +0.035 A 
ATOM     16  C   UNL     1       1.354   3.397  -4.221  0.00  0.00    +0.023 A 
ATOM     17  C   UNL     1       2.044   4.004  -5.252  0.00  0.00    +0.002 A 
ATOM     18  C   UNL     1       1.363   4.462  -6.366  0.00  0.00    +0.000 A 
ATOM     19  C   UNL     1      -0.008   4.308  -6.453  0.00  0.00    +0.002 A 
ATOM     20  C   UNL     1      -0.703   3.697  -5.428  0.00  0.00    +0.023 A 
ENDBRANCH  13  15
ENDBRANCH   2   5
BRANCH   1  22
ATOM     21  C   UNL     1       1.512   1.950   4.652  0.00  0.00    +0.028 C 
ATOM     22  C   UNL     1       0.502   3.092   4.520  0.00  0.00    +0.076 C 
BRANCH  22  23
ATOM     23  C   UNL     1       1.174   4.413   4.896  0.00  0.00    -0.010 C 
ATOM     24  C   UNL     1       2.357   4.668   3.959  0.00  0.00    +0.012 C 
ATOM     25  C   UNL     1       3.029   5.990   4.335  0.00  0.00    -0.010 C 
ATOM     26  C   UNL     1       3.530   5.916   5.779  0.00  0.00    +0.007 C 
ATOM     27  C   UNL     1       2.347   5.661   6.715  0.00  0.00    -0.010 C 
ATOM     28  C   UNL     1       1.675   4.339   6.340  0.00  0.00    +0.012 C 
ATOM     29  C   UNL     1       1.337   6.803   6.584  0.00  0.00    +0.007 C 
ATOM     30  C   UNL     1       0.837   6.877   5.140  0.00  0.00    -0.010 C 
ATOM     31  C   UNL     1       2.019   7.132   4.203  0.00  0.00    +0.007 C 
ATOM     32  C   UNL     1       0.164   5.555   4.764  0.00  0.00    +0.012 C 
ENDBRANCH  22  23
ENDBRANCH   1  22
TORSDOF 4
