REMARK  Name = ZINC05530651
REMARK  2 active torsions:
REMARK  status: ('A' for Active; 'I' for Inactive)
REMARK    1  A    between atoms: C_6  and  C_7
REMARK    2  A    between atoms: C_8  and  C_9
REMARK                            x       y       z     vdW  Elec       q    Type
REMARK                         _______ _______ _______ _____ _____    ______ ____
ROOT
ATOM      1  C   UNL     1       1.174   1.656  -0.000  0.00  0.00    +0.135 A 
ATOM      2  N   UNL     1      -0.011   0.966   0.007  0.00  0.00    -0.307 N 
ATOM      3  H   UNL     1       0.003  -0.034   0.006  0.00  0.00    +0.170 HD
ATOM      4  C   UNL     1      -1.192   1.611   0.017  0.00  0.00    +0.260 A 
ATOM      5  O   UNL     1      -2.238   0.985   0.018  0.00  0.00    -0.267 OA
ATOM      6  C   UNL     1      -1.203   3.044   0.030  0.00  0.00    +0.075 A 
ATOM      7  C   UNL     1      -2.358   3.940   0.047  0.00  0.00    -0.023 A 
ATOM      8  C   UNL     1      -2.106   5.266   0.052  0.00  0.00    -0.004 A 
ATOM      9  S   UNL     1      -0.338   5.399   0.034  0.00  0.00    -0.073 S 
ATOM     10  C   UNL     1       0.058   3.668   0.021  0.00  0.00    +0.116 A 
ATOM     11  N   UNL     1       1.188   2.977   0.006  0.00  0.00    -0.222 NA
ATOM     12  C   UNL     1      -3.107   6.380   0.068  0.00  0.00    +0.043 C 
ATOM     13  C   UNL     1      -4.482   5.801  -0.295  0.00  0.00    +0.005 C 
ATOM     14  C   UNL     1      -4.719   4.538   0.537  0.00  0.00    +0.005 C 
ATOM     15  C   UNL     1      -3.792   3.419   0.059  0.00  0.00    +0.037 C 
ENDROOT
BRANCH   1  17
ATOM     16  C   UNL     1       3.609   1.590  -0.024  0.00  0.00    +0.011 C 
ATOM     17  C   UNL     1       2.439   0.920  -0.016  0.00  0.00    +0.047 C 
BRANCH  16  23
ATOM     18  C   UNL     1       6.096   1.542  -0.048  0.00  0.00    +0.009 A 
ATOM     19  C   UNL     1       7.284   0.842  -0.063  0.00  0.00    +0.022 A 
ATOM     20  C   UNL     1       7.277  -0.543  -0.070  0.00  0.00    +0.059 A 
ATOM     21  C   UNL     1       6.076  -1.236  -0.063  0.00  0.00    +0.060 A 
ATOM     22  C   UNL     1       4.880  -0.549  -0.042  0.00  0.00    +0.029 A 
ATOM     23  C   UNL     1       4.881   0.850  -0.040  0.00  0.00    -0.023 A 
ATOM     24 CL   UNL     1       6.078  -2.972  -0.073  0.00  0.00    -0.082 Cl
ATOM     25 CL   UNL     1       8.778  -1.415  -0.090  0.00  0.00    -0.082 Cl
ENDBRANCH  16  23
ENDBRANCH   1  17
TORSDOF 2
