REMARK  Name = ZINC01588447
REMARK  13 active torsions:
REMARK  status: ('A' for Active; 'I' for Inactive)
REMARK    1  A    between atoms: C_1  and  C_2
REMARK    2  A    between atoms: C_2  and  C_3
REMARK    3  A    between atoms: C_3  and  C_4
REMARK    4  A    between atoms: C_4  and  C_5
REMARK    5  A    between atoms: C_5  and  C_6
REMARK    6  A    between atoms: C_7  and  C_26
REMARK    7  A    between atoms: C_8  and  C_13
REMARK    8  A    between atoms: C_14  and  C_25
REMARK    9  A    between atoms: C_15  and  C_20
REMARK   10  A    between atoms: C_20  and  C_21
REMARK   11  A    between atoms: C_21  and  C_22
REMARK   12  A    between atoms: C_22  and  C_23
REMARK   13  A    between atoms: C_23  and  C_24
REMARK                            x       y       z     vdW  Elec       q    Type
REMARK                         _______ _______ _______ _____ _____    ______ ____
ROOT
ATOM      1  C   UNL     1      -0.242   1.066   2.960  0.00  0.00    +0.050 A 
ATOM      2  C   UNL     1       0.584   1.799   3.794  0.00  0.00    -0.002 A 
ATOM      3  C   UNL     1       1.735   1.188   4.295  0.00  0.00    +0.098 A 
ATOM      4  N   UNL     1       1.996  -0.072   3.955  0.00  0.00    -0.213 NA
ATOM      5  C   UNL     1       1.179  -0.737   3.154  0.00  0.00    +0.213 A 
ATOM      6  N   UNL     1       0.077  -0.184   2.668  0.00  0.00    -0.219 NA
ATOM      7  N   UNL     1       1.480  -2.046   2.821  0.00  0.00    -0.327 N 
ATOM      8  C   UNL     1       0.249   3.224   4.154  0.00  0.00    +0.048 C 
ATOM      9  H   UNL     1       2.282  -2.465   3.172  0.00  0.00    +0.145 HD
ATOM     10  H   UNL     1       0.890  -2.546   2.235  0.00  0.00    +0.145 HD
ENDROOT
BRANCH   3  11
ATOM     11  C   UNL     1       2.654   1.932   5.193  0.00  0.00    +0.098 A 
ATOM     12  C   UNL     1       3.073   1.371   6.401  0.00  0.00    -0.002 A 
ATOM     13  C   UNL     1       3.935   2.100   7.203  0.00  0.00    +0.050 A 
ATOM     14  N   UNL     1       4.324   3.301   6.810  0.00  0.00    -0.219 NA
ATOM     15  C   UNL     1       3.905   3.811   5.660  0.00  0.00    +0.213 A 
ATOM     16  N   UNL     1       3.086   3.146   4.862  0.00  0.00    -0.213 NA
ATOM     17  N   UNL     1       4.336   5.072   5.285  0.00  0.00    -0.327 N 
ATOM     18  C   UNL     1       2.603   0.001   6.819  0.00  0.00    +0.048 C 
ATOM     19  H   UNL     1       4.037   5.457   4.446  0.00  0.00    +0.145 HD
ATOM     20  H   UNL     1       4.936   5.571   5.861  0.00  0.00    +0.145 HD
BRANCH  13  21
ATOM     21  C   UNL     1       4.419   1.533   8.513  0.00  0.00    +0.056 C 
BRANCH  21  22
ATOM     22  C   UNL     1       3.451   1.929   9.629  0.00  0.00    +0.006 C 
BRANCH  22  23
ATOM     23  C   UNL     1       3.942   1.353  10.959  0.00  0.00    +0.000 C 
BRANCH  23  24
ATOM     24  C   UNL     1       2.974   1.749  12.075  0.00  0.00    -0.003 C 
ATOM     25  C   UNL     1       3.466   1.173  13.405  0.00  0.00    +0.004 C 
ENDBRANCH  23  24
ENDBRANCH  22  23
ENDBRANCH  21  22
ENDBRANCH  13  21
ENDBRANCH   3  11
BRANCH   1  26
ATOM     26  C   UNL     1      -1.496   1.683   2.395  0.00  0.00    +0.056 C 
BRANCH  26  27
ATOM     27  C   UNL     1      -1.176   2.356   1.058  0.00  0.00    +0.006 C 
BRANCH  27  28
ATOM     28  C   UNL     1      -2.448   2.982   0.485  0.00  0.00    +0.000 C 
BRANCH  28  30
ATOM     29  C   UNL     1      -3.401   4.282  -1.425  0.00  0.00    +0.004 C 
ATOM     30  C   UNL     1      -2.128   3.655  -0.851  0.00  0.00    -0.003 C 
ENDBRANCH  28  30
ENDBRANCH  27  28
ENDBRANCH  26  27
ENDBRANCH   1  26
TORSDOF 9
