REMARK  Name = ZINC10051257
REMARK  10 active torsions:
REMARK  status: ('A' for Active; 'I' for Inactive)
REMARK    1  A    between atoms: C_1  and  N_2
REMARK    2  A    between atoms: N_2  and  C_3
REMARK    3  A    between atoms: N_2  and  C_4
REMARK    4  A    between atoms: C_7  and  N_26
REMARK    5  A    between atoms: C_9  and  C_10
REMARK    6  A    between atoms: C_10  and  O_12
REMARK    7  A    between atoms: O_12  and  C_13
REMARK    8  A    between atoms: C_13  and  C_14
REMARK    9  A    between atoms: C_14  and  C_16
REMARK   10  A    between atoms: C_20  and  C_22
REMARK                            x       y       z     vdW  Elec       q    Type
REMARK                         _______ _______ _______ _____ _____    ______ ____
ROOT
ATOM      1  C   UNL     1       1.998   8.348   0.028  0.00  0.00    +0.341 C 
ATOM      2  O   UNL     1       3.127   7.898   0.015  0.00  0.00    -0.245 OA
ENDROOT
BRANCH   1   8
ATOM      3  C   UNL     1       2.883  10.679   0.032  0.00  0.00    +0.043 A 
ATOM      4  C   UNL     1       2.669  12.052   0.042  0.00  0.00    +0.026 A 
ATOM      5  C   UNL     1       1.383  12.551   0.056  0.00  0.00    +0.034 A 
ATOM      6  C   UNL     1       0.296  11.690   0.061  0.00  0.00    +0.127 A 
ATOM      7  C   UNL     1       0.488  10.326   0.046  0.00  0.00    +0.049 A 
ATOM      8  C   UNL     1       1.785   9.805   0.037  0.00  0.00    +0.082 A 
BRANCH   3  10
ATOM      9  C   UNL     1       4.906  10.629  -1.174  0.00  0.00    +0.129 C 
ATOM     10  N   UNL     1       4.177  10.175   0.018  0.00  0.00    -0.335 N 
ATOM     11  C   UNL     1       4.897  10.539   1.246  0.00  0.00    +0.129 C 
ENDBRANCH   3  10
BRANCH   6  12
ATOM     12  N   UNL     1      -1.078  12.240   0.075  0.00  0.00    +0.056 N 
ATOM     13  O   UNL     1      -1.252  13.446   0.083  0.00  0.00    -0.126 OA
ATOM     14  O   UNL     1      -2.036  11.487   0.080  0.00  0.00    -0.126 OA
ENDBRANCH   6  12
ENDBRANCH   1   8
BRANCH   1  15
ATOM     15  O   UNL     1       0.940   7.512   0.033  0.00  0.00    -0.453 OA
BRANCH  15  16
ATOM     16  C   UNL     1       1.225   6.088   0.023  0.00  0.00    +0.311 C 
BRANCH  16  17
ATOM     17  C   UNL     1      -0.070   5.317   0.030  0.00  0.00    +0.200 C 
ATOM     18  O   UNL     1      -1.128   5.909   0.043  0.00  0.00    -0.288 OA
BRANCH  17  19
ATOM     19  C   UNL     1      -0.050   3.846   0.022  0.00  0.00    +0.021 A 
ATOM     20  C   UNL     1       1.169   3.159   0.007  0.00  0.00    +0.011 A 
ATOM     21  C   UNL     1       1.179   1.781   0.000  0.00  0.00    +0.001 A 
ATOM     22  C   UNL     1      -0.013   1.076   0.008  0.00  0.00    +0.012 A 
ATOM     23  C   UNL     1      -1.222   1.748   0.017  0.00  0.00    +0.055 A 
ATOM     24  C   UNL     1      -1.249   3.127   0.030  0.00  0.00    +0.023 A 
BRANCH  23  25
ATOM     25  C   UNL     1      -2.514   0.971   0.019  0.00  0.00    +0.417 C 
ATOM     26  F   UNL     1      -2.233  -0.400   0.011  0.00  0.00    -0.166 F 
ATOM     27  F   UNL     1      -3.248   1.289   1.167  0.00  0.00    -0.166 F 
ATOM     28  F   UNL     1      -3.259   1.302  -1.118  0.00  0.00    -0.166 F 
ENDBRANCH  23  25
ENDBRANCH  17  19
ENDBRANCH  16  17
ENDBRANCH  15  16
ENDBRANCH   1  15
TORSDOF 8
