REMARK  Name = ZINC43400736
REMARK  7 active torsions:
REMARK  status: ('A' for Active; 'I' for Inactive)
REMARK    1  A    between atoms: C_1  and  C_2
REMARK    2  A    between atoms: C_2  and  C_3
REMARK    3  A    between atoms: C_3  and  C_4
REMARK    4  A    between atoms: C_9  and  S_12
REMARK    5  A    between atoms: S_12  and  C_13
REMARK    6  A    between atoms: C_14  and  C_20
REMARK    7  A    between atoms: C_17  and  C_19
REMARK                            x       y       z     vdW  Elec       q    Type
REMARK                         _______ _______ _______ _____ _____    ______ ____
ROOT
ATOM      1  C   UNL     1       0.739  -2.004  -1.265  0.00  0.00    +0.049 A 
ATOM      2  C   UNL     1      -0.227  -2.695  -1.938  0.00  0.00    +0.093 A 
ATOM      3  C   UNL     1      -0.187  -4.101  -1.932  0.00  0.00    +0.252 A 
ATOM      4  O   UNL     1      -1.034  -4.750  -2.523  0.00  0.00    -0.268 OA
ATOM      5  N   UNL     1       0.807  -4.718  -1.259  0.00  0.00    -0.302 N 
ATOM      6  C   UNL     1       1.744  -3.977  -0.606  0.00  0.00    +0.175 A 
ATOM      7  N   UNL     1       1.702  -2.659  -0.621  0.00  0.00    -0.228 NA
ATOM      8  H   UNL     1       0.855  -5.687  -1.241  0.00  0.00    +0.171 HD
ENDROOT
BRANCH   1   9
ATOM      9  C   UNL     1       0.718  -0.497  -1.257  0.00  0.00    +0.055 C 
BRANCH   9  11
ATOM     10  C   UNL     1      -0.019   1.526   0.010  0.00  0.00    +0.004 C 
ATOM     11  C   UNL     1       0.002  -0.004   0.002  0.00  0.00    +0.003 C 
ENDBRANCH   9  11
ENDBRANCH   1   9
BRANCH   6  12
ATOM     12  S   UNL     1       3.038  -4.791   0.269  0.00  0.00    -0.031 S 
BRANCH  12  13
ATOM     13  C   UNL     1       3.992  -3.473   0.944  0.00  0.00    +0.122 A 
ATOM     14  C   UNL     1       5.133  -3.759   1.714  0.00  0.00    +0.084 A 
ATOM     15  C   UNL     1       5.875  -2.695   2.239  0.00  0.00    +0.023 A 
ATOM     16  C   UNL     1       5.451  -1.404   1.975  0.00  0.00    +0.024 A 
ATOM     17  C   UNL     1       4.318  -1.203   1.208  0.00  0.00    +0.040 A 
ATOM     18  N   UNL     1       3.635  -2.219   0.718  0.00  0.00    -0.244 NA
ATOM     19  C   UNL     1       3.859   0.204   0.921  0.00  0.00    +0.065 C 
BRANCH  14  20
ATOM     20  C   UNL     1       5.527  -5.113   1.958  0.00  0.00    +0.102 C 
ATOM     21  N   UNL     1       5.840  -6.188   2.152  0.00  0.00    -0.191 NA
ENDBRANCH  14  20
ENDBRANCH  12  13
ENDBRANCH   6  12
TORSDOF 5
