REMARK  Name = ZINC66856519
REMARK  6 active torsions:
REMARK  status: ('A' for Active; 'I' for Inactive)
REMARK    1  A    between atoms: C_1  and  C_2
REMARK    2  A    between atoms: C_2  and  C_4
REMARK    3  A    between atoms: C_2  and  N_22
REMARK    4  A    between atoms: N_6  and  C_7
REMARK    5  A    between atoms: C_10  and  C_13
REMARK    6  A    between atoms: C_23  and  C_25
REMARK                            x       y       z     vdW  Elec       q    Type
REMARK                         _______ _______ _______ _____ _____    ______ ____
ROOT
ATOM      1  C   UNL     1       0.692  -0.448  -1.268  0.00  0.00    +0.237 C 
ATOM      2  O   UNL     1       0.097  -1.117  -2.086  0.00  0.00    -0.273 OA
ATOM      3  N   UNL     1       1.991  -0.146  -1.462  0.00  0.00    -0.284 N 
ATOM      4  H   UNL     1       2.450   0.443  -0.842  0.00  0.00    +0.155 HD
ENDROOT
BRANCH   3   5
ATOM      5  C   UNL     1       2.678  -0.680  -2.556  0.00  0.00    +0.033 A 
ATOM      6  C   UNL     1       2.019  -0.861  -3.766  0.00  0.00    +0.024 A 
ATOM      7  C   UNL     1       2.693  -1.388  -4.847  0.00  0.00    +0.013 A 
ATOM      8  C   UNL     1       4.038  -1.740  -4.725  0.00  0.00    +0.019 A 
ATOM      9  C   UNL     1       4.697  -1.556  -3.507  0.00  0.00    +0.013 A 
ATOM     10  C   UNL     1       4.019  -1.024  -2.432  0.00  0.00    +0.024 A 
BRANCH   8  11
ATOM     11  C   UNL     1       4.764  -2.305  -5.882  0.00  0.00    +0.164 A 
ATOM     12  N   UNL     1       5.904  -2.967  -5.849  0.00  0.00    -0.129 NA
ATOM     13  N   UNL     1       6.243  -3.312  -7.043  0.00  0.00    -0.134 NA
ATOM     14  C   UNL     1       5.352  -2.897  -7.893  0.00  0.00    +0.134 A 
ATOM     15  N   UNL     1       4.383  -2.249  -7.186  0.00  0.00    -0.311 N 
ATOM     16  C   UNL     1       3.194  -1.631  -7.772  0.00  0.00    +0.125 C 
ATOM     17  C   UNL     1       3.421  -1.459  -9.278  0.00  0.00    +0.022 C 
ATOM     18  C   UNL     1       3.901  -2.783  -9.880  0.00  0.00    +0.009 C 
ATOM     19  C   UNL     1       5.329  -3.071  -9.391  0.00  0.00    +0.076 C 
ENDBRANCH   8  11
ENDBRANCH   3   5
BRANCH   1  21
ATOM     20  C   UNL     1       0.012   1.573  -0.003  0.00  0.00    +0.038 C 
ATOM     21  C   UNL     1      -0.020   0.044  -0.034  0.00  0.00    +0.156 C 
BRANCH  21  22
ATOM     22  N   UNL     1      -1.411  -0.415  -0.058  0.00  0.00    -0.304 N 
ATOM     23  C   UNL     1      -2.095  -0.554   1.095  0.00  0.00    +0.217 C 
ATOM     24  O   UNL     1      -1.559  -0.298   2.152  0.00  0.00    -0.275 OA
ATOM     25  H   UNL     1      -1.840  -0.620  -0.904  0.00  0.00    +0.149 HD
BRANCH  23  26
ATOM     26  C   UNL     1      -3.526  -1.026   1.071  0.00  0.00    +0.075 C 
ATOM     27  C   UNL     1      -4.372  -0.047   0.254  0.00  0.00    +0.013 C 
ATOM     28  C   UNL     1      -5.825  -0.526   0.230  0.00  0.00    +0.001 C 
ATOM     29  C   UNL     1      -6.364  -0.596   1.660  0.00  0.00    +0.000 C 
ATOM     30  C   UNL     1      -5.517  -1.575   2.476  0.00  0.00    +0.001 C 
ATOM     31  C   UNL     1      -4.064  -1.096   2.501  0.00  0.00    +0.013 C 
ENDBRANCH  23  26
ENDBRANCH  21  22
ENDBRANCH   1  21
TORSDOF 5
