REMARK  Name = ZINC06194950
REMARK  9 active torsions:
REMARK  status: ('A' for Active; 'I' for Inactive)
REMARK    1  A    between atoms: C_1  and  C_2
REMARK    2  A    between atoms: C_6  and  C_15
REMARK    3  A    between atoms: C_13  and  C_14
REMARK    4  A    between atoms: C_15  and  C_17
REMARK    5  A    between atoms: C_15  and  N_76
REMARK    6  A    between atoms: N_21  and  C_22
REMARK    7  A    between atoms: N_30  and  C_33
REMARK    8  A    between atoms: C_36  and  O_39
REMARK    9  A    between atoms: O_39  and  C_40
REMARK                            x       y       z     vdW  Elec       q    Type
REMARK                         _______ _______ _______ _____ _____    ______ ____
ROOT
ATOM      1  C   UNL     1      -4.986   3.843   0.045  0.00  0.00    +0.039 C 
ENDROOT
BRANCH   1   7
ATOM      2  C   UNL     1       2.471   3.924  -0.002  0.00  0.00    +0.044 C 
ATOM      3  C   UNL     1       1.165   3.172   0.007  0.00  0.00    -0.047 A 
ATOM      4  C   UNL     1      -0.014   3.863   0.021  0.00  0.00    +0.013 A 
ATOM      5  C   UNL     1      -1.226   3.165   0.030  0.00  0.00    -0.001 A 
ATOM      6  C   UNL     1      -2.507   3.874   0.045  0.00  0.00    +0.017 A 
ATOM      7  C   UNL     1      -3.650   3.145   0.035  0.00  0.00    +0.011 A 
ATOM      8  C   UNL     1      -3.594   1.735   0.028  0.00  0.00    +0.251 A 
ATOM      9  O   UNL     1      -4.634   1.099   0.030  0.00  0.00    -0.268 OA
ATOM     10  N   UNL     1      -2.423   1.075   0.019  0.00  0.00    -0.322 N 
ATOM     11  H   UNL     1      -2.420   0.105   0.014  0.00  0.00    +0.169 HD
ATOM     12  C   UNL     1      -1.225   1.757   0.017  0.00  0.00    +0.049 A 
ATOM     13  C   UNL     1      -0.013   1.076   0.008  0.00  0.00    +0.030 A 
ATOM     14  C   UNL     1       1.170   1.784   0.001  0.00  0.00    -0.046 A 
ATOM     15  C   UNL     1       2.482   1.043  -0.015  0.00  0.00    +0.044 C 
ENDBRANCH   1   7
BRANCH   1  21
ATOM     16  C   UNL     1      -5.085   3.571  -2.359  0.00  0.00    -0.058 C 
ATOM     17  C   UNL     1      -5.923   2.996  -3.503  0.00  0.00    +0.086 C 
ATOM     18  N   UNL     1      -7.236   3.657  -3.525  0.00  0.00    -0.333 N 
ATOM     19  C   UNL     1      -7.944   3.457  -2.254  0.00  0.00    +0.086 C 
ATOM     20  C   UNL     1      -7.106   4.032  -1.109  0.00  0.00    -0.058 C 
ATOM     21  N   UNL     1      -5.798   3.344  -1.085  0.00  0.00    +0.391 N 
ATOM     22  H   UNL     1      -5.954   2.336  -0.964  0.00  0.00    -0.080 HD
BRANCH  18  23
ATOM     23  C   UNL     1      -8.005   3.208  -4.604  0.00  0.00    +0.030 A 
ATOM     24  C   UNL     1      -9.260   2.656  -4.381  0.00  0.00    +0.027 A 
ATOM     25  C   UNL     1     -10.021   2.218  -5.447  0.00  0.00    +0.047 A 
ATOM     26  C   UNL     1      -9.527   2.318  -6.739  0.00  0.00    +0.120 A 
ATOM     27  C   UNL     1      -8.272   2.865  -6.963  0.00  0.00    +0.047 A 
ATOM     28  C   UNL     1      -7.512   3.308  -5.899  0.00  0.00    +0.027 A 
BRANCH  26  29
ATOM     29  O   UNL     1     -10.275   1.881  -7.788  0.00  0.00    -0.495 OA
ATOM     30  C   UNL     1     -11.558   1.330  -7.485  0.00  0.00    +0.277 C 
ENDBRANCH  26  29
ENDBRANCH  18  23
ENDBRANCH   1  21
BRANCH   1  31
ATOM     31  C   UNL     1      -5.703   3.538   1.335  0.00  0.00    +0.143 A 
ATOM     32  N   UNL     1      -6.298   2.414   1.653  0.00  0.00    -0.115 NA
ATOM     33  N   UNL     1      -6.790   2.544   2.837  0.00  0.00    -0.023 NA
ATOM     34  N   UNL     1      -6.529   3.724   3.280  0.00  0.00    -0.044 NA
ATOM     35  N   UNL     1      -5.861   4.368   2.383  0.00  0.00    -0.227 N 
BRANCH  35  36
ATOM     36  C   UNL     1      -5.365   5.742   2.486  0.00  0.00    +0.111 C 
ATOM     37  C   UNL     1      -4.411   5.853   3.677  0.00  0.00    +0.027 C 
ATOM     38  C   UNL     1      -3.894   7.289   3.785  0.00  0.00    +0.002 C 
ATOM     39  C   UNL     1      -5.074   8.242   3.987  0.00  0.00    +0.000 C 
ATOM     40  C   UNL     1      -6.028   8.132   2.796  0.00  0.00    +0.002 C 
ATOM     41  C   UNL     1      -6.545   6.696   2.688  0.00  0.00    +0.027 C 
ENDBRANCH  35  36
ENDBRANCH   1  31
TORSDOF 6
