REMARK  Name = ZINC57488133
REMARK  6 active torsions:
REMARK  status: ('A' for Active; 'I' for Inactive)
REMARK    1  A    between atoms: C_1  and  C_2
REMARK    2  A    between atoms: C_7  and  N_8
REMARK    3  A    between atoms: C_9  and  C_11
REMARK    4  A    between atoms: C_11  and  S_12
REMARK    5  A    between atoms: S_12  and  C_13
REMARK    6  A    between atoms: N_22  and  C_23
REMARK                            x       y       z     vdW  Elec       q    Type
REMARK                         _______ _______ _______ _____ _____    ______ ____
ROOT
ATOM      1  C   UNL     1      -0.400  -0.113   7.686  0.00  0.00    +0.177 A 
ATOM      2  N   UNL     1      -0.411   1.184   7.534  0.00  0.00    -0.222 NA
ATOM      3  C   UNL     1      -0.488   2.036   8.599  0.00  0.00    +0.086 A 
ATOM      4  C   UNL     1      -0.510   3.438   8.592  0.00  0.00    +0.036 A 
ATOM      5  C   UNL     1      -0.591   4.122   9.754  0.00  0.00    +0.048 A 
ATOM      6  S   UNL     1      -0.644   2.820  10.974  0.00  0.00    -0.090 S 
ATOM      7  C   UNL     1      -0.556   1.436   9.869  0.00  0.00    +0.102 A 
ATOM      8  C   UNL     1      -0.543   0.052  10.024  0.00  0.00    +0.274 A 
ATOM      9  O   UNL     1      -0.602  -0.454  11.132  0.00  0.00    -0.266 OA
ATOM     10  N   UNL     1      -0.470  -0.717   8.911  0.00  0.00    -0.255 N 
ENDROOT
BRANCH  10  11
ATOM     11  C   UNL     1      -0.460  -2.114   9.015  0.00  0.00    +0.052 A 
ATOM     12  C   UNL     1       0.673  -2.830   8.651  0.00  0.00    +0.028 A 
ATOM     13  C   UNL     1       0.680  -4.208   8.754  0.00  0.00    +0.022 A 
ATOM     14  C   UNL     1      -0.440  -4.874   9.219  0.00  0.00    +0.041 A 
ATOM     15  C   UNL     1      -1.571  -4.162   9.582  0.00  0.00    +0.022 A 
ATOM     16  C   UNL     1      -1.580  -2.785   9.487  0.00  0.00    +0.028 A 
ATOM     17 CL   UNL     1      -0.428  -6.605   9.346  0.00  0.00    -0.084 Cl
ENDBRANCH  10  11
BRANCH   1  18
ATOM     18  S   UNL     1      -0.298  -1.129   6.250  0.00  0.00    -0.078 S 
BRANCH  18  19
ATOM     19  C   UNL     1      -0.227   0.055   4.878  0.00  0.00    +0.173 C 
BRANCH  19  21
ATOM     20  N   UNL     1      -0.071  -0.014   2.411  0.00  0.00    -0.285 N 
ATOM     21  C   UNL     1      -0.136  -0.693   3.573  0.00  0.00    +0.227 C 
ATOM     22  O   UNL     1      -0.122  -1.906   3.569  0.00  0.00    -0.275 OA
ATOM     23  H   UNL     1      -0.022   0.955   2.417  0.00  0.00    +0.155 HD
BRANCH  20  30
ATOM     24  C   UNL     1      -1.386   1.180   0.188  0.00  0.00    +0.046 C 
ATOM     25  C   UNL     1      -0.705  -0.161   0.084  0.00  0.00    -0.027 A 
ATOM     26  C   UNL     1      -0.703  -0.843  -1.117  0.00  0.00    +0.043 A 
ATOM     27  C   UNL     1      -0.077  -2.075  -1.212  0.00  0.00    +0.124 A 
ATOM     28  C   UNL     1       0.547  -2.625  -0.105  0.00  0.00    +0.040 A 
ATOM     29  C   UNL     1       0.546  -1.946   1.097  0.00  0.00    +0.026 A 
ATOM     30  C   UNL     1      -0.075  -0.707   1.194  0.00  0.00    +0.037 A 
ATOM     31  F   UNL     1      -0.075  -2.741  -2.388  0.00  0.00    -0.205 F 
ENDBRANCH  20  30
ENDBRANCH  19  21
ENDBRANCH  18  19
ENDBRANCH   1  18
TORSDOF 5
