REMARK  Name = ZINC21642713
REMARK  9 active torsions:
REMARK  status: ('A' for Active; 'I' for Inactive)
REMARK    1  A    between atoms: C_1  and  C_2
REMARK    2  A    between atoms: C_5  and  C_8
REMARK    3  A    between atoms: C_8  and  C_10
REMARK    4  A    between atoms: C_8  and  N_15
REMARK    5  A    between atoms: C_16  and  C_18
REMARK    6  A    between atoms: N_23  and  C_25
REMARK    7  A    between atoms: C_25  and  C_26
REMARK    8  A    between atoms: C_26  and  O_27
REMARK    9  A    between atoms: O_27  and  C_28
REMARK                            x       y       z     vdW  Elec       q    Type
REMARK                         _______ _______ _______ _____ _____    ______ ____
ROOT
ATOM      1  N   UNL     1      -0.924   3.413   0.913  0.00  0.00    -0.299 N 
ATOM      2  C   UNL     1      -1.163   3.301   2.235  0.00  0.00    +0.265 C 
ATOM      3  O   UNL     1      -1.609   2.264   2.686  0.00  0.00    -0.268 OA
ATOM      4  H   UNL     1      -0.521   4.351   0.505  0.00  0.00    +0.150 HD
ENDROOT
BRANCH   2   5
ATOM      5  C   UNL     1      -0.885   4.440   3.136  0.00  0.00    +0.146 A 
ATOM      6  C   UNL     1      -1.138   4.320   4.524  0.00  0.00    +0.040 A 
ATOM      7  C   UNL     1      -0.868   5.391   5.323  0.00  0.00    +0.074 A 
ATOM      8  C   UNL     1      -0.352   6.557   4.716  0.00  0.00    +0.267 A 
ATOM      9  O   UNL     1      -0.095   7.539   5.392  0.00  0.00    -0.266 OA
ATOM     10  N   UNL     1      -0.144   6.577   3.386  0.00  0.00    -0.226 N 
ATOM     11  N   UNL     1      -0.398   5.558   2.646  0.00  0.00    -0.163 NA
BRANCH  10  12
ATOM     12  C   UNL     1       0.392   7.791   2.766  0.00  0.00    +0.188 C 
BRANCH  12  13
ATOM     13  C   UNL     1       1.921   7.724   2.753  0.00  0.00    +0.252 C 
BRANCH  13  14
ATOM     14  O   UNL     1       2.343   6.651   1.909  0.00  0.00    -0.490 OA
BRANCH  14  15
ATOM     15  C   UNL     1       3.682   6.454   1.786  0.00  0.00    +0.121 A 
ATOM     16  C   UNL     1       4.571   7.279   2.459  0.00  0.00    +0.045 A 
ATOM     17  C   UNL     1       5.931   7.072   2.337  0.00  0.00    +0.004 A 
ATOM     18  C   UNL     1       6.407   6.051   1.536  0.00  0.00    +0.000 A 
ATOM     19  C   UNL     1       5.524   5.230   0.860  0.00  0.00    +0.004 A 
ATOM     20  C   UNL     1       4.162   5.429   0.983  0.00  0.00    +0.045 A 
ENDBRANCH  14  15
ENDBRANCH  13  14
ENDBRANCH  12  13
ENDBRANCH  10  12
ENDBRANCH   2   5
BRANCH   1  21
ATOM     21  C   UNL     1      -1.200   2.284   0.020  0.00  0.00    +0.140 C 
BRANCH  21  26
ATOM     22  C   UNL     1      -2.154   4.249  -5.330  0.00  0.00    +0.044 C 
ATOM     23  C   UNL     1      -1.905   3.737  -3.934  0.00  0.00    -0.050 A 
ATOM     24  C   UNL     1      -2.672   2.703  -3.431  0.00  0.00    +0.004 A 
ATOM     25  C   UNL     1      -2.443   2.232  -2.151  0.00  0.00    +0.006 A 
ATOM     26  C   UNL     1      -1.448   2.797  -1.375  0.00  0.00    -0.022 A 
ATOM     27  C   UNL     1      -0.685   3.834  -1.876  0.00  0.00    +0.006 A 
ATOM     28  C   UNL     1      -0.910   4.301  -3.158  0.00  0.00    +0.004 A 
ENDBRANCH  21  26
BRANCH  21  29
ATOM     29  C   UNL     1      -0.016   1.351   0.009  0.00  0.00    +0.014 A 
ATOM     30  C   UNL     1       0.002  -0.004   0.002  0.00  0.00    +0.013 A 
ATOM     31  C   UNL     1       1.220  -0.658  -0.013  0.00  0.00    +0.008 A 
ATOM     32  C   UNL     1       2.360   0.076  -0.020  0.00  0.00    +0.045 A 
ATOM     33  S   UNL     1       1.725   1.744  -0.005  0.00  0.00    -0.099 S 
ENDBRANCH  21  29
ENDBRANCH   1  21
TORSDOF 8
