REMARK  Name = ZINC59105843
REMARK  5 active torsions:
REMARK  status: ('A' for Active; 'I' for Inactive)
REMARK    1  A    between atoms: C_5  and  C_7
REMARK    2  A    between atoms: C_7  and  O_8
REMARK    3  A    between atoms: O_8  and  C_9
REMARK    4  A    between atoms: C_12  and  C_16
REMARK    5  A    between atoms: N_22  and  C_23
REMARK                            x       y       z     vdW  Elec       q    Type
REMARK                         _______ _______ _______ _____ _____    ______ ____
ROOT
ATOM      1  C   UNL     1      -0.188  -4.044  -0.214  0.00  0.00    +0.135 A 
ATOM      2  C   UNL     1       0.862  -4.902  -0.518  0.00  0.00    +0.047 A 
ATOM      3  C   UNL     1       0.678  -6.266  -0.463  0.00  0.00    +0.011 A 
ATOM      4  C   UNL     1      -0.569  -6.787  -0.098  0.00  0.00    -0.023 A 
ATOM      5  C   UNL     1      -1.624  -5.918   0.208  0.00  0.00    +0.027 A 
ATOM      6  C   UNL     1      -1.427  -4.556   0.154  0.00  0.00    +0.060 A 
ATOM      7 BR   UNL     1      -2.847  -3.380   0.573  0.00  0.00    -0.046 Br
ENDROOT
BRANCH   4   8
ATOM      8  C   UNL     1      -0.771  -8.241  -0.037  0.00  0.00    +0.028 C 
ATOM      9  C   UNL     1       0.210  -9.042   0.450  0.00  0.00    +0.078 C 
ATOM     10  C   UNL     1       1.470  -8.675   1.123  0.00  0.00    +0.256 C 
ATOM     11  O   UNL     1       1.771  -7.513   1.321  0.00  0.00    -0.269 OA
ATOM     12  N   UNL     1       2.259  -9.667   1.502  0.00  0.00    -0.260 N 
ATOM     13  C   UNL     1       1.900 -10.977   1.269  0.00  0.00    +0.166 C 
ATOM     14  N   UNL     1       2.559 -12.072   1.577  0.00  0.00    -0.226 NA
ATOM     15  S   UNL     1       0.318 -10.826   0.455  0.00  0.00    -0.049 S 
ATOM     16  H   UNL     1       3.097  -9.471   1.948  0.00  0.00    +0.157 HD
BRANCH  14  17
ATOM     17  C   UNL     1       2.037 -13.297   1.261  0.00  0.00    +0.067 A 
ATOM     18  C   UNL     1       0.689 -13.569   1.505  0.00  0.00    +0.030 A 
ATOM     19  C   UNL     1       0.168 -14.805   1.184  0.00  0.00    +0.040 A 
ATOM     20  C   UNL     1       0.979 -15.776   0.621  0.00  0.00    +0.124 A 
ATOM     21  C   UNL     1       2.317 -15.513   0.376  0.00  0.00    +0.040 A 
ATOM     22  C   UNL     1       2.848 -14.279   0.688  0.00  0.00    +0.030 A 
ATOM     23  F   UNL     1       0.463 -16.985   0.308  0.00  0.00    -0.205 F 
ENDBRANCH  14  17
ENDBRANCH   4   8
BRANCH   1  24
ATOM     24  O   UNL     1      -0.001  -2.700  -0.271  0.00  0.00    -0.486 OA
BRANCH  24  25
ATOM     25  C   UNL     1       1.297  -2.241  -0.656  0.00  0.00    +0.267 C 
BRANCH  25  30
ATOM     26  C   UNL     1       0.193   1.355  -0.333  0.00  0.00    +0.001 A 
ATOM     27  C   UNL     1       1.349   2.032  -0.676  0.00  0.00    +0.003 A 
ATOM     28  C   UNL     1       2.489   1.327  -1.013  0.00  0.00    +0.039 A 
ATOM     29  C   UNL     1       2.473  -0.058  -1.007  0.00  0.00    +0.130 A 
ATOM     30  C   UNL     1       1.315  -0.734  -0.663  0.00  0.00    +0.025 A 
ATOM     31  C   UNL     1       0.176  -0.027  -0.326  0.00  0.00    +0.010 A 
ATOM     32  F   UNL     1       3.587  -0.748  -1.336  0.00  0.00    -0.205 F 
ENDBRANCH  25  30
ENDBRANCH  24  25
ENDBRANCH   1  24
TORSDOF 5
