REMARK  Name = ZINC64873595
REMARK  8 active torsions:
REMARK  status: ('A' for Active; 'I' for Inactive)
REMARK    1  A    between atoms: C_1  and  C_2
REMARK    2  A    between atoms: C_2  and  C_4
REMARK    3  A    between atoms: C_2  and  N_33
REMARK    4  A    between atoms: C_4  and  C_5
REMARK    5  A    between atoms: C_5  and  N_6
REMARK    6  A    between atoms: C_7  and  C_9
REMARK    7  A    between atoms: N_18  and  C_26
REMARK    8  A    between atoms: C_26  and  C_27
REMARK                            x       y       z     vdW  Elec       q    Type
REMARK                         _______ _______ _______ _____ _____    ______ ____
ROOT
ATOM      1  C   UNL     1       2.122  -4.548   3.611  0.00  0.00    +0.078 C 
ATOM      2  C   UNL     1       3.597  -4.165   3.746  0.00  0.00    +0.031 C 
ATOM      3  C   UNL     1       4.155  -4.750   5.047  0.00  0.00    +0.107 C 
ATOM      4  N   UNL     1       3.904  -6.198   5.060  0.00  0.00    -0.311 N 
ATOM      5  C   UNL     1       2.532  -6.679   4.847  0.00  0.00    +0.107 C 
ATOM      6  C   UNL     1       1.992  -6.071   3.549  0.00  0.00    +0.031 C 
ATOM      7  C   UNL     1       4.940  -7.091   5.267  0.00  0.00    +0.188 A 
ATOM      8  C   UNL     1       6.331  -6.604   5.335  0.00  0.00    +0.292 A 
ATOM      9  O   UNL     1       6.576  -5.419   5.209  0.00  0.00    -0.264 OA
ATOM     10  N   UNL     1       7.329  -7.492   5.538  0.00  0.00    -0.300 N 
ATOM     11  C   UNL     1       7.017  -8.832   5.677  0.00  0.00    +0.071 A 
ATOM     12  C   UNL     1       8.026  -9.767   5.888  0.00  0.00    +0.028 A 
ATOM     13  C   UNL     1       7.708 -11.101   6.026  0.00  0.00    +0.002 A 
ATOM     14  C   UNL     1       6.386 -11.520   5.956  0.00  0.00    +0.002 A 
ATOM     15  C   UNL     1       5.381 -10.620   5.750  0.00  0.00    +0.030 A 
ATOM     16  C   UNL     1       5.679  -9.257   5.607  0.00  0.00    +0.090 A 
ATOM     17  N   UNL     1       4.684  -8.367   5.409  0.00  0.00    -0.225 NA
ENDROOT
BRANCH   1  19
ATOM     18  N   UNL     1       1.568  -2.607   2.180  0.00  0.00    -0.315 N 
ATOM     19  C   UNL     1       1.560  -3.944   2.349  0.00  0.00    +0.216 C 
ATOM     20  O   UNL     1       1.102  -4.662   1.485  0.00  0.00    -0.276 OA
ATOM     21  H   UNL     1       1.934  -2.033   2.870  0.00  0.00    +0.149 HD
BRANCH  18  22
ATOM     22  C   UNL     1       1.022  -2.021   0.953  0.00  0.00    +0.102 C 
BRANCH  22  23
ATOM     23  C   UNL     1       1.151  -0.497   1.015  0.00  0.00    +0.003 C 
BRANCH  23  25
ATOM     24  C   UNL     1       1.219  -0.289  -1.474  0.00  0.00    -0.013 C 
ATOM     25  C   UNL     1       0.468   0.122  -0.206  0.00  0.00    -0.070 C 
BRANCH  25  26
ATOM     26  N   UNL     1       0.480   1.586  -0.083  0.00  0.00    +0.381 N 
ATOM     27  C   UNL     1      -0.342   2.197  -1.159  0.00  0.00    -0.079 C 
ATOM     28  C   UNL     1      -0.692   3.594  -0.588  0.00  0.00    -0.020 C 
ATOM     29  C   UNL     1      -0.910   3.309   0.915  0.00  0.00    -0.020 C 
ATOM     30  C   UNL     1      -0.153   1.996   1.190  0.00  0.00    -0.079 C 
ATOM     31  H   UNL     1       1.426   1.932  -0.128  0.00  0.00    -0.081 HD
ENDBRANCH  25  26
ENDBRANCH  23  25
ENDBRANCH  22  23
ENDBRANCH  18  22
ENDBRANCH   1  19
BRANCH  10  32
ATOM     32  C   UNL     1       8.721  -7.041   5.610  0.00  0.00    +0.160 C 
BRANCH  32  33
ATOM     33  C   UNL     1       9.069  -6.710   7.038  0.00  0.00    -0.028 A 
ATOM     34  C   UNL     1       8.866  -5.431   7.521  0.00  0.00    +0.005 A 
ATOM     35  C   UNL     1       9.185  -5.127   8.831  0.00  0.00    +0.000 A 
ATOM     36  C   UNL     1       9.706  -6.104   9.659  0.00  0.00    +0.000 A 
ATOM     37  C   UNL     1       9.908  -7.383   9.177  0.00  0.00    +0.000 A 
ATOM     38  C   UNL     1       9.585  -7.688   7.868  0.00  0.00    +0.005 A 
ENDBRANCH  32  33
ENDBRANCH  10  32
TORSDOF 7
