REMARK  Name = ZINC36186848
REMARK  10 active torsions:
REMARK  status: ('A' for Active; 'I' for Inactive)
REMARK    1  A    between atoms: C_1  and  C_2
REMARK    2  A    between atoms: C_2  and  O_3
REMARK    3  A    between atoms: O_3  and  C_4
REMARK    4  A    between atoms: C_11  and  C_38
REMARK    5  A    between atoms: C_12  and  C_27
REMARK    6  A    between atoms: N_19  and  C_20
REMARK    7  A    between atoms: C_23  and  C_26
REMARK    8  A    between atoms: N_29  and  C_30
REMARK    9  A    between atoms: C_33  and  C_37
REMARK   10  A    between atoms: C_35  and  C_36
REMARK                            x       y       z     vdW  Elec       q    Type
REMARK                         _______ _______ _______ _____ _____    ______ ____
ROOT
ATOM      1  C   UNL     1       0.620  -0.889   2.757  0.00  0.00    +0.162 A 
ATOM      2  C   UNL     1      -0.225  -1.356   1.764  0.00  0.00    +0.049 A 
ATOM      3  C   UNL     1      -0.260  -2.705   1.464  0.00  0.00    +0.004 A 
ATOM      4  C   UNL     1       0.551  -3.586   2.153  0.00  0.00    +0.009 A 
ATOM      5  C   UNL     1       1.399  -3.125   3.146  0.00  0.00    +0.019 A 
ATOM      6  C   UNL     1       1.440  -1.778   3.453  0.00  0.00    +0.170 A 
ATOM      7  O   UNL     1       2.248  -1.288   4.429  0.00  0.00    -0.463 OA
ATOM      8  C   UNL     1       3.263  -2.132   4.967  0.00  0.00    +0.194 C 
ATOM      9  C   UNL     1       2.659  -3.518   5.233  0.00  0.00    +0.163 C 
ATOM     10  C   UNL     1       2.281  -4.115   3.873  0.00  0.00    +0.123 C 
ATOM     11  N   UNL     1       3.527  -4.243   3.099  0.00  0.00    -0.318 N 
ATOM     12  C   UNL     1       4.479  -3.301   3.208  0.00  0.00    +0.141 C 
ATOM     13  S   UNL     1       5.879  -3.428   2.230  0.00  0.00    -0.018 S 
ATOM     14  N   UNL     1       4.380  -2.262   4.036  0.00  0.00    -0.243 N 
ATOM     15  C   UNL     1       3.767  -1.542   6.286  0.00  0.00    +0.079 C 
ATOM     16  H   UNL     1       3.660  -5.005   2.514  0.00  0.00    +0.148 HD
ENDROOT
BRANCH  14  17
ATOM     17  C   UNL     1       5.372  -1.276   4.026  0.00  0.00    +0.039 A 
ATOM     18  C   UNL     1       6.619  -1.538   4.579  0.00  0.00    +0.024 A 
ATOM     19  C   UNL     1       7.597  -0.563   4.568  0.00  0.00    +0.005 A 
ATOM     20  C   UNL     1       7.336   0.673   4.006  0.00  0.00    -0.050 A 
ATOM     21  C   UNL     1       6.096   0.937   3.454  0.00  0.00    +0.005 A 
ATOM     22  C   UNL     1       5.115  -0.035   3.457  0.00  0.00    +0.024 A 
ATOM     23  C   UNL     1       8.405   1.735   3.995  0.00  0.00    +0.044 C 
ENDBRANCH  14  17
BRANCH   9  24
ATOM     24  C   UNL     1       1.426  -3.387   6.090  0.00  0.00    +0.228 C 
ATOM     25  O   UNL     1       1.057  -2.292   6.458  0.00  0.00    -0.275 OA
ATOM     26  N   UNL     1       0.734  -4.487   6.447  0.00  0.00    -0.285 N 
ATOM     27  H   UNL     1       1.069  -5.367   6.215  0.00  0.00    +0.155 HD
BRANCH  26  28
ATOM     28  C   UNL     1      -0.468  -4.359   7.152  0.00  0.00    +0.036 A 
ATOM     29  C   UNL     1      -0.676  -3.264   7.980  0.00  0.00    +0.024 A 
ATOM     30  C   UNL     1      -1.863  -3.140   8.675  0.00  0.00    +0.005 A 
ATOM     31  C   UNL     1      -2.845  -4.106   8.546  0.00  0.00    -0.050 A 
ATOM     32  C   UNL     1      -2.641  -5.197   7.723  0.00  0.00    +0.008 A 
ATOM     33  C   UNL     1      -1.458  -5.323   7.020  0.00  0.00    -0.029 A 
ATOM     34  C   UNL     1      -1.240  -6.510   6.117  0.00  0.00    +0.045 C 
ATOM     35  C   UNL     1      -4.139  -3.968   9.306  0.00  0.00    +0.044 C 
ENDBRANCH  26  28
ENDBRANCH   9  24
BRANCH   1  36
ATOM     36  O   UNL     1       0.654   0.438   3.051  0.00  0.00    -0.489 OA
BRANCH  36  38
ATOM     37  C   UNL     1      -0.035   2.737   2.769  0.00  0.00    +0.048 C 
ATOM     38  C   UNL     1      -0.212   1.292   2.300  0.00  0.00    +0.226 C 
ENDBRANCH  36  38
ENDBRANCH   1  36
TORSDOF 5
