REMARK  Name = ZINC47070377
REMARK  7 active torsions:
REMARK  status: ('A' for Active; 'I' for Inactive)
REMARK    1  A    between atoms: C_4  and  C_11
REMARK    2  A    between atoms: C_11  and  C_12
REMARK    3  A    between atoms: C_12  and  N_13
REMARK    4  A    between atoms: N_16  and  N_17
REMARK    5  A    between atoms: N_17  and  C_18
REMARK    6  A    between atoms: C_18  and  N_20
REMARK    7  A    between atoms: N_20  and  C_21
REMARK                            x       y       z     vdW  Elec       q    Type
REMARK                         _______ _______ _______ _____ _____    ______ ____
ROOT
ATOM      1  N   UNL     1       5.369  -1.758  -1.505  0.00  0.00    -0.298 N 
ATOM      2  C   UNL     1       5.896  -2.167  -2.676  0.00  0.00    +0.316 C 
ATOM      3  O   UNL     1       5.309  -1.944  -3.718  0.00  0.00    -0.251 OA
ATOM      4  N   UNL     1       7.074  -2.822  -2.693  0.00  0.00    -0.219 N 
ATOM      5  H   UNL     1       5.838  -1.936  -0.674  0.00  0.00    +0.150 HD
ATOM      6  H   UNL     1       7.453  -3.116  -3.537  0.00  0.00    +0.174 HD
ENDROOT
BRANCH   4   7
ATOM      7  N   UNL     1       7.750  -3.078  -1.494  0.00  0.00    -0.245 N 
ATOM      8  H   UNL     1       7.371  -2.784  -0.651  0.00  0.00    +0.172 HD
BRANCH   7   9
ATOM      9  C   UNL     1       8.928  -3.733  -1.511  0.00  0.00    +0.147 C 
ATOM     10  S   UNL     1       9.755  -4.047  -0.045  0.00  0.00    -0.017 S 
BRANCH   9  11
ATOM     11  N   UNL     1       9.455  -4.142  -2.682  0.00  0.00    -0.323 N 
ATOM     12  H   UNL     1       8.987  -3.964  -3.513  0.00  0.00    +0.148 HD
BRANCH  11  13
ATOM     13  C   UNL     1      10.735  -4.854  -2.701  0.00  0.00    +0.072 C 
ATOM     14  C   UNL     1      10.500  -6.369  -2.528  0.00  0.00    +0.022 C 
ATOM     15  C   UNL     1      10.482  -6.918  -3.976  0.00  0.00    +0.002 C 
ATOM     16  C   UNL     1      11.579  -6.077  -4.674  0.00  0.00    +0.002 C 
ATOM     17  C   UNL     1      11.422  -4.669  -4.065  0.00  0.00    +0.022 C 
ENDBRANCH  11  13
ENDBRANCH   9  11
ENDBRANCH   7   9
ENDBRANCH   4   7
BRANCH   1  18
ATOM     18  C   UNL     1       4.089  -1.046  -1.486  0.00  0.00    +0.110 C 
BRANCH  18  19
ATOM     19  C   UNL     1       3.720  -0.699  -0.043  0.00  0.00    +0.057 C 
BRANCH  19  23
ATOM     20  C   UNL     1      -0.017   1.378   0.010  0.00  0.00    +0.047 A 
ATOM     21  C   UNL     1       1.172   2.088   0.002  0.00  0.00    +0.124 A 
ATOM     22  C   UNL     1       2.381   1.415  -0.014  0.00  0.00    +0.045 A 
ATOM     23  C   UNL     1       2.403   0.034  -0.024  0.00  0.00    -0.001 A 
ATOM     24  C   UNL     1       1.212  -0.679  -0.017  0.00  0.00    +0.132 A 
ATOM     25  C   UNL     1       0.002  -0.004   0.002  0.00  0.00    +0.023 A 
ATOM     26  C   UNL     1      -1.298  -0.767   0.018  0.00  0.00    +0.202 C 
ATOM     27  O   UNL     1      -1.055  -2.125  -0.364  0.00  0.00    -0.339 OA
ATOM     28  C   UNL     1       0.042  -2.718   0.342  0.00  0.00    +0.394 C 
ATOM     29  O   UNL     1       1.245  -2.039  -0.030  0.00  0.00    -0.466 OA
ATOM     30  F   UNL     1       1.151   3.439   0.010  0.00  0.00    -0.205 F 
ENDBRANCH  19  23
ENDBRANCH  18  19
ENDBRANCH   1  18
TORSDOF 7
