REMARK  Name = ZINC06546244
REMARK  13 active torsions:
REMARK  status: ('A' for Active; 'I' for Inactive)
REMARK    1  A    between atoms: C_1  and  C_2
REMARK    2  A    between atoms: C_2  and  O_3
REMARK    3  A    between atoms: O_3  and  C_4
REMARK    4  A    between atoms: C_4  and  C_6
REMARK    5  A    between atoms: C_6  and  N_7
REMARK    6  A    between atoms: N_7  and  C_8
REMARK    7  A    between atoms: C_8  and  C_10
REMARK    8  A    between atoms: C_8  and  C_16
REMARK    9  A    between atoms: C_13  and  C_15
REMARK   10  A    between atoms: N_18  and  C_19
REMARK   11  A    between atoms: C_24  and  C_26
REMARK   12  A    between atoms: C_26  and  N_27
REMARK   13  A    between atoms: C_29  and  C_32
REMARK                            x       y       z     vdW  Elec       q    Type
REMARK                         _______ _______ _______ _____ _____    ______ ____
ROOT
ATOM      1  N   UNL     1       0.119   2.241   5.987  0.00  0.00    -0.271 N 
ATOM      2  C   UNL     1       0.017   3.332   6.772  0.00  0.00    +0.240 C 
ATOM      3  O   UNL     1       0.470   4.393   6.397  0.00  0.00    -0.273 OA
ENDROOT
BRANCH   1   4
ATOM      4  C   UNL     1      -0.428   0.960   6.440  0.00  0.00    +0.229 C 
BRANCH   4   5
ATOM      5  C   UNL     1       0.631   0.202   7.199  0.00  0.00    +0.325 C 
ATOM      6  O   UNL     1       1.729   0.683   7.347  0.00  0.00    -0.249 OA
BRANCH   5   7
ATOM      7  O   UNL     1       0.354  -1.008   7.711  0.00  0.00    -0.464 OA
BRANCH   7   9
ATOM      8  C   UNL     1       0.921  -3.034   8.936  0.00  0.00    +0.048 C 
ATOM      9  C   UNL     1       1.421  -1.680   8.430  0.00  0.00    +0.229 C 
ENDBRANCH   7   9
ENDBRANCH   5   7
ENDBRANCH   4   5
ENDBRANCH   1   4
BRANCH   1  10
ATOM     10  C   UNL     1       0.776   2.337   4.682  0.00  0.00    +0.229 C 
BRANCH  10  11
ATOM     11  C   UNL     1       1.958   1.403   4.644  0.00  0.00    +0.135 A 
ATOM     12  C   UNL     1       3.151   1.667   4.082  0.00  0.00    +0.047 A 
ATOM     13  C   UNL     1       3.959   0.523   4.280  0.00  0.00    +0.045 A 
ATOM     14  C   UNL     1       3.208  -0.374   4.944  0.00  0.00    +0.102 A 
ATOM     15  O   UNL     1       1.998   0.165   5.162  0.00  0.00    -0.462 OA
ATOM     16  C   UNL     1       3.651  -1.750   5.371  0.00  0.00    +0.086 C 
ENDBRANCH  10  11
BRANCH  10  17
ATOM     17  C   UNL     1      -0.200   1.954   3.599  0.00  0.00    +0.241 C 
ATOM     18  O   UNL     1      -1.333   1.633   3.889  0.00  0.00    -0.273 OA
ATOM     19  N   UNL     1       0.186   1.969   2.308  0.00  0.00    -0.311 N 
ATOM     20  H   UNL     1       1.092   2.226   2.075  0.00  0.00    +0.149 HD
BRANCH  19  21
ATOM     21  C   UNL     1      -0.763   1.597   1.255  0.00  0.00    +0.073 C 
ATOM     22  C   UNL     1      -0.013   1.086   0.008  0.00  0.00    +0.022 C 
ATOM     23  C   UNL     1      -0.784   1.609  -1.216  0.00  0.00    +0.002 C 
ATOM     24  C   UNL     1      -1.978   2.421  -0.670  0.00  0.00    +0.002 C 
ATOM     25  C   UNL     1      -1.531   2.845   0.750  0.00  0.00    +0.022 C 
ENDBRANCH  19  21
ENDBRANCH  10  17
ENDBRANCH   1  10
BRANCH   2  26
ATOM     26  C   UNL     1      -0.659   3.234   8.116  0.00  0.00    +0.264 C 
BRANCH  26  27
ATOM     27  N   UNL     1      -0.640   4.545   8.769  0.00  0.00    -0.154 N 
ATOM     28  N   UNL     1       0.289   4.974   9.552  0.00  0.00    -0.130 NA
ATOM     29  C   UNL     1      -0.041   6.191   9.939  0.00  0.00    +0.205 A 
ATOM     30  N   UNL     1      -1.217   6.472   9.361  0.00  0.00    -0.108 NA
ATOM     31  N   UNL     1      -1.552   5.446   8.655  0.00  0.00    -0.045 NA
BRANCH  29  32
ATOM     32  C   UNL     1       0.736   7.074  10.845  0.00  0.00    +0.023 A 
ATOM     33  C   UNL     1       1.947   6.637  11.377  0.00  0.00    +0.013 A 
ATOM     34  C   UNL     1       2.669   7.464  12.213  0.00  0.00    +0.021 A 
ATOM     35  C   UNL     1       2.185   8.721  12.534  0.00  0.00    +0.041 A 
ATOM     36  C   UNL     1       0.979   9.157  12.012  0.00  0.00    +0.021 A 
ATOM     37  C   UNL     1       0.253   8.339  11.170  0.00  0.00    +0.013 A 
ATOM     38 CL   UNL     1       3.094   9.754  13.593  0.00  0.00    -0.084 Cl
ENDBRANCH  29  32
ENDBRANCH  26  27
ENDBRANCH   2  26
TORSDOF 11
