REMARK  Name = ZINC09722663
REMARK  9 active torsions:
REMARK  status: ('A' for Active; 'I' for Inactive)
REMARK    1  A    between atoms: C_1  and  C_2
REMARK    2  A    between atoms: C_3  and  S_14
REMARK    3  A    between atoms: C_4  and  C_7
REMARK    4  A    between atoms: C_8  and  C_9
REMARK    5  A    between atoms: S_14  and  N_17
REMARK    6  A    between atoms: C_20  and  C_23
REMARK    7  A    between atoms: N_25  and  C_26
REMARK    8  A    between atoms: C_26  and  C_27
REMARK    9  A    between atoms: C_27  and  C_28
REMARK                            x       y       z     vdW  Elec       q    Type
REMARK                         _______ _______ _______ _____ _____    ______ ____
ROOT
ATOM      1  N   UNL     1       2.168  10.284   3.268  0.00  0.00    -0.176 NA
ATOM      2  C   UNL     1       1.066   9.768   4.091  0.00  0.00    +0.110 C 
ATOM      3  C   UNL     1       1.122   8.237   4.086  0.00  0.00    +0.030 C 
ATOM      4  C   UNL     1       1.116   7.735   2.641  0.00  0.00    +0.077 C 
ATOM      5  C   UNL     1       2.350   8.266   1.909  0.00  0.00    +0.030 C 
ATOM      6  C   UNL     1       2.308   9.797   1.889  0.00  0.00    +0.110 C 
ENDROOT
BRANCH   4   7
ATOM      7  C   UNL     1       1.137   6.228   2.633  0.00  0.00    +0.216 C 
ATOM      8  O   UNL     1       1.155   5.616   3.680  0.00  0.00    -0.276 OA
ATOM      9  N   UNL     1       1.135   5.560   1.462  0.00  0.00    -0.315 N 
ATOM     10  H   UNL     1       1.121   6.049   0.625  0.00  0.00    +0.149 HD
BRANCH   9  11
ATOM     11  C   UNL     1       1.156   4.095   1.455  0.00  0.00    +0.109 C 
BRANCH  11  12
ATOM     12  C   UNL     1       1.150   3.592   0.010  0.00  0.00    +0.054 C 
BRANCH  12  13
ATOM     13  C   UNL     1       1.171   2.086   0.002  0.00  0.00    -0.046 A 
ATOM     14  C   UNL     1      -0.017   1.378   0.010  0.00  0.00    +0.005 A 
ATOM     15  C   UNL     1       0.002  -0.004   0.002  0.00  0.00    +0.020 A 
ATOM     16  C   UNL     1       1.210  -0.679  -0.013  0.00  0.00    +0.041 A 
ATOM     17  C   UNL     1       2.398   0.030  -0.021  0.00  0.00    +0.020 A 
ATOM     18  C   UNL     1       2.378   1.412  -0.013  0.00  0.00    +0.005 A 
ATOM     19 CL   UNL     1       1.234  -2.415  -0.022  0.00  0.00    -0.084 Cl
ENDBRANCH  12  13
ENDBRANCH  11  12
ENDBRANCH   9  11
ENDBRANCH   4   7
BRANCH   1  20
ATOM     20  S   UNL     1       3.232  11.394   3.882  0.00  0.00    +0.066 S 
ATOM     21  O   UNL     1       3.781  12.089   2.771  0.00  0.00    -0.153 OA
ATOM     22  O   UNL     1       2.557  12.061   4.941  0.00  0.00    -0.153 OA
BRANCH  20  25
ATOM     23  C   UNL     1       6.171  10.283   2.585  0.00  0.00    +0.071 C 
ATOM     24  C   UNL     1       5.754  10.063   4.016  0.00  0.00    +0.107 A 
ATOM     25  C   UNL     1       4.556  10.494   4.618  0.00  0.00    +0.174 A 
ATOM     26  C   UNL     1       4.667  10.049   5.925  0.00  0.00    +0.187 A 
ATOM     27  O   UNL     1       5.853   9.413   5.998  0.00  0.00    -0.353 OA
ATOM     28  N   UNL     1       6.432   9.438   4.937  0.00  0.00    -0.081 NA
BRANCH  26  29
ATOM     29  C   UNL     1       3.695  10.230   7.004  0.00  0.00    +0.054 C 
ATOM     30  C   UNL     1       3.952   9.732   8.235  0.00  0.00    +0.050 C 
BRANCH  30  31
ATOM     31  C   UNL     1       2.980   9.912   9.313  0.00  0.00    +0.128 A 
ATOM     32  C   UNL     1       3.111   9.459  10.596  0.00  0.00    +0.049 A 
ATOM     33  C   UNL     1       1.952   9.857  11.285  0.00  0.00    +0.042 A 
ATOM     34  C   UNL     1       1.173  10.519  10.403  0.00  0.00    +0.195 A 
ATOM     35  O   UNL     1       1.796  10.551   9.215  0.00  0.00    -0.464 OA
ENDBRANCH  30  31
ENDBRANCH  26  29
ENDBRANCH  20  25
ENDBRANCH   1  20
TORSDOF 8
