REMARK  Name = ZINC08353487
REMARK  6 active torsions:
REMARK  status: ('A' for Active; 'I' for Inactive)
REMARK    1  A    between atoms: C_3  and  C_8
REMARK    2  A    between atoms: N_10  and  N_11
REMARK    3  A    between atoms: C_12  and  C_14
REMARK    4  A    between atoms: C_14  and  S_15
REMARK    5  A    between atoms: S_15  and  C_16
REMARK    6  A    between atoms: C_19  and  C_21
REMARK                            x       y       z     vdW  Elec       q    Type
REMARK                         _______ _______ _______ _____ _____    ______ ____
ROOT
ATOM      1  N   UNL     1      -0.288   1.272  -2.443  0.00  0.00    -0.233 N 
ATOM      2  C   UNL     1      -0.742   1.585  -1.213  0.00  0.00    +0.239 C 
ATOM      3  O   UNL     1      -1.736   2.268  -1.088  0.00  0.00    -0.273 OA
ATOM      4  H   UNL     1       0.507   0.726  -2.543  0.00  0.00    +0.173 HD
ENDROOT
BRANCH   1   7
ATOM      5  C   UNL     1      -0.513   1.424  -4.808  0.00  0.00    +0.260 C 
ATOM      6  O   UNL     1       0.484   0.739  -4.933  0.00  0.00    -0.269 OA
ATOM      7  N   UNL     1      -0.966   1.736  -3.578  0.00  0.00    -0.230 N 
ATOM      8  H   UNL     1      -1.761   2.283  -3.479  0.00  0.00    +0.173 HD
BRANCH   5  11
ATOM      9  C   UNL     1      -3.037   3.152  -6.988  0.00  0.00    +0.002 A 
ATOM     10  C   UNL     1      -2.376   2.695  -5.866  0.00  0.00    +0.013 A 
ATOM     11  C   UNL     1      -1.228   1.913  -6.006  0.00  0.00    +0.040 A 
ATOM     12  C   UNL     1      -0.761   1.591  -7.282  0.00  0.00    +0.033 A 
ATOM     13  C   UNL     1      -1.434   2.052  -8.396  0.00  0.00    +0.042 A 
ATOM     14  C   UNL     1      -2.570   2.831  -8.249  0.00  0.00    +0.020 A 
ATOM     15 CL   UNL     1      -0.856   1.653  -9.983  0.00  0.00    -0.084 Cl
ENDBRANCH   5  11
ENDBRANCH   1   7
BRANCH   2  16
ATOM     16  C   UNL     1      -0.013   1.086   0.008  0.00  0.00    +0.176 C 
BRANCH  16  17
ATOM     17  S   UNL     1      -0.860   1.669   1.497  0.00  0.00    -0.056 S 
BRANCH  17  18
ATOM     18  C   UNL     1       0.174   0.961   2.735  0.00  0.00    +0.278 A 
ATOM     19  N   UNL     1       1.243   0.227   2.528  0.00  0.00    -0.101 NA
ATOM     20  N   UNL     1       1.750  -0.120   3.659  0.00  0.00    -0.106 NA
ATOM     21  C   UNL     1       1.027   0.378   4.632  0.00  0.00    +0.249 A 
ATOM     22  O   UNL     1       0.017   1.077   4.068  0.00  0.00    -0.411 OA
BRANCH  21  23
ATOM     23  C   UNL     1       1.273   0.211   6.079  0.00  0.00    +0.039 A 
ATOM     24  C   UNL     1       0.419   0.806   7.009  0.00  0.00    +0.016 A 
ATOM     25  C   UNL     1       0.650   0.642   8.358  0.00  0.00    +0.039 A 
ATOM     26  C   UNL     1       1.736  -0.103   8.792  0.00  0.00    +0.123 A 
ATOM     27  C   UNL     1       2.590  -0.692   7.873  0.00  0.00    +0.039 A 
ATOM     28  C   UNL     1       2.365  -0.539   6.521  0.00  0.00    +0.016 A 
ATOM     29  F   UNL     1       1.962  -0.255  10.115  0.00  0.00    -0.205 F 
ENDBRANCH  21  23
ENDBRANCH  17  18
ENDBRANCH  16  17
ENDBRANCH   2  16
TORSDOF 6
