REMARK  Name = ZINC59378174
REMARK  3 active torsions:
REMARK  status: ('A' for Active; 'I' for Inactive)
REMARK    1  A    between atoms: C_9  and  O_27
REMARK    2  A    between atoms: C_10  and  C_11
REMARK    3  A    between atoms: C_15  and  C_17
REMARK                            x       y       z     vdW  Elec       q    Type
REMARK                         _______ _______ _______ _____ _____    ______ ____
ROOT
ATOM      1  C   UNL     1       4.960   0.163  -0.046  0.00  0.00    +0.186 C 
ATOM      2  N   UNL     1       4.873   1.343  -0.936  0.00  0.00    -0.250 N 
ATOM      3  N   UNL     1       5.745   1.338  -2.001  0.00  0.00    -0.183 NA
ATOM      4  C   UNL     1       6.586   0.385  -2.229  0.00  0.00    +0.100 C 
ATOM      5  S   UNL     1       6.297  -0.772  -0.898  0.00  0.00    -0.079 S 
ATOM      6  H   UNL     1       4.248   2.068  -0.779  0.00  0.00    +0.170 HD
ENDROOT
BRANCH   1  16
ATOM      7  C   UNL     1       2.020  -1.991   3.547  0.00  0.00    +0.001 A 
ATOM      8  C   UNL     1       3.216  -1.276   3.557  0.00  0.00    +0.001 A 
ATOM      9  C   UNL     1       3.769  -0.818   2.401  0.00  0.00    +0.009 A 
ATOM     10  C   UNL     1       3.127  -1.069   1.176  0.00  0.00    -0.009 A 
ATOM     11  C   UNL     1       1.910  -1.798   1.165  0.00  0.00    -0.017 A 
ATOM     12  C   UNL     1       1.370  -2.253   2.380  0.00  0.00    +0.008 A 
ATOM     13  C   UNL     1       1.267  -2.050  -0.058  0.00  0.00    +0.012 A 
ATOM     14  C   UNL     1       1.817  -1.595  -1.216  0.00  0.00    +0.046 A 
ATOM     15  C   UNL     1       3.017  -0.877  -1.208  0.00  0.00    +0.123 A 
ATOM     16  C   UNL     1       3.668  -0.613  -0.037  0.00  0.00    +0.034 A 
BRANCH  15  17
ATOM     17  O   UNL     1       3.542  -0.436  -2.381  0.00  0.00    -0.506 OA
ATOM     18  H   UNL     1       3.242   0.446  -2.639  0.00  0.00    +0.292 HD
ENDBRANCH  15  17
ENDBRANCH   1  16
BRANCH   4  19
ATOM     19  C   UNL     1       7.580   0.274  -3.356  0.00  0.00    +0.021 C 
ATOM     20  C   UNL     1       7.285  -0.985  -4.174  0.00  0.00    +0.017 C 
ATOM     21  C   UNL     1       8.294  -1.098  -5.318  0.00  0.00    -0.010 C 
ATOM     22  C   UNL     1       8.183   0.133  -6.220  0.00  0.00    +0.007 C 
ATOM     23  C   UNL     1       8.477   1.392  -5.402  0.00  0.00    -0.010 C 
ATOM     24  C   UNL     1       7.468   1.505  -4.258  0.00  0.00    +0.017 C 
ATOM     25  C   UNL     1       9.893   1.307  -4.827  0.00  0.00    +0.007 C 
ATOM     26  C   UNL     1      10.004   0.076  -3.926  0.00  0.00    -0.010 C 
ATOM     27  C   UNL     1       9.710  -1.183  -4.744  0.00  0.00    +0.007 C 
ATOM     28  C   UNL     1       8.995   0.189  -2.781  0.00  0.00    +0.017 C 
ENDBRANCH   4  19
TORSDOF 3
