REMARK  Name = ZINC00919338
REMARK  11 active torsions:
REMARK  status: ('A' for Active; 'I' for Inactive)
REMARK    1  A    between atoms: C_1  and  C_2
REMARK    2  A    between atoms: C_6  and  C_8
REMARK    3  A    between atoms: C_8  and  C_9
REMARK    4  A    between atoms: C_9  and  N_10
REMARK    5  A    between atoms: N_10  and  C_11
REMARK    6  A    between atoms: N_10  and  S_27
REMARK    7  A    between atoms: C_11  and  C_12
REMARK    8  A    between atoms: S_27  and  C_30
REMARK    9  A    between atoms: C_33  and  C_36
REMARK   10  A    between atoms: C_36  and  O_38
REMARK   11  A    between atoms: O_38  and  C_39
REMARK                            x       y       z     vdW  Elec       q    Type
REMARK                         _______ _______ _______ _____ _____    ______ ____
ROOT
ATOM      1  N   UNL     1       0.871   4.220   1.491  0.00  0.00    -0.172 NA
ENDROOT
BRANCH   1   2
ATOM      2  S   UNL     1       0.734   3.995  -0.144  0.00  0.00    +0.061 S 
ATOM      3  O   UNL     1       1.849   4.646  -0.738  0.00  0.00    -0.153 OA
ATOM      4  O   UNL     1      -0.607   4.315  -0.487  0.00  0.00    -0.153 OA
BRANCH   2   5
ATOM      5  C   UNL     1       0.935   2.271  -0.451  0.00  0.00    +0.106 A 
ATOM      6  C   UNL     1      -0.153   1.423  -0.350  0.00  0.00    +0.029 A 
ATOM      7  C   UNL     1      -0.003   0.072  -0.589  0.00  0.00    +0.017 A 
ATOM      8  C   UNL     1       1.250  -0.438  -0.933  0.00  0.00    +0.059 A 
ATOM      9  C   UNL     1       2.344   0.425  -1.033  0.00  0.00    +0.017 A 
ATOM     10  C   UNL     1       2.180   1.773  -0.791  0.00  0.00    +0.029 A 
BRANCH   8  11
ATOM     11  C   UNL     1       1.419  -1.883  -1.189  0.00  0.00    +0.339 C 
ATOM     12  O   UNL     1       0.465  -2.630  -1.101  0.00  0.00    -0.245 OA
BRANCH  11  13
ATOM     13  O   UNL     1       2.629  -2.371  -1.521  0.00  0.00    -0.464 OA
ATOM     14  C   UNL     1       2.721  -3.800  -1.759  0.00  0.00    +0.280 C 
ENDBRANCH  11  13
ENDBRANCH   8  11
ENDBRANCH   2   5
ENDBRANCH   1   2
BRANCH   1  15
ATOM     15  C   UNL     1       2.162   4.593   2.074  0.00  0.00    +0.114 C 
BRANCH  15  16
ATOM     16  C   UNL     1       2.266   6.118   2.148  0.00  0.00    +0.052 C 
BRANCH  16  22
ATOM     17  C   UNL     1       7.029   7.290   1.157  0.00  0.00    +0.044 C 
ATOM     18  C   UNL     1       5.921   7.065   2.153  0.00  0.00    -0.050 A 
ATOM     19  C   UNL     1       6.165   7.215   3.505  0.00  0.00    +0.003 A 
ATOM     20  C   UNL     1       5.148   7.009   4.418  0.00  0.00    +0.001 A 
ATOM     21  C   UNL     1       3.885   6.659   3.979  0.00  0.00    +0.004 A 
ATOM     22  C   UNL     1       3.642   6.505   2.627  0.00  0.00    -0.046 A 
ATOM     23  C   UNL     1       4.659   6.711   1.714  0.00  0.00    +0.007 A 
ENDBRANCH  16  22
ENDBRANCH  15  16
ENDBRANCH   1  15
BRANCH   1  24
ATOM     24  C   UNL     1      -0.300   4.046   2.355  0.00  0.00    +0.150 C 
BRANCH  24  25
ATOM     25  C   UNL     1      -0.885   5.395   2.685  0.00  0.00    +0.033 A 
ATOM     26  C   UNL     1      -1.888   5.902   1.924  0.00  0.00    +0.020 A 
ATOM     27  C   UNL     1      -2.435   7.213   2.272  0.00  0.00    +0.003 A 
ATOM     28  C   UNL     1      -3.472   7.785   1.523  0.00  0.00    +0.059 A 
ATOM     29  C   UNL     1      -3.967   9.021   1.875  0.00  0.00    +0.167 A 
ATOM     30  C   UNL     1      -3.438   9.706   2.976  0.00  0.00    +0.168 A 
ATOM     31  C   UNL     1      -2.414   9.149   3.720  0.00  0.00    +0.075 A 
ATOM     32  C   UNL     1      -1.904   7.903   3.379  0.00  0.00    +0.053 A 
ATOM     33  N   UNL     1      -0.884   7.332   4.112  0.00  0.00    -0.322 N 
ATOM     34  H   UNL     1      -0.504   7.824   4.895  0.00  0.00    +0.169 HD
ATOM     35  C   UNL     1      -0.392   6.123   3.787  0.00  0.00    +0.254 A 
ATOM     36  O   UNL     1       0.506   5.647   4.460  0.00  0.00    -0.268 OA
ATOM     37  O   UNL     1      -4.099  10.893   3.105  0.00  0.00    -0.453 OA
ATOM     38  C   UNL     1      -5.306  10.748   2.334  0.00  0.00    +0.466 C 
ATOM     39  O   UNL     1      -4.956   9.785   1.323  0.00  0.00    -0.453 OA
ENDBRANCH  24  25
ENDBRANCH   1  24
TORSDOF 9
