REMARK  Name = ZINC61122151
REMARK  3 active torsions:
REMARK  status: ('A' for Active; 'I' for Inactive)
REMARK    1  A    between atoms: C_4  and  N_21
REMARK    2  A    between atoms: C_5  and  C_7
REMARK    3  A    between atoms: N_11  and  C_12
REMARK                            x       y       z     vdW  Elec       q    Type
REMARK                         _______ _______ _______ _____ _____    ______ ____
ROOT
ATOM      1  C   UNL     1       1.243  -2.162  -0.064  0.00  0.00    +0.189 A 
ATOM      2  N   UNL     1       2.312  -2.927  -0.148  0.00  0.00    -0.108 NA
ATOM      3  N   UNL     1       1.986  -4.166  -0.073  0.00  0.00    -0.022 NA
ATOM      4  N   UNL     1       0.711  -4.292   0.062  0.00  0.00    -0.039 NA
ATOM      5  N   UNL     1       0.171  -2.994   0.079  0.00  0.00    -0.190 N 
ENDROOT
BRANCH   5   6
ATOM      6  C   UNL     1      -1.177  -2.633   0.211  0.00  0.00    +0.110 A 
ATOM      7  C   UNL     1      -1.738  -1.708  -0.659  0.00  0.00    +0.069 A 
ATOM      8  C   UNL     1      -3.069  -1.354  -0.527  0.00  0.00    +0.128 A 
ATOM      9  C   UNL     1      -3.842  -1.920   0.472  0.00  0.00    +0.079 A 
ATOM     10  C   UNL     1      -3.287  -2.843   1.342  0.00  0.00    +0.163 A 
ATOM     11  C   UNL     1      -1.956  -3.205   1.210  0.00  0.00    +0.184 A 
ATOM     12  F   UNL     1      -1.414  -4.109   2.055  0.00  0.00    -0.200 F 
ATOM     13  F   UNL     1      -4.043  -3.394   2.316  0.00  0.00    -0.202 F 
ATOM     14  F   UNL     1      -3.614  -0.453  -1.374  0.00  0.00    -0.205 F 
ENDBRANCH   5   6
BRANCH   1  19
ATOM     15  C   UNL     1       0.463   1.409   0.799  0.00  0.00    +0.001 A 
ATOM     16  C   UNL     1       1.148   2.087  -0.195  0.00  0.00    +0.002 A 
ATOM     17  C   UNL     1       1.866   1.391  -1.148  0.00  0.00    +0.023 A 
ATOM     18  C   UNL     1       1.903   0.004  -1.115  0.00  0.00    +0.035 A 
ATOM     19  C   UNL     1       1.210  -0.685  -0.110  0.00  0.00    +0.042 A 
ATOM     20  C   UNL     1       0.490   0.031   0.847  0.00  0.00    +0.013 A 
BRANCH  18  21
ATOM     21  N   UNL     1       2.625  -0.700  -2.076  0.00  0.00    -0.357 N 
ATOM     22  H   UNL     1       3.103  -0.220  -2.771  0.00  0.00    +0.142 HD
ATOM     23  H   UNL     1       2.650  -1.669  -2.050  0.00  0.00    +0.142 HD
ENDBRANCH  18  21
ENDBRANCH   1  19
TORSDOF 3
