REMARK  Name = ZINC35486225
REMARK  12 active torsions:
REMARK  status: ('A' for Active; 'I' for Inactive)
REMARK    1  A    between atoms: C_1  and  C_2
REMARK    2  A    between atoms: C_2  and  N_3
REMARK    3  A    between atoms: N_3  and  C_4
REMARK    4  A    between atoms: N_3  and  C_6
REMARK    5  A    between atoms: C_4  and  C_5
REMARK    6  A    between atoms: C_6  and  C_7
REMARK    7  A    between atoms: C_7  and  N_8
REMARK    8  A    between atoms: C_9  and  C_25
REMARK    9  A    between atoms: C_28  and  C_31
REMARK   10  A    between atoms: C_31  and  C_32
REMARK   11  A    between atoms: C_31  and  C_33
REMARK   12  A    between atoms: C_31  and  C_34
REMARK                            x       y       z     vdW  Elec       q    Type
REMARK                         _______ _______ _______ _____ _____    ______ ____
ROOT
ATOM      1  N   UNL     1       1.519  -3.425   3.081  0.00  0.00    -0.285 N 
ATOM      2  C   UNL     1       0.487  -4.335   3.605  0.00  0.00    +0.144 C 
ATOM      3  C   UNL     1       1.085  -5.702   3.551  0.00  0.00    +0.072 A 
ATOM      4  C   UNL     1       0.546  -7.008   3.943  0.00  0.00    +0.199 A 
ATOM      5  O   UNL     1      -0.622  -7.186   4.242  0.00  0.00    -0.287 OA
ATOM      6  C   UNL     1       1.559  -8.094   3.941  0.00  0.00    +0.065 A 
ATOM      7  C   UNL     1       1.254  -9.345   4.478  0.00  0.00    +0.030 A 
ATOM      8  C   UNL     1       2.208 -10.339   4.472  0.00  0.00    +0.019 A 
ATOM      9  C   UNL     1       3.465 -10.094   3.934  0.00  0.00    +0.019 A 
ATOM     10  C   UNL     1       3.775  -8.865   3.399  0.00  0.00    +0.048 A 
ATOM     11  C   UNL     1       2.826  -7.843   3.391  0.00  0.00    +0.140 A 
ATOM     12  O   UNL     1       3.155  -6.647   2.851  0.00  0.00    -0.450 OA
ATOM     13  C   UNL     1       2.345  -5.586   3.037  0.00  0.00    +0.199 A 
ATOM     14  C   UNL     1       2.597  -4.163   2.748  0.00  0.00    +0.283 C 
ATOM     15  O   UNL     1       3.627  -3.720   2.280  0.00  0.00    -0.267 OA
ATOM     16 BR   UNL     1       1.806 -12.038   5.198  0.00  0.00    -0.050 Br
ENDROOT
BRANCH   2  17
ATOM     17  C   UNL     1      -0.748  -4.271   2.743  0.00  0.00    -0.022 A 
ATOM     18  C   UNL     1      -0.628  -4.197   1.368  0.00  0.00    +0.006 A 
ATOM     19  C   UNL     1      -1.760  -4.138   0.577  0.00  0.00    +0.004 A 
ATOM     20  C   UNL     1      -3.013  -4.154   1.162  0.00  0.00    -0.042 A 
ATOM     21  C   UNL     1      -3.133  -4.230   2.537  0.00  0.00    +0.004 A 
ATOM     22  C   UNL     1      -2.000  -4.293   3.327  0.00  0.00    +0.006 A 
BRANCH  20  23
ATOM     23  C   UNL     1      -4.247  -4.090   0.300  0.00  0.00    -0.013 C 
ATOM     24  C   UNL     1      -4.268  -5.287  -0.652  0.00  0.00    +0.015 C 
ATOM     25  C   UNL     1      -5.492  -4.123   1.189  0.00  0.00    +0.015 C 
ATOM     26  C   UNL     1      -4.235  -2.793  -0.512  0.00  0.00    +0.015 C 
ENDBRANCH  20  23
ENDBRANCH   2  17
BRANCH   1  27
ATOM     27  C   UNL     1       1.395  -1.972   2.942  0.00  0.00    +0.090 C 
BRANCH  27  28
ATOM     28  C   UNL     1       0.822  -1.639   1.562  0.00  0.00    -0.060 C 
BRANCH  28  29
ATOM     29  N   UNL     1       0.822  -0.183   1.370  0.00  0.00    +0.380 N 
ATOM     30  H   UNL     1       0.334   0.258   2.135  0.00  0.00    -0.082 HD
BRANCH  29  32
ATOM     31  C   UNL     1       2.208   1.833   1.252  0.00  0.00    -0.017 C 
ATOM     32  C   UNL     1       2.207   0.305   1.327  0.00  0.00    -0.082 C 
ENDBRANCH  29  32
BRANCH  29  33
ATOM     33  C   UNL     1       0.149   0.144   0.106  0.00  0.00    -0.082 C 
ATOM     34  C   UNL     1      -1.332  -0.229   0.205  0.00  0.00    -0.017 C 
ENDBRANCH  29  33
ENDBRANCH  28  29
ENDBRANCH  27  28
ENDBRANCH   1  27
TORSDOF 7
