REMARK  Name = ZINC08948341
REMARK  13 active torsions:
REMARK  status: ('A' for Active; 'I' for Inactive)
REMARK    1  A    between atoms: C_1  and  C_2
REMARK    2  A    between atoms: C_2  and  O_3
REMARK    3  A    between atoms: O_3  and  C_4
REMARK    4  A    between atoms: C_4  and  C_6
REMARK    5  A    between atoms: C_9  and  N_12
REMARK    6  A    between atoms: C_13  and  C_15
REMARK    7  A    between atoms: C_15  and  N_16
REMARK    8  A    between atoms: C_19  and  C_23
REMARK    9  A    between atoms: C_19  and  C_24
REMARK   10  A    between atoms: C_27  and  C_30
REMARK   11  A    between atoms: C_30  and  C_31
REMARK   12  A    between atoms: C_30  and  C_32
REMARK   13  A    between atoms: C_30  and  C_33
REMARK                            x       y       z     vdW  Elec       q    Type
REMARK                         _______ _______ _______ _____ _____    ______ ____
ROOT
ATOM      1  N   UNL     1       1.655  -0.235  -0.043  0.00  0.00    -0.215 N 
ATOM      2  C   UNL     1       0.415   0.289  -0.094  0.00  0.00    +0.251 C 
ATOM      3  O   UNL     1      -0.635  -0.316  -0.146  0.00  0.00    -0.272 OA
ATOM      4  C   UNL     1       0.605   1.793  -0.073  0.00  0.00    +0.135 C 
ATOM      5  N   UNL     1       2.067   1.957  -0.005  0.00  0.00    -0.281 N 
ATOM      6  C   UNL     1       2.592   0.718   0.008  0.00  0.00    +0.310 C 
ATOM      7  O   UNL     1       3.785   0.491   0.060  0.00  0.00    -0.252 OA
ATOM      8  C   UNL     1      -0.063   2.402   1.162  0.00  0.00    +0.047 C 
ATOM      9  H   UNL     1       2.556   2.794   0.024  0.00  0.00    +0.152 HD
ENDROOT
BRANCH   4  10
ATOM     10  C   UNL     1       0.059   2.414  -1.333  0.00  0.00    -0.015 A 
ATOM     11  C   UNL     1      -1.001   1.822  -1.993  0.00  0.00    +0.006 A 
ATOM     12  C   UNL     1      -1.504   2.394  -3.146  0.00  0.00    +0.004 A 
ATOM     13  C   UNL     1      -0.940   3.554  -3.645  0.00  0.00    -0.042 A 
ATOM     14  C   UNL     1       0.123   4.144  -2.988  0.00  0.00    +0.004 A 
ATOM     15  C   UNL     1       0.623   3.574  -1.832  0.00  0.00    +0.006 A 
BRANCH  13  16
ATOM     16  C   UNL     1      -1.485   4.175  -4.906  0.00  0.00    -0.013 C 
ATOM     17  C   UNL     1      -0.382   4.231  -5.964  0.00  0.00    +0.015 C 
ATOM     18  C   UNL     1      -2.650   3.331  -5.428  0.00  0.00    +0.015 C 
ATOM     19  C   UNL     1      -1.976   5.592  -4.605  0.00  0.00    +0.015 C 
ENDBRANCH  13  16
ENDBRANCH   4  10
BRANCH   1  20
ATOM     20  C   UNL     1       1.942  -1.672  -0.043  0.00  0.00    +0.214 C 
BRANCH  20  22
ATOM     21  N   UNL     1       2.375  -3.449  -1.708  0.00  0.00    -0.284 N 
ATOM     22  C   UNL     1       2.105  -2.151  -1.462  0.00  0.00    +0.235 C 
ATOM     23  O   UNL     1       1.992  -1.370  -2.383  0.00  0.00    -0.274 OA
ATOM     24  H   UNL     1       2.541  -4.058  -0.972  0.00  0.00    +0.155 HD
BRANCH  21  28
ATOM     25  C   UNL     1       2.500  -4.843  -5.631  0.00  0.00    +0.059 A 
ATOM     26  C   UNL     1       3.346  -5.394  -4.665  0.00  0.00    +0.017 A 
ATOM     27  C   UNL     1       3.303  -4.930  -3.369  0.00  0.00    +0.024 A 
ATOM     28  C   UNL     1       2.417  -3.915  -3.021  0.00  0.00    +0.033 A 
ATOM     29  C   UNL     1       1.569  -3.368  -3.979  0.00  0.00    +0.024 A 
ATOM     30  C   UNL     1       1.612  -3.822  -5.278  0.00  0.00    +0.017 A 
BRANCH  25  31
ATOM     31  C   UNL     1       2.544  -5.336  -7.020  0.00  0.00    +0.339 C 
ATOM     32  O   UNL     1       3.317  -6.222  -7.326  0.00  0.00    -0.245 OA
BRANCH  31  33
ATOM     33  O   UNL     1       1.728  -4.804  -7.951  0.00  0.00    -0.461 OA
BRANCH  33  35
ATOM     34  C   UNL     1       0.830  -4.616 -10.206  0.00  0.00    +0.048 C 
ATOM     35  C   UNL     1       1.826  -5.338  -9.297  0.00  0.00    +0.229 C 
ENDBRANCH  33  35
ENDBRANCH  31  33
ENDBRANCH  25  31
ENDBRANCH  21  28
ENDBRANCH  20  22
ENDBRANCH   1  20
TORSDOF 8
