REMARK  Name = ZINC03399783
REMARK  8 active torsions:
REMARK  status: ('A' for Active; 'I' for Inactive)
REMARK    1  A    between atoms: C_1  and  C_2
REMARK    2  A    between atoms: C_4  and  C_20
REMARK    3  A    between atoms: C_5  and  C_19
REMARK    4  A    between atoms: N_6  and  C_7
REMARK    5  A    between atoms: C_7  and  C_8
REMARK    6  A    between atoms: C_20  and  C_22
REMARK    7  A    between atoms: C_22  and  S_23
REMARK    8  A    between atoms: S_23  and  C_24
REMARK                            x       y       z     vdW  Elec       q    Type
REMARK                         _______ _______ _______ _____ _____    ______ ____
ROOT
ATOM      1  C   UNL     1      -0.018   1.503   0.010  0.00  0.00    +0.063 C 
ATOM      2  C   UNL     1       0.002  -0.004   0.002  0.00  0.00    +0.017 A 
ATOM      3  C   UNL     1       0.008  -0.777  -1.097  0.00  0.00    +0.034 A 
ATOM      4  C   UNL     1       0.030  -2.167  -0.625  0.00  0.00    +0.039 A 
ATOM      5  C   UNL     1       0.035  -2.098   0.755  0.00  0.00    +0.026 A 
ATOM      6  N   UNL     1       0.023  -0.801   1.110  0.00  0.00    -0.344 N 
ATOM      7  C   UNL     1       0.056  -3.273   1.700  0.00  0.00    +0.064 C 
ENDROOT
BRANCH   4   8
ATOM      8  C   UNL     1       0.043  -3.379  -1.448  0.00  0.00    +0.175 C 
ATOM      9  O   UNL     1       0.060  -4.471  -0.920  0.00  0.00    -0.291 OA
BRANCH   8  10
ATOM     10  C   UNL     1       0.035  -3.269  -2.951  0.00  0.00    +0.157 C 
BRANCH  10  11
ATOM     11  S   UNL     1       0.056  -4.930  -3.679  0.00  0.00    -0.078 S 
BRANCH  11  12
ATOM     12  C   UNL     1       0.044  -4.635  -5.416  0.00  0.00    +0.198 A 
ATOM     13  N   UNL     1       0.031  -3.460  -5.997  0.00  0.00    -0.120 NA
ATOM     14  N   UNL     1       0.026  -3.662  -7.383  0.00  0.00    -0.110 NA
ATOM     15  C   UNL     1       0.036  -4.957  -7.605  0.00  0.00    +0.235 A 
ATOM     16  N   UNL     1       0.053  -5.591  -6.395  0.00  0.00    -0.255 N 
ATOM     17  C   UNL     1       0.071  -6.969  -6.623  0.00  0.00    +0.075 A 
ATOM     18  C   UNL     1       0.090  -8.063  -5.769  0.00  0.00    +0.028 A 
ATOM     19  C   UNL     1       0.106  -9.342  -6.289  0.00  0.00    +0.002 A 
ATOM     20  C   UNL     1       0.103  -9.539  -7.659  0.00  0.00    +0.002 A 
ATOM     21  C   UNL     1       0.084  -8.458  -8.517  0.00  0.00    +0.028 A 
ATOM     22  C   UNL     1       0.069  -7.168  -8.004  0.00  0.00    +0.066 A 
ATOM     23  N   UNL     1       0.039  -5.913  -8.606  0.00  0.00    -0.322 N 
ATOM     24  H   UNL     1       0.033  -5.739  -9.560  0.00  0.00    +0.169 HD
ENDBRANCH  11  12
ENDBRANCH  10  11
ENDBRANCH   8  10
ENDBRANCH   4   8
BRANCH   6  25
ATOM     25  C   UNL     1       0.029  -0.312   2.491  0.00  0.00    +0.169 C 
BRANCH  25  26
ATOM     26  C   UNL     1      -1.411  -0.163   2.985  0.00  0.00    +0.230 C 
ATOM     27  C   UNL     1      -1.415   0.453   4.391  0.00  0.00    +0.275 C 
ATOM     28  O   UNL     1      -2.774   0.565   4.827  0.00  0.00    -0.485 OA
ATOM     29  C   UNL     1      -3.568  -0.524   4.639  0.00  0.00    +0.162 A 
ATOM     30  C   UNL     1      -4.758  -0.628   5.344  0.00  0.00    +0.049 A 
ATOM     31  C   UNL     1      -5.577  -1.726   5.162  0.00  0.00    +0.004 A 
ATOM     32  C   UNL     1      -5.213  -2.723   4.276  0.00  0.00    +0.004 A 
ATOM     33  C   UNL     1      -4.028  -2.627   3.572  0.00  0.00    +0.049 A 
ATOM     34  C   UNL     1      -3.201  -1.528   3.752  0.00  0.00    +0.163 A 
ATOM     35  O   UNL     1      -2.033  -1.450   3.057  0.00  0.00    -0.480 OA
ENDBRANCH  25  26
ENDBRANCH   6  25
TORSDOF 6
