REMARK  Name = ZINC12832954
REMARK  10 active torsions:
REMARK  status: ('A' for Active; 'I' for Inactive)
REMARK    1  A    between atoms: C_1  and  C_2
REMARK    2  A    between atoms: C_7  and  C_15
REMARK    3  A    between atoms: C_13  and  C_14
REMARK    4  A    between atoms: C_15  and  N_60
REMARK    5  A    between atoms: C_16  and  C_17
REMARK    6  A    between atoms: C_16  and  N_60
REMARK    7  A    between atoms: C_22  and  C_23
REMARK    8  A    between atoms: C_22  and  N_60
REMARK    9  A    between atoms: N_27  and  C_28
REMARK   10  A    between atoms: C_28  and  C_29
REMARK                            x       y       z     vdW  Elec       q    Type
REMARK                         _______ _______ _______ _____ _____    ______ ____
ROOT
ATOM      1  N   UNL     1      -0.041  -1.092   1.968  0.00  0.00    +0.392 N 
ATOM      2  H   UNL     1       0.310  -0.195   1.613  0.00  0.00    -0.080 HD
ENDROOT
BRANCH   1   3
ATOM      3  C   UNL     1       0.658  -2.191   1.268  0.00  0.00    -0.036 C 
BRANCH   3  10
ATOM      4  C   UNL     1       2.116   0.049  -6.247  0.00  0.00    +0.044 C 
ATOM      5  C   UNL     1       2.050  -0.283  -4.778  0.00  0.00    -0.046 A 
ATOM      6  C   UNL     1       3.108   0.061  -3.948  0.00  0.00    +0.004 A 
ATOM      7  C   UNL     1       3.068  -0.231  -2.614  0.00  0.00    +0.010 A 
ATOM      8  C   UNL     1       1.951  -0.881  -2.079  0.00  0.00    -0.001 A 
ATOM      9  C   UNL     1       1.873  -1.204  -0.653  0.00  0.00    +0.017 A 
ATOM     10  C   UNL     1       0.768  -1.840  -0.193  0.00  0.00    +0.001 A 
ATOM     11  C   UNL     1      -0.282  -2.170  -1.076  0.00  0.00    +0.251 A 
ATOM     12  O   UNL     1      -1.268  -2.738  -0.641  0.00  0.00    -0.268 OA
ATOM     13  N   UNL     1      -0.222  -1.874  -2.386  0.00  0.00    -0.322 N 
ATOM     14  H   UNL     1      -0.961  -2.115  -2.966  0.00  0.00    +0.169 HD
ATOM     15  C   UNL     1       0.877  -1.232  -2.918  0.00  0.00    +0.052 A 
ATOM     16  C   UNL     1       0.940  -0.925  -4.273  0.00  0.00    -0.024 A 
ATOM     17  C   UNL     1      -0.201  -1.293  -5.186  0.00  0.00    +0.046 C 
ENDBRANCH   3  10
ENDBRANCH   1   3
BRANCH   1  18
ATOM     18  C   UNL     1       0.223  -1.170   3.420  0.00  0.00    -0.002 C 
BRANCH  18  19
ATOM     19  C   UNL     1       1.639  -0.724   3.680  0.00  0.00    +0.089 A 
ATOM     20  C   UNL     1       2.025   0.525   3.994  0.00  0.00    +0.042 A 
ATOM     21  C   UNL     1       3.430   0.493   4.149  0.00  0.00    +0.041 A 
ATOM     22  C   UNL     1       3.818  -0.774   3.920  0.00  0.00    +0.195 A 
ATOM     23  O   UNL     1       2.729  -1.508   3.642  0.00  0.00    -0.470 OA
ENDBRANCH  18  19
ENDBRANCH   1  18
BRANCH   1  24
ATOM     24  C   UNL     1      -1.494  -1.175   1.713  0.00  0.00    +0.001 C 
BRANCH  24  25
ATOM     25  C   UNL     1      -2.159   0.049   2.288  0.00  0.00    +0.135 A 
ATOM     26  N   UNL     1      -2.564   0.211   3.525  0.00  0.00    -0.115 NA
ATOM     27  N   UNL     1      -3.084   1.386   3.622  0.00  0.00    -0.023 NA
ATOM     28  N   UNL     1      -3.017   1.979   2.481  0.00  0.00    -0.044 NA
ATOM     29  N   UNL     1      -2.450   1.188   1.634  0.00  0.00    -0.227 N 
BRANCH  29  30
ATOM     30  C   UNL     1      -2.179   1.474   0.223  0.00  0.00    +0.182 C 
BRANCH  30  31
ATOM     31  C   UNL     1      -0.904   2.269   0.107  0.00  0.00    -0.026 A 
ATOM     32  C   UNL     1       0.315   1.618   0.070  0.00  0.00    +0.005 A 
ATOM     33  C   UNL     1       1.484   2.346  -0.043  0.00  0.00    +0.000 A 
ATOM     34  C   UNL     1       1.435   3.726  -0.112  0.00  0.00    +0.000 A 
ATOM     35  C   UNL     1       0.217   4.377  -0.069  0.00  0.00    +0.000 A 
ATOM     36  C   UNL     1      -0.953   3.649   0.043  0.00  0.00    +0.005 A 
ENDBRANCH  30  31
ENDBRANCH  29  30
ENDBRANCH  24  25
ENDBRANCH   1  24
TORSDOF 8
