REMARK  Name = ZINC11484580
REMARK  7 active torsions:
REMARK  status: ('A' for Active; 'I' for Inactive)
REMARK    1  A    between atoms: C_3  and  C_6
REMARK    2  A    between atoms: C_6  and  N_7
REMARK    3  A    between atoms: C_11  and  S_12
REMARK    4  A    between atoms: S_12  and  C_13
REMARK    5  A    between atoms: C_13  and  C_14
REMARK    6  A    between atoms: N_16  and  C_17
REMARK    7  A    between atoms: N_16  and  C_25
REMARK                            x       y       z     vdW  Elec       q    Type
REMARK                         _______ _______ _______ _____ _____    ______ ____
ROOT
ATOM      1  N   UNL     1       4.609   0.899   1.484  0.00  0.00    -0.283 N 
ATOM      2  C   UNL     1       4.722   2.009   2.272  0.00  0.00    +0.221 A 
ATOM      3  N   UNL     1       4.994   1.614   3.492  0.00  0.00    -0.112 NA
ATOM      4  N   UNL     1       5.058   0.215   3.490  0.00  0.00    -0.121 NA
ATOM      5  C   UNL     1       4.817  -0.200   2.269  0.00  0.00    +0.194 A 
ATOM      6  N   UNL     1       4.575   3.326   1.854  0.00  0.00    -0.300 N 
ATOM      7  C   UNL     1       3.305   4.037   2.052  0.00  0.00    +0.108 C 
ATOM      8  C   UNL     1       3.585   5.349   2.792  0.00  0.00    +0.019 C 
ATOM      9  C   UNL     1       4.639   6.149   2.023  0.00  0.00    +0.003 C 
ATOM     10  C   UNL     1       5.941   5.346   1.955  0.00  0.00    +0.019 C 
ATOM     11  C   UNL     1       5.690   4.036   1.211  0.00  0.00    +0.108 C 
ENDROOT
BRANCH   1  12
ATOM     12  C   UNL     1       4.309   0.889   0.050  0.00  0.00    +0.201 C 
BRANCH  12  15
ATOM     13  C   UNL     1       0.685   1.357  -0.424  0.00  0.00    +0.041 A 
ATOM     14  C   UNL     1       1.986   1.876  -0.235  0.00  0.00    +0.046 A 
ATOM     15  C   UNL     1       2.817   0.821  -0.152  0.00  0.00    +0.125 A 
ATOM     16  O   UNL     1       2.092  -0.302  -0.279  0.00  0.00    -0.466 OA
ATOM     17  C   UNL     1       0.798   0.017  -0.444  0.00  0.00    +0.195 A 
ENDBRANCH  12  15
ENDBRANCH   1  12
BRANCH   5  18
ATOM     18  S   UNL     1       4.774  -1.878   1.735  0.00  0.00    -0.077 S 
BRANCH  18  19
ATOM     19  C   UNL     1       5.126  -2.827   3.240  0.00  0.00    +0.173 C 
BRANCH  19  20
ATOM     20  C   UNL     1       5.119  -4.299   2.919  0.00  0.00    +0.226 C 
ATOM     21  O   UNL     1       4.810  -4.676   1.808  0.00  0.00    -0.275 OA
ATOM     22  N   UNL     1       5.456  -5.197   3.865  0.00  0.00    -0.293 N 
BRANCH  22  23
ATOM     23  C   UNL     1       5.561  -6.618   3.523  0.00  0.00    +0.099 C 
ATOM     24  C   UNL     1       4.201  -7.121   3.012  0.00  0.00    +0.046 C 
ATOM     25  C   UNL     1       4.413  -8.521   2.368  0.00  0.00    +0.168 C 
ATOM     26  S   UNL     1       6.002  -8.245   1.478  0.00  0.00    -0.029 S 
ATOM     27  O   UNL     1       6.856  -9.359   1.699  0.00  0.00    -0.174 OA
ATOM     28  O   UNL     1       5.721  -7.833   0.147  0.00  0.00    -0.174 OA
ATOM     29  C   UNL     1       6.637  -6.805   2.428  0.00  0.00    +0.188 C 
ENDBRANCH  22  23
BRANCH  22  30
ATOM     30  C   UNL     1       5.718  -4.753   5.237  0.00  0.00    +0.077 C 
ATOM     31  C   UNL     1       6.417  -5.737   6.177  0.00  0.00    +0.024 C 
ATOM     32  C   UNL     1       4.930  -5.428   6.361  0.00  0.00    +0.024 C 
ENDBRANCH  22  30
ENDBRANCH  19  20
ENDBRANCH  18  19
ENDBRANCH   5  18
TORSDOF 7
