REMARK  Name = ZINC39689177
REMARK  6 active torsions:
REMARK  status: ('A' for Active; 'I' for Inactive)
REMARK    1  A    between atoms: C_1  and  C_2
REMARK    2  A    between atoms: C_5  and  C_10
REMARK    3  A    between atoms: C_14  and  C_23
REMARK    4  A    between atoms: N_25  and  C_26
REMARK    5  A    between atoms: C_26  and  C_27
REMARK    6  A    between atoms: N_30  and  C_33
REMARK                            x       y       z     vdW  Elec       q    Type
REMARK                         _______ _______ _______ _____ _____    ______ ____
ROOT
ATOM      1  C   UNL     1       0.160  -4.530   0.065  0.00  0.00    +0.250 C 
ATOM      2  O   UNL     1       0.288  -5.229   1.052  0.00  0.00    -0.270 OA
ATOM      3  N   UNL     1       0.024  -5.097  -1.150  0.00  0.00    -0.296 N 
ATOM      4  C   UNL     1      -0.036  -4.420  -2.467  0.00  0.00    +0.121 C 
ATOM      5  C   UNL     1       0.779  -5.332  -3.412  0.00  0.00    +0.100 C 
ATOM      6  C   UNL     1       0.731  -6.721  -2.754  0.00  0.00    -0.004 C 
ATOM      7  C   UNL     1      -0.094  -6.540  -1.471  0.00  0.00    +0.115 C 
ATOM      8  C   UNL     1       2.141  -7.189  -2.405  0.00  0.00    -0.010 C 
ATOM      9  C   UNL     1       2.072  -8.596  -1.805  0.00  0.00    -0.082 C 
ATOM     10  N   UNL     1       1.456  -9.513  -2.771  0.00  0.00    +0.379 N 
ATOM     11  C   UNL     1       0.069  -9.109  -3.030  0.00  0.00    -0.082 C 
ATOM     12  C   UNL     1       0.052  -7.723  -3.682  0.00  0.00    -0.010 C 
ATOM     13  H   UNL     1       1.978  -9.491  -3.634  0.00  0.00    -0.086 HD
ATOM     14  H   UNL     1       1.467 -10.450  -2.398  0.00  0.00    -0.086 HD
ENDROOT
BRANCH   1  19
ATOM     15  C   UNL     1       0.126   1.203   0.581  0.00  0.00    +0.047 C 
ATOM     16  C   UNL     1       0.136  -0.298   0.447  0.00  0.00    -0.012 A 
ATOM     17  C   UNL     1      -0.641  -0.909  -0.521  0.00  0.00    +0.007 A 
ATOM     18  C   UNL     1      -0.638  -2.281  -0.650  0.00  0.00    +0.016 A 
ATOM     19  C   UNL     1       0.153  -3.059   0.199  0.00  0.00    +0.075 A 
ATOM     20  C   UNL     1       0.937  -2.439   1.175  0.00  0.00    +0.171 A 
ATOM     21  C   UNL     1       0.928  -1.058   1.290  0.00  0.00    +0.162 A 
ATOM     22  F   UNL     1       1.688  -0.454   2.229  0.00  0.00    -0.202 F 
ATOM     23  F   UNL     1       1.705  -3.183   2.001  0.00  0.00    -0.202 F 
ENDBRANCH   1  19
BRANCH   5  24
ATOM     24  C   UNL     1       2.201  -4.845  -3.513  0.00  0.00    +0.218 C 
ATOM     25  O   UNL     1       2.714  -4.272  -2.576  0.00  0.00    -0.275 OA
ATOM     26  N   UNL     1       2.903  -5.047  -4.646  0.00  0.00    -0.315 N 
ATOM     27  H   UNL     1       2.493  -5.506  -5.395  0.00  0.00    +0.149 HD
BRANCH  26  28
ATOM     28  C   UNL     1       4.286  -4.574  -4.744  0.00  0.00    +0.107 C 
BRANCH  28  29
ATOM     29  C   UNL     1       4.849  -4.928  -6.122  0.00  0.00    +0.003 C 
ATOM     30  C   UNL     1       4.941  -6.450  -6.262  0.00  0.00    -0.014 C 
ATOM     31  C   UNL     1       5.578  -6.795  -7.610  0.00  0.00    -0.078 C 
ATOM     32  N   UNL     1       6.924  -6.214  -7.682  0.00  0.00    +0.382 N 
ATOM     33  C   UNL     1       6.838  -4.750  -7.620  0.00  0.00    -0.078 C 
ATOM     34  C   UNL     1       6.250  -4.326  -6.273  0.00  0.00    -0.014 C 
ATOM     35  H   UNL     1       7.477  -6.551  -6.908  0.00  0.00    -0.081 HD
BRANCH  32  36
ATOM     36  C   UNL     1       7.561  -6.613  -8.944  0.00  0.00    -0.069 C 
ATOM     37  C   UNL     1       7.732  -8.146  -8.989  0.00  0.00    -0.015 C 
ATOM     38  C   UNL     1       9.094  -8.356  -9.696  0.00  0.00    -0.002 C 
ATOM     39  C   UNL     1       9.954  -7.199  -9.131  0.00  0.00    -0.002 C 
ATOM     40  C   UNL     1       8.974  -6.011  -9.035  0.00  0.00    -0.015 C 
ENDBRANCH  32  36
ENDBRANCH  28  29
ENDBRANCH  26  28
ENDBRANCH   5  24
TORSDOF 5
