REMARK  Name = ZINC08683845
REMARK  10 active torsions:
REMARK  status: ('A' for Active; 'I' for Inactive)
REMARK    1  A    between atoms: C_1  and  O_2
REMARK    2  A    between atoms: O_2  and  C_3
REMARK    3  A    between atoms: C_6  and  N_9
REMARK    4  A    between atoms: N_12  and  C_15
REMARK    5  A    between atoms: C_15  and  C_17
REMARK    6  A    between atoms: C_15  and  C_31
REMARK    7  A    between atoms: C_17  and  N_18
REMARK    8  A    between atoms: C_19  and  C_21
REMARK    9  A    between atoms: N_23  and  C_24
REMARK   10  A    between atoms: C_24  and  C_25
REMARK                            x       y       z     vdW  Elec       q    Type
REMARK                         _______ _______ _______ _____ _____    ______ ____
ROOT
ATOM      1  C   UNL     1       5.721  -4.192  -6.290  0.00  0.00    +0.017 C 
ENDROOT
BRANCH   1   5
ATOM      2  N   UNL     1       2.216  -1.910  -6.408  0.00  0.00    -0.333 N 
ATOM      3  C   UNL     1       2.112  -3.315  -6.830  0.00  0.00    +0.086 C 
ATOM      4  C   UNL     1       3.517  -3.827  -7.162  0.00  0.00    -0.059 C 
ATOM      5  N   UNL     1       4.404  -3.603  -6.013  0.00  0.00    +0.389 N 
ATOM      6  C   UNL     1       4.555  -2.163  -5.772  0.00  0.00    -0.059 C 
ATOM      7  C   UNL     1       3.205  -1.567  -5.374  0.00  0.00    +0.086 C 
ATOM      8  H   UNL     1       4.008  -4.040  -5.194  0.00  0.00    -0.081 HD
BRANCH   2  12
ATOM      9  C   UNL     1      -0.213   1.022  -8.106  0.00  0.00    +0.120 A 
ATOM     10  C   UNL     1       0.621   1.342  -7.045  0.00  0.00    +0.047 A 
ATOM     11  C   UNL     1       1.426   0.371  -6.482  0.00  0.00    +0.027 A 
ATOM     12  C   UNL     1       1.400  -0.926  -6.978  0.00  0.00    +0.030 A 
ATOM     13  C   UNL     1       0.565  -1.245  -8.040  0.00  0.00    +0.027 A 
ATOM     14  C   UNL     1      -0.244  -0.274  -8.599  0.00  0.00    +0.047 A 
BRANCH   9  16
ATOM     15  C   UNL     1      -0.922   3.292  -8.103  0.00  0.00    +0.277 C 
ATOM     16  O   UNL     1      -1.005   1.978  -8.660  0.00  0.00    -0.495 OA
ENDBRANCH   9  16
ENDBRANCH   2  12
ENDBRANCH   1   5
BRANCH   1  17
ATOM     17  C   UNL     1       6.351  -3.485  -7.462  0.00  0.00    +0.093 A 
ATOM     18  C   UNL     1       7.617  -3.035  -7.521  0.00  0.00    +0.043 A 
ATOM     19  C   UNL     1       7.782  -2.441  -8.793  0.00  0.00    +0.041 A 
ATOM     20  C   UNL     1       6.606  -2.564  -9.436  0.00  0.00    +0.195 A 
ATOM     21  O   UNL     1       5.745  -3.202  -8.627  0.00  0.00    -0.469 OA
ENDBRANCH   1  17
BRANCH   1  22
ATOM     22  C   UNL     1       5.556  -5.677  -6.619  0.00  0.00    +0.097 C 
BRANCH  22  23
ATOM     23  N   UNL     1       4.852  -6.345  -5.522  0.00  0.00    -0.309 N 
ATOM     24  C   UNL     1       4.677  -7.681  -5.548  0.00  0.00    +0.299 C 
ATOM     25  O   UNL     1       5.103  -8.331  -6.481  0.00  0.00    -0.265 OA
ATOM     26  H   UNL     1       4.511  -5.826  -4.777  0.00  0.00    +0.149 HD
BRANCH  24  27
ATOM     27  C   UNL     1       3.959  -8.363  -4.429  0.00  0.00    +0.299 C 
ATOM     28  O   UNL     1       3.533  -7.714  -3.496  0.00  0.00    -0.265 OA
ATOM     29  N   UNL     1       3.784  -9.699  -4.455  0.00  0.00    -0.305 N 
ATOM     30  H   UNL     1       4.124 -10.219  -5.200  0.00  0.00    +0.149 HD
BRANCH  29  31
ATOM     31  C   UNL     1       3.080 -10.368  -3.358  0.00  0.00    +0.136 C 
BRANCH  31  32
ATOM     32  C   UNL     1       3.019 -11.872  -3.632  0.00  0.00    +0.135 C 
ATOM     33  C   UNL     1       2.247 -12.594  -2.499  0.00  0.00    +0.035 C 
ATOM     34  C   UNL     1       1.753 -13.865  -3.243  0.00  0.00    +0.031 C 
ATOM     35  C   UNL     1       1.497 -13.331  -4.669  0.00  0.00    +0.160 C 
ATOM     36  O   UNL     1       2.265 -12.130  -4.827  0.00  0.00    -0.375 OA
ENDBRANCH  31  32
ENDBRANCH  29  31
ENDBRANCH  24  27
ENDBRANCH  22  23
ENDBRANCH   1  22
TORSDOF 9
