REMARK  Name = ZINC13065437
REMARK  10 active torsions:
REMARK  status: ('A' for Active; 'I' for Inactive)
REMARK    1  A    between atoms: C_1  and  C_2
REMARK    2  A    between atoms: C_5  and  C_8
REMARK    3  A    between atoms: C_8  and  N_66
REMARK    4  A    between atoms: C_9  and  C_10
REMARK    5  A    between atoms: C_9  and  N_66
REMARK    6  A    between atoms: C_25  and  C_26
REMARK    7  A    between atoms: C_25  and  N_66
REMARK    8  A    between atoms: N_30  and  C_31
REMARK    9  A    between atoms: C_31  and  C_32
REMARK   10  A    between atoms: C_32  and  C_33
REMARK                            x       y       z     vdW  Elec       q    Type
REMARK                         _______ _______ _______ _____ _____    ______ ____
ROOT
ATOM      1  N   UNL     1      -0.952  -2.040  -2.718  0.00  0.00    +0.390 N 
ATOM      2  H   UNL     1      -0.162  -2.487  -2.238  0.00  0.00    -0.080 HD
ENDROOT
BRANCH   1   3
ATOM      3  C   UNL     1      -1.875  -3.087  -3.201  0.00  0.00    -0.042 C 
BRANCH   3   8
ATOM      4  C   UNL     1       1.215  -7.253  -5.749  0.00  0.00    +0.044 C 
ATOM      5  C   UNL     1       0.409  -6.167  -5.085  0.00  0.00    -0.050 A 
ATOM      6  C   UNL     1       0.245  -6.170  -3.712  0.00  0.00    +0.003 A 
ATOM      7  C   UNL     1      -0.495  -5.173  -3.103  0.00  0.00    +0.002 A 
ATOM      8  C   UNL     1      -1.069  -4.174  -3.866  0.00  0.00    -0.064 A 
ATOM      9  C   UNL     1      -0.909  -4.174  -5.239  0.00  0.00    +0.002 A 
ATOM     10  C   UNL     1      -0.166  -5.168  -5.848  0.00  0.00    +0.003 A 
ENDBRANCH   3   8
ENDBRANCH   1   3
BRANCH   1  11
ATOM     11  C   UNL     1      -0.437  -1.254  -3.859  0.00  0.00    -0.036 C 
BRANCH  11  12
ATOM     12  C   UNL     1       0.835  -0.566  -3.436  0.00  0.00    +0.001 A 
ATOM     13  C   UNL     1       2.033  -1.164  -3.657  0.00  0.00    +0.017 A 
ATOM     14  C   UNL     1       3.250  -0.471  -3.236  0.00  0.00    +0.002 A 
ATOM     15  C   UNL     1       4.513  -1.040  -3.440  0.00  0.00    +0.059 A 
ATOM     16  C   UNL     1       5.641  -0.363  -3.033  0.00  0.00    +0.167 A 
ATOM     17  C   UNL     1       5.528   0.890  -2.418  0.00  0.00    +0.168 A 
ATOM     18  C   UNL     1       4.285   1.460  -2.212  0.00  0.00    +0.075 A 
ATOM     19  C   UNL     1       3.138   0.789  -2.617  0.00  0.00    +0.053 A 
ATOM     20  N   UNL     1       1.889   1.343  -2.421  0.00  0.00    -0.322 N 
ATOM     21  H   UNL     1       1.812   2.211  -1.994  0.00  0.00    +0.169 HD
ATOM     22  C   UNL     1       0.777   0.700  -2.817  0.00  0.00    +0.251 A 
ATOM     23  O   UNL     1      -0.309   1.221  -2.633  0.00  0.00    -0.268 OA
ATOM     24  O   UNL     1       6.781   1.339  -2.117  0.00  0.00    -0.453 OA
ATOM     25  C   UNL     1       7.677   0.548  -2.919  0.00  0.00    +0.466 C 
ATOM     26  O   UNL     1       6.965  -0.688  -3.114  0.00  0.00    -0.453 OA
ENDBRANCH  11  12
ENDBRANCH   1  11
BRANCH   1  27
ATOM     27  C   UNL     1      -1.651  -1.151  -1.766  0.00  0.00    +0.001 C 
BRANCH  27  28
ATOM     28  C   UNL     1      -1.970  -1.930  -0.517  0.00  0.00    +0.135 A 
ATOM     29  N   UNL     1      -3.066  -2.607  -0.275  0.00  0.00    -0.115 NA
ATOM     30  N   UNL     1      -2.959  -3.133   0.896  0.00  0.00    -0.023 NA
ATOM     31  N   UNL     1      -1.821  -2.814   1.406  0.00  0.00    -0.044 NA
ATOM     32  N   UNL     1      -1.184  -2.068   0.568  0.00  0.00    -0.231 N 
BRANCH  32  33
ATOM     33  C   UNL     1       0.147  -1.486   0.757  0.00  0.00    +0.152 C 
BRANCH  33  34
ATOM     34  C   UNL     1       0.013  -0.107   1.406  0.00  0.00    +0.058 C 
BRANCH  34  35
ATOM     35  C   UNL     1       1.382   0.492   1.601  0.00  0.00    -0.046 A 
ATOM     36  C   UNL     1       2.073   0.268   2.776  0.00  0.00    +0.004 A 
ATOM     37  C   UNL     1       3.331   0.814   2.953  0.00  0.00    +0.000 A 
ATOM     38  C   UNL     1       3.893   1.592   1.958  0.00  0.00    +0.000 A 
ATOM     39  C   UNL     1       3.199   1.820   0.785  0.00  0.00    +0.000 A 
ATOM     40  C   UNL     1       1.944   1.271   0.606  0.00  0.00    +0.004 A 
ENDBRANCH  34  35
ENDBRANCH  33  34
ENDBRANCH  32  33
ENDBRANCH  27  28
ENDBRANCH   1  27
TORSDOF 9
