REMARK  Name = ZINC49683162
REMARK  5 active torsions:
REMARK  status: ('A' for Active; 'I' for Inactive)
REMARK    1  A    between atoms: C_1  and  C_2
REMARK    2  A    between atoms: C_7  and  N_8
REMARK    3  A    between atoms: C_9  and  C_11
REMARK    4  A    between atoms: C_13  and  C_24
REMARK    5  A    between atoms: N_14  and  C_16
REMARK                            x       y       z     vdW  Elec       q    Type
REMARK                         _______ _______ _______ _____ _____    ______ ____
ROOT
ATOM      1  C   UNL     1      -0.166   0.038   4.856  0.00  0.00    +0.148 A 
ATOM      2  C   UNL     1      -0.253  -0.531   6.148  0.00  0.00    +0.057 A 
ATOM      3  C   UNL     1      -0.335   0.517   7.001  0.00  0.00    +0.037 A 
ATOM      4  N   UNL     1      -0.298   1.642   6.256  0.00  0.00    -0.263 N 
ATOM      5  N   UNL     1      -0.194   1.347   5.010  0.00  0.00    -0.166 NA
ATOM      6  C   UNL     1      -0.447   0.441   8.502  0.00  0.00    +0.065 C 
ENDROOT
BRANCH   4   7
ATOM      7  C   UNL     1      -0.362   3.004   6.792  0.00  0.00    +0.130 C 
ATOM      8  C   UNL     1       0.909   3.771   6.390  0.00  0.00    +0.051 C 
ATOM      9  C   UNL     1       0.680   5.280   6.692  0.00  0.00    +0.168 C 
ATOM     10  S   UNL     1      -1.065   5.474   6.136  0.00  0.00    -0.029 S 
ATOM     11  O   UNL     1      -1.074   5.891   4.777  0.00  0.00    -0.174 OA
ATOM     12  O   UNL     1      -1.778   6.233   7.104  0.00  0.00    -0.174 OA
ATOM     13  C   UNL     1      -1.611   3.721   6.226  0.00  0.00    +0.192 C 
ENDBRANCH   4   7
BRANCH   1  15
ATOM     14  N   UNL     1       0.025  -0.014   2.417  0.00  0.00    -0.280 N 
ATOM     15  C   UNL     1      -0.056  -0.694   3.578  0.00  0.00    +0.268 C 
ATOM     16  O   UNL     1      -0.040  -1.909   3.573  0.00  0.00    -0.268 OA
ATOM     17  H   UNL     1       0.078   0.954   2.424  0.00  0.00    +0.155 HD
BRANCH  14  24
ATOM     18  C   UNL     1      -1.266   1.183   0.182  0.00  0.00    +0.046 C 
ATOM     19  C   UNL     1      -0.585  -0.158   0.085  0.00  0.00    -0.028 A 
ATOM     20  C   UNL     1      -0.570  -0.841  -1.116  0.00  0.00    +0.025 A 
ATOM     21  C   UNL     1       0.054  -2.072  -1.206  0.00  0.00    +0.041 A 
ATOM     22  C   UNL     1       0.667  -2.623  -0.094  0.00  0.00    +0.022 A 
ATOM     23  C   UNL     1       0.655  -1.945   1.109  0.00  0.00    +0.025 A 
ATOM     24  C   UNL     1       0.034  -0.706   1.201  0.00  0.00    +0.037 A 
ATOM     25 CL   UNL     1       0.070  -2.927  -2.716  0.00  0.00    -0.084 Cl
ENDBRANCH  14  24
ENDBRANCH   1  15
TORSDOF 3
