REMARK  Name = ZINC37827969
REMARK  9 active torsions:
REMARK  status: ('A' for Active; 'I' for Inactive)
REMARK    1  A    between atoms: C_1  and  C_2
REMARK    2  A    between atoms: C_2  and  C_3
REMARK    3  A    between atoms: C_2  and  C_4
REMARK    4  A    between atoms: C_2  and  N_5
REMARK    5  A    between atoms: C_6  and  C_8
REMARK    6  A    between atoms: C_8  and  N_9
REMARK    7  A    between atoms: N_9  and  C_10
REMARK    8  A    between atoms: C_11  and  C_13
REMARK    9  A    between atoms: C_19  and  C_21
REMARK                            x       y       z     vdW  Elec       q    Type
REMARK                         _______ _______ _______ _____ _____    ______ ____
ROOT
ATOM      1  N   UNL     1       4.051  -0.111  -2.677  0.00  0.00    -0.295 N 
ATOM      2  C   UNL     1       5.125  -0.892  -2.057  0.00  0.00    +0.132 C 
ATOM      3  C   UNL     1       4.328   1.073  -3.257  0.00  0.00    +0.220 C 
ATOM      4  O   UNL     1       3.439   1.720  -3.770  0.00  0.00    -0.275 OA
ENDROOT
BRANCH   3   5
ATOM      5  C   UNL     1       5.742   1.595  -3.268  0.00  0.00    +0.089 C 
ATOM      6  C   UNL     1       6.646   0.604  -4.003  0.00  0.00    +0.013 C 
ATOM      7  C   UNL     1       6.154   0.435  -5.442  0.00  0.00    +0.001 C 
ATOM      8  C   UNL     1       6.193   1.787  -6.156  0.00  0.00    +0.001 C 
ATOM      9  C   UNL     1       5.289   2.779  -5.421  0.00  0.00    +0.015 C 
ATOM     10  C   UNL     1       5.781   2.948  -3.982  0.00  0.00    +0.114 C 
BRANCH  10  11
ATOM     11  C   UNL     1       4.891   3.924  -3.258  0.00  0.00    +0.360 C 
ATOM     12  O   UNL     1       5.245   5.082  -3.115  0.00  0.00    -0.246 OA
ATOM     13  O   UNL     1       3.816   3.557  -2.815  0.00  0.00    -0.246 OA
ENDBRANCH  10  11
ENDBRANCH   3   5
BRANCH   1  14
ATOM     14  C   UNL     1       2.677  -0.618  -2.667  0.00  0.00    +0.203 C 
BRANCH  14  16
ATOM     15  N   UNL     1       0.688  -0.476  -1.203  0.00  0.00    -0.309 N 
ATOM     16  C   UNL     1       1.972  -0.132  -1.427  0.00  0.00    +0.231 C 
ATOM     17  O   UNL     1       2.559   0.569  -0.630  0.00  0.00    -0.274 OA
ATOM     18  H   UNL     1       0.218  -1.037  -1.840  0.00  0.00    +0.149 HD
BRANCH  15  20
ATOM     19  C   UNL     1      -0.019   1.526   0.010  0.00  0.00    +0.031 C 
ATOM     20  C   UNL     1       0.002  -0.004   0.002  0.00  0.00    +0.026 C 
ATOM     21  C   UNL     1       0.742  -0.511   1.242  0.00  0.00    +0.031 C 
ATOM     22  C   UNL     1      -1.433  -0.534   0.013  0.00  0.00    +0.031 C 
ENDBRANCH  15  20
ENDBRANCH  14  16
ENDBRANCH   1  14
TORSDOF 5
