REMARK  Name = ZINC01430397
REMARK  9 active torsions:
REMARK  status: ('A' for Active; 'I' for Inactive)
REMARK    1  A    between atoms: C_1  and  C_2
REMARK    2  A    between atoms: C_2  and  C_11
REMARK    3  A    between atoms: C_3  and  C_9
REMARK    4  A    between atoms: C_3  and  O_10
REMARK    5  A    between atoms: N_4  and  N_8
REMARK    6  A    between atoms: C_11  and  C_12
REMARK    7  A    between atoms: C_12  and  C_13
REMARK    8  A    between atoms: C_12  and  C_14
REMARK    9  A    between atoms: C_12  and  C_15
REMARK                            x       y       z     vdW  Elec       q    Type
REMARK                         _______ _______ _______ _____ _____    ______ ____
ROOT
ATOM      1  C   UNL     1       6.757   0.360  -0.504  0.00  0.00    +0.061 C 
ATOM      2  C   UNL     1       5.881   1.280   0.349  0.00  0.00    +0.159 C 
ATOM      3  C   UNL     1       6.659   2.548   0.754  0.00  0.00    +0.189 C 
ATOM      4  N   UNL     1       6.689   2.486   2.223  0.00  0.00    -0.170 N 
ATOM      5  C   UNL     1       6.045   1.381   2.624  0.00  0.00    +0.420 C 
ATOM      6  O   UNL     1       5.917   1.077   3.793  0.00  0.00    -0.225 OA
ATOM      7  O   UNL     1       5.558   0.644   1.620  0.00  0.00    -0.438 OA
ATOM      8  C   UNL     1       5.922   3.803   0.283  0.00  0.00    +0.069 C 
ENDROOT
BRANCH   4   9
ATOM      9  N   UNL     1       7.277   3.405   3.045  0.00  0.00    -0.246 NA
ATOM     10  H   UNL     1       7.166   3.147   4.014  0.00  0.00    +0.141 HD
ATOM     11  H   UNL     1       8.251   3.527   2.812  0.00  0.00    +0.141 HD
ENDBRANCH   4   9
BRANCH   3  12
ATOM     12  O   UNL     1       7.985   2.514   0.223  0.00  0.00    -0.367 OA
ATOM     13  H   UNL     1       8.519   3.288   0.448  0.00  0.00    +0.212 HD
ENDBRANCH   3  12
BRANCH   2  14
ATOM     14  C   UNL     1       4.603   1.653  -0.405  0.00  0.00    +0.063 C 
BRANCH  14  15
ATOM     15  C   UNL     1       3.852   0.379  -0.796  0.00  0.00    -0.006 C 
ATOM     16  C   UNL     1       3.692  -0.517   0.434  0.00  0.00    +0.016 C 
ATOM     17  C   UNL     1       4.642  -0.369  -1.871  0.00  0.00    +0.016 C 
BRANCH  15  18
ATOM     18  C   UNL     1       2.492   0.742  -1.333  0.00  0.00    -0.042 A 
ATOM     19  C   UNL     1       1.627  -0.251  -1.754  0.00  0.00    +0.004 A 
ATOM     20  C   UNL     1       0.379   0.083  -2.247  0.00  0.00    +0.000 A 
ATOM     21  C   UNL     1      -0.003   1.409  -2.320  0.00  0.00    +0.000 A 
ATOM     22  C   UNL     1       0.862   2.402  -1.900  0.00  0.00    +0.000 A 
ATOM     23  C   UNL     1       2.110   2.069  -1.407  0.00  0.00    +0.004 A 
ENDBRANCH  15  18
ENDBRANCH  14  15
ENDBRANCH   2  14
TORSDOF 5
