REMARK  Name = ZINC20753456
REMARK  4 active torsions:
REMARK  status: ('A' for Active; 'I' for Inactive)
REMARK    1  A    between atoms: C_1  and  N_2
REMARK    2  A    between atoms: N_5  and  S_8
REMARK    3  A    between atoms: S_8  and  C_11
REMARK    4  A    between atoms: C_24  and  C_27
REMARK                            x       y       z     vdW  Elec       q    Type
REMARK                         _______ _______ _______ _____ _____    ______ ____
ROOT
ATOM      1  C   UNL     1      -5.359   2.827   1.278  0.00  0.00    +0.106 A 
ATOM      2  C   UNL     1      -5.058   3.866   2.141  0.00  0.00    +0.030 A 
ATOM      3  C   UNL     1      -3.776   4.090   2.489  0.00  0.00    +0.025 A 
ATOM      4  C   UNL     1      -2.753   3.303   1.975  0.00  0.00    +0.031 A 
ATOM      5  C   UNL     1      -3.027   2.266   1.108  0.00  0.00    -0.018 A 
ATOM      6  C   UNL     1      -4.353   2.034   0.766  0.00  0.00    +0.034 A 
ATOM      7  C   UNL     1      -1.971   1.380   0.530  0.00  0.00    +0.049 C 
ATOM      8  C   UNL     1      -1.708   1.706  -0.921  0.00  0.00    -0.023 C 
ATOM      9  C   UNL     1      -0.432   1.581  -1.190  0.00  0.00    -0.030 C 
ATOM     10  C   UNL     1       0.332   1.148   0.046  0.00  0.00    +0.033 C 
ATOM     11  C   UNL     1      -0.600   1.574   1.218  0.00  0.00    +0.029 C 
ATOM     12  C   UNL     1      -0.354   3.062   1.480  0.00  0.00    +0.106 C 
ATOM     13  N   UNL     1      -1.429   3.579   2.334  0.00  0.00    -0.336 N 
ATOM     14  H   UNL     1      -1.185   4.166   3.231  0.00  0.00    +0.147 HD
ENDROOT
BRANCH  12  15
ATOM     15  C   UNL     1      -0.345   3.810   0.172  0.00  0.00    -0.012 A 
ATOM     16  C   UNL     1      -1.544   4.119  -0.468  0.00  0.00    -0.012 A 
ATOM     17  C   UNL     1      -2.786   3.752   0.095  0.00  0.00    +0.009 A 
ATOM     18  C   UNL     1      -3.935   4.072  -0.551  0.00  0.00    +0.001 A 
ATOM     19  C   UNL     1      -3.927   4.765  -1.763  0.00  0.00    +0.001 A 
ATOM     20  C   UNL     1      -2.769   5.152  -2.356  0.00  0.00    +0.008 A 
ATOM     21  C   UNL     1      -1.536   4.851  -1.738  0.00  0.00    -0.017 A 
ATOM     22  C   UNL     1      -0.329   5.234  -2.319  0.00  0.00    +0.017 A 
ATOM     23  C   UNL     1       0.871   4.921  -1.682  0.00  0.00    -0.017 A 
ATOM     24  C   UNL     1       0.863   4.193  -0.409  0.00  0.00    -0.012 A 
ATOM     25  C   UNL     1       2.096   3.893   0.209  0.00  0.00    +0.009 A 
ATOM     26  C   UNL     1       3.254   4.281  -0.384  0.00  0.00    +0.001 A 
ATOM     27  C   UNL     1       3.262   4.974  -1.595  0.00  0.00    +0.001 A 
ATOM     28  C   UNL     1       2.112   5.294  -2.242  0.00  0.00    +0.008 A 
ENDBRANCH  12  15
BRANCH   1  29
ATOM     29  S   UNL     1      -7.035   2.516   0.831  0.00  0.00    +0.061 S 
ATOM     30  O   UNL     1      -7.737   3.738   1.014  0.00  0.00    -0.153 OA
ATOM     31  O   UNL     1      -7.003   1.834  -0.415  0.00  0.00    -0.153 OA
BRANCH  29  36
ATOM     32  C   UNL     1      -7.297  -0.975   5.348  0.00  0.00    -0.096 C 
ATOM     33  N   UNL     1      -7.734  -0.245   4.151  0.00  0.00    +0.380 N 
ATOM     34  C   UNL     1      -7.667   1.206   4.365  0.00  0.00    -0.062 C 
ATOM     35  C   UNL     1      -8.298   1.926   3.168  0.00  0.00    +0.091 C 
ATOM     36  N   UNL     1      -7.646   1.448   1.939  0.00  0.00    -0.180 NA
ATOM     37  C   UNL     1      -7.559  -0.003   1.717  0.00  0.00    +0.091 C 
ATOM     38  C   UNL     1      -6.952  -0.647   2.974  0.00  0.00    -0.062 C 
ATOM     39  H   UNL     1      -8.785  -0.506   3.958  0.00  0.00    -0.082 HD
ENDBRANCH  29  36
ENDBRANCH   1  29
TORSDOF 3
