REMARK  Name = ZINC59371405
REMARK  9 active torsions:
REMARK  status: ('A' for Active; 'I' for Inactive)
REMARK    1  A    between atoms: C_1  and  C_2
REMARK    2  A    between atoms: C_2  and  C_4
REMARK    3  A    between atoms: C_2  and  N_11
REMARK    4  A    between atoms: N_11  and  C_12
REMARK    5  A    between atoms: N_11  and  C_13
REMARK    6  A    between atoms: C_13  and  C_14
REMARK    7  A    between atoms: C_14  and  O_15
REMARK    8  A    between atoms: O_15  and  C_16
REMARK    9  A    between atoms: C_20  and  C_22
REMARK                            x       y       z     vdW  Elec       q    Type
REMARK                         _______ _______ _______ _____ _____    ______ ____
ROOT
ATOM      1  N   UNL     1      -1.212  -0.516  -0.044  0.00  0.00    +0.384 N 
ATOM      2  C   UNL     1      -0.737  -1.906  -0.055  0.00  0.00    -0.095 C 
ATOM      3  H   UNL     1      -1.960  -0.411  -0.714  0.00  0.00    -0.081 HD
ENDROOT
BRANCH   1   5
ATOM      4  C   UNL     1      -0.601   1.830  -0.389  0.00  0.00    -0.008 C 
ATOM      5  C   UNL     1      -0.106   0.383  -0.400  0.00  0.00    -0.041 C 
BRANCH   5   6
ATOM      6  C   UNL     1       0.400   0.035  -1.776  0.00  0.00    -0.061 A 
ATOM      7  C   UNL     1      -0.494  -0.293  -2.779  0.00  0.00    +0.005 A 
ATOM      8  C   UNL     1      -0.032  -0.611  -4.041  0.00  0.00    +0.038 A 
ATOM      9  C   UNL     1       1.328  -0.600  -4.303  0.00  0.00    +0.123 A 
ATOM     10  C   UNL     1       2.223  -0.272  -3.298  0.00  0.00    +0.038 A 
ATOM     11  C   UNL     1       1.757   0.051  -2.038  0.00  0.00    +0.005 A 
ATOM     12  F   UNL     1       1.782  -0.911  -5.537  0.00  0.00    -0.205 F 
ENDBRANCH   5   6
ENDBRANCH   1   5
BRANCH   1  13
ATOM     13  C   UNL     1      -1.705  -0.178   1.298  0.00  0.00    -0.037 C 
BRANCH  13  14
ATOM     14  C   UNL     1      -2.955  -1.004   1.605  0.00  0.00    +0.210 C 
BRANCH  14  15
ATOM     15  O   UNL     1      -2.596  -2.382   1.732  0.00  0.00    -0.494 OA
BRANCH  15  16
ATOM     16  C   UNL     1      -3.599  -3.258   2.007  0.00  0.00    +0.122 A 
ATOM     17  C   UNL     1      -4.902  -2.800   2.145  0.00  0.00    +0.046 A 
ATOM     18  C   UNL     1      -5.926  -3.686   2.424  0.00  0.00    +0.005 A 
ATOM     19  C   UNL     1      -5.659  -5.032   2.567  0.00  0.00    +0.019 A 
ATOM     20  C   UNL     1      -4.351  -5.503   2.430  0.00  0.00    +0.055 A 
ATOM     21  C   UNL     1      -3.320  -4.607   2.142  0.00  0.00    +0.064 A 
BRANCH  20  22
ATOM     22  C   UNL     1      -4.071  -6.899   2.577  0.00  0.00    +0.099 C 
ATOM     23  N   UNL     1      -3.848  -8.007   2.695  0.00  0.00    -0.191 NA
ENDBRANCH  20  22
ENDBRANCH  15  16
ENDBRANCH  14  15
ENDBRANCH  13  14
ENDBRANCH   1  13
TORSDOF 7
