REMARK  Name = ZINC03465435
REMARK  7 active torsions:
REMARK  status: ('A' for Active; 'I' for Inactive)
REMARK    1  A    between atoms: C_1  and  C_2
REMARK    2  A    between atoms: C_7  and  N_8
REMARK    3  A    between atoms: C_12  and  S_14
REMARK    4  A    between atoms: S_14  and  C_15
REMARK    5  A    between atoms: C_15  and  C_16
REMARK    6  A    between atoms: N_21  and  C_22
REMARK    7  A    between atoms: C_22  and  C_23
REMARK                            x       y       z     vdW  Elec       q    Type
REMARK                         _______ _______ _______ _____ _____    ______ ____
ROOT
ATOM      1  S   UNL     1      -0.376  -2.019   7.842  0.00  0.00    -0.088 S 
ENDROOT
BRANCH   1   6
ATOM      2  N   UNL     1       0.025  -0.016   2.416  0.00  0.00    -0.292 N 
ATOM      3  C   UNL     1      -0.059  -0.718   3.613  0.00  0.00    +0.187 A 
ATOM      4  N   UNL     1      -0.052  -2.020   3.821  0.00  0.00    -0.125 NA
ATOM      5  N   UNL     1      -0.146  -2.509   5.104  0.00  0.00    -0.133 NA
ATOM      6  C   UNL     1      -0.243  -1.673   6.120  0.00  0.00    +0.160 A 
ATOM      7  S   UNL     1      -0.197  -0.096   5.282  0.00  0.00    -0.024 S 
ATOM      8  H   UNL     1      -0.078   0.948   2.410  0.00  0.00    +0.154 HD
BRANCH   2  15
ATOM      9  C   UNL     1      -0.240   1.419  -0.026  0.00  0.00    +0.045 C 
ATOM     10  C   UNL     1       0.140  -0.039   0.005  0.00  0.00    -0.029 A 
ATOM     11  C   UNL     1       0.377  -0.717  -1.175  0.00  0.00    +0.005 A 
ATOM     12  C   UNL     1       0.725  -2.055  -1.147  0.00  0.00    +0.000 A 
ATOM     13  C   UNL     1       0.838  -2.718   0.061  0.00  0.00    +0.002 A 
ATOM     14  C   UNL     1       0.602  -2.047   1.244  0.00  0.00    +0.023 A 
ATOM     15  C   UNL     1       0.258  -0.701   1.220  0.00  0.00    +0.036 A 
ENDBRANCH   2  15
ENDBRANCH   1   6
BRANCH   1  16
ATOM     16  C   UNL     1      -0.351  -3.831   7.929  0.00  0.00    +0.172 C 
BRANCH  16  17
ATOM     17  C   UNL     1      -0.460  -4.266   9.367  0.00  0.00    +0.231 C 
ATOM     18  O   UNL     1      -0.545  -3.437  10.247  0.00  0.00    -0.274 OA
ATOM     19  N   UNL     1      -0.461  -5.578   9.676  0.00  0.00    -0.239 N 
ATOM     20  C   UNL     1      -0.558  -5.968  10.963  0.00  0.00    +0.306 C 
ATOM     21  O   UNL     1      -0.644  -5.136  11.844  0.00  0.00    -0.252 OA
ATOM     22  N   UNL     1      -0.559  -7.280  11.271  0.00  0.00    -0.292 N 
ATOM     23  H   UNL     1      -0.392  -6.242   8.972  0.00  0.00    +0.159 HD
ATOM     24  H   UNL     1      -0.491  -7.944  10.567  0.00  0.00    +0.151 HD
BRANCH  22  25
ATOM     25  C   UNL     1      -0.665  -7.703  12.669  0.00  0.00    +0.180 C 
BRANCH  25  26
ATOM     26  C   UNL     1      -0.644  -9.209  12.742  0.00  0.00    +0.122 A 
ATOM     27  C   UNL     1       0.454  -9.975  12.873  0.00  0.00    +0.046 A 
ATOM     28  C   UNL     1       0.015 -11.318  12.897  0.00  0.00    +0.041 A 
ATOM     29  C   UNL     1      -1.324 -11.293  12.780  0.00  0.00    +0.195 A 
ATOM     30  O   UNL     1      -1.719 -10.012  12.692  0.00  0.00    -0.466 OA
ENDBRANCH  25  26
ENDBRANCH  22  25
ENDBRANCH  16  17
ENDBRANCH   1  16
TORSDOF 6
