REMARK  Name = ZINC12325747
REMARK  8 active torsions:
REMARK  status: ('A' for Active; 'I' for Inactive)
REMARK    1  A    between atoms: C_1  and  C_2
REMARK    2  A    between atoms: C_4  and  C_7
REMARK    3  A    between atoms: C_7  and  C_9
REMARK    4  A    between atoms: C_7  and  N_10
REMARK    5  A    between atoms: C_21  and  N_56
REMARK    6  A    between atoms: C_25  and  C_26
REMARK    7  A    between atoms: C_25  and  N_56
REMARK    8  A    between atoms: C_26  and  C_27
REMARK                            x       y       z     vdW  Elec       q    Type
REMARK                         _______ _______ _______ _____ _____    ______ ____
ROOT
ATOM      1  N   UNL     1       0.244  -0.460  -4.197  0.00  0.00    -0.290 N 
ATOM      2  C   UNL     1      -0.519   0.161  -5.128  0.00  0.00    +0.203 A 
ATOM      3  N   UNL     1      -1.310   1.173  -4.847  0.00  0.00    -0.230 NA
ATOM      4  C   UNL     1      -1.345   1.589  -3.584  0.00  0.00    +0.116 A 
ATOM      5  C   UNL     1      -0.588   1.007  -2.543  0.00  0.00    +0.076 A 
ATOM      6  C   UNL     1       0.262  -0.095  -2.893  0.00  0.00    +0.263 A 
ATOM      7  O   UNL     1       0.956  -0.665  -2.069  0.00  0.00    -0.267 OA
ATOM      8  C   UNL     1      -0.755   1.594  -1.225  0.00  0.00    -0.023 A 
ATOM      9  C   UNL     1      -1.616   2.634  -1.129  0.00  0.00    -0.006 A 
ATOM     10  S   UNL     1      -2.238   2.877  -2.774  0.00  0.00    -0.073 S 
ATOM     11  C   UNL     1      -1.966   3.412   0.103  0.00  0.00    +0.027 C 
ATOM     12  C   UNL     1      -0.924   3.099   1.187  0.00  0.00    -0.067 C 
ATOM     13  C   UNL     1      -0.733   1.581   1.262  0.00  0.00    -0.011 C 
ATOM     14  C   UNL     1      -0.013   1.086   0.008  0.00  0.00    +0.035 C 
ENDROOT
BRANCH  12  15
ATOM     15  N   UNL     1      -1.402   3.595   2.491  0.00  0.00    +0.381 N 
ATOM     16  H   UNL     1      -0.963   3.050   3.242  0.00  0.00    -0.086 HD
ATOM     17  H   UNL     1      -2.422   3.486   2.542  0.00  0.00    -0.086 HD
BRANCH  15  18
ATOM     18  C   UNL     1      -1.056   5.019   2.656  0.00  0.00    -0.078 C 
BRANCH  18  19
ATOM     19  C   UNL     1      -1.563   5.505   4.015  0.00  0.00    +0.016 C 
BRANCH  19  20
ATOM     20  C   UNL     1      -1.214   6.960   4.191  0.00  0.00    -0.049 A 
ATOM     21  C   UNL     1      -0.013   7.316   4.778  0.00  0.00    +0.005 A 
ATOM     22  C   UNL     1       0.311   8.650   4.934  0.00  0.00    +0.020 A 
ATOM     23  C   UNL     1      -0.571   9.630   4.515  0.00  0.00    +0.041 A 
ATOM     24  C   UNL     1      -1.775   9.273   3.933  0.00  0.00    +0.020 A 
ATOM     25  C   UNL     1      -2.095   7.939   3.772  0.00  0.00    +0.005 A 
ATOM     26 CL   UNL     1      -0.168  11.306   4.717  0.00  0.00    -0.084 Cl
ENDBRANCH  19  20
ENDBRANCH  18  19
ENDBRANCH  15  18
ENDBRANCH  12  15
BRANCH   1  27
ATOM     27  C   UNL     1       1.090  -1.579  -4.620  0.00  0.00    +0.137 C 
ATOM     28  C   UNL     1       0.214  -2.686  -5.209  0.00  0.00    +0.038 C 
BRANCH  27  32
ATOM     29  C   UNL     1       2.506   1.544  -8.263  0.00  0.00    +0.073 C 
ATOM     30  C   UNL     1       2.641   0.373  -7.323  0.00  0.00    +0.076 A 
ATOM     31  N   UNL     1       1.796  -0.056  -6.414  0.00  0.00    -0.247 NA
ATOM     32  C   UNL     1       2.068  -1.102  -5.663  0.00  0.00    +0.071 A 
ATOM     33  C   UNL     1       3.248  -1.746  -5.856  0.00  0.00    +0.072 A 
ATOM     34  S   UNL     1       3.949  -0.758  -7.170  0.00  0.00    -0.080 S 
ENDBRANCH  27  32
ENDBRANCH   1  27
TORSDOF 6
