REMARK  Name = ZINC49072655
REMARK  9 active torsions:
REMARK  status: ('A' for Active; 'I' for Inactive)
REMARK    1  A    between atoms: C_8  and  C_10
REMARK    2  A    between atoms: C_10  and  N_11
REMARK    3  A    between atoms: N_11  and  C_12
REMARK    4  A    between atoms: N_11  and  C_28
REMARK    5  A    between atoms: C_12  and  C_13
REMARK    6  A    between atoms: C_16  and  C_19
REMARK    7  A    between atoms: C_19  and  N_20
REMARK    8  A    between atoms: N_20  and  C_21
REMARK    9  A    between atoms: C_21  and  C_22
REMARK                            x       y       z     vdW  Elec       q    Type
REMARK                         _______ _______ _______ _____ _____    ______ ____
ROOT
ATOM      1  N   UNL     1       4.043  -3.730  -1.397  0.00  0.00    +0.394 N 
ATOM      2  H   UNL     1       4.651  -2.972  -1.670  0.00  0.00    -0.080 HD
ENDROOT
BRANCH   1   3
ATOM      3  C   UNL     1       2.740  -3.573  -2.057  0.00  0.00    -0.017 C 
ATOM      4  C   UNL     1       1.725  -4.501  -1.393  0.00  0.00    -0.009 C 
ATOM      5  C   UNL     1       0.333  -4.172  -1.945  0.00  0.00    +0.003 C 
ATOM      6  C   UNL     1      -0.085  -2.803  -1.410  0.00  0.00    +0.037 C 
ATOM      7  C   UNL     1       0.998  -1.788  -1.653  0.00  0.00    -0.028 A 
ATOM      8  C   UNL     1       2.296  -2.137  -1.946  0.00  0.00    +0.031 A 
ATOM      9  N   UNL     1       3.209  -1.195  -2.144  0.00  0.00    -0.261 NA
ATOM     10  C   UNL     1       2.925   0.087  -2.075  0.00  0.00    +0.111 A 
ATOM     11  C   UNL     1       1.641   0.510  -1.789  0.00  0.00    +0.020 A 
ATOM     12  C   UNL     1       0.659  -0.440  -1.575  0.00  0.00    +0.007 A 
ENDBRANCH   1   3
BRANCH   1  13
ATOM     13  C   UNL     1       3.860  -3.711   0.060  0.00  0.00    +0.020 C 
BRANCH  13  21
ATOM     14  C   UNL     1       1.494   1.516   1.801  0.00  0.00    +0.002 A 
ATOM     15  C   UNL     1       2.811   1.949   1.756  0.00  0.00    +0.004 A 
ATOM     16  C   UNL     1       3.820   1.083   1.390  0.00  0.00    +0.048 A 
ATOM     17  C   UNL     1       3.519  -0.231   1.065  0.00  0.00    +0.155 A 
ATOM     18  C   UNL     1       2.188  -0.673   1.109  0.00  0.00    +0.109 A 
ATOM     19  C   UNL     1       1.177   0.215   1.481  0.00  0.00    +0.031 A 
ATOM     20  N   UNL     1       2.204  -1.984   0.745  0.00  0.00    -0.215 NA
ATOM     21  C   UNL     1       3.430  -2.334   0.495  0.00  0.00    +0.180 A 
ATOM     22  O   UNL     1       4.258  -1.294   0.678  0.00  0.00    -0.442 OA
ENDBRANCH  13  21
ENDBRANCH   1  13
BRANCH   1  23
ATOM     23  C   UNL     1       4.645  -5.009  -1.799  0.00  0.00    -0.041 C 
BRANCH  23  24
ATOM     24  C   UNL     1       4.960  -4.975  -3.272  0.00  0.00    -0.064 A 
ATOM     25  C   UNL     1       4.067  -5.508  -4.183  0.00  0.00    +0.002 A 
ATOM     26  C   UNL     1       4.356  -5.478  -5.534  0.00  0.00    +0.002 A 
ATOM     27  C   UNL     1       5.537  -4.912  -5.975  0.00  0.00    -0.064 A 
ATOM     28  C   UNL     1       6.430  -4.378  -5.065  0.00  0.00    +0.002 A 
ATOM     29  C   UNL     1       6.139  -4.405  -3.714  0.00  0.00    +0.002 A 
BRANCH  27  30
ATOM     30  C   UNL     1       5.853  -4.879  -7.449  0.00  0.00    -0.046 C 
BRANCH  30  31
ATOM     31  N   UNL     1       5.432  -3.589  -8.011  0.00  0.00    +0.385 N 
ATOM     32  H   UNL     1       4.455  -3.437  -7.808  0.00  0.00    -0.085 HD
ATOM     33  H   UNL     1       5.981  -2.848  -7.601  0.00  0.00    -0.085 HD
BRANCH  31  34
ATOM     34  C   UNL     1       5.633  -3.600  -9.466  0.00  0.00    -0.026 C 
BRANCH  34  35
ATOM     35  C   UNL     1       5.201  -2.276 -10.043  0.00  0.00    +0.024 A 
ATOM     36  C   UNL     1       6.140  -1.285 -10.255  0.00  0.00    +0.021 A 
ATOM     37  C   UNL     1       5.732  -0.071 -10.786  0.00  0.00    +0.003 A 
ATOM     38  C   UNL     1       4.389   0.101 -11.085  0.00  0.00    +0.020 A 
ATOM     39  C   UNL     1       3.508  -0.936 -10.845  0.00  0.00    +0.111 A 
ATOM     40  N   UNL     1       3.933  -2.080 -10.344  0.00  0.00    -0.262 NA
ENDBRANCH  34  35
ENDBRANCH  31  34
ENDBRANCH  30  31
ENDBRANCH  27  30
ENDBRANCH  23  24
ENDBRANCH   1  23
TORSDOF 9
