REMARK  Name = ZINC12912690
REMARK  5 active torsions:
REMARK  status: ('A' for Active; 'I' for Inactive)
REMARK    1  A    between atoms: C_1  and  C_2
REMARK    2  A    between atoms: C_9  and  C_14
REMARK    3  A    between atoms: N_16  and  N_17
REMARK    4  A    between atoms: C_18  and  C_20
REMARK    5  A    between atoms: C_22  and  C_30
REMARK                            x       y       z     vdW  Elec       q    Type
REMARK                         _______ _______ _______ _____ _____    ______ ____
ROOT
ATOM      1  N   UNL     1       2.422  -4.226  -0.051  0.00  0.00    -0.230 N 
ATOM      2  C   UNL     1       3.596  -4.889  -0.048  0.00  0.00    +0.261 C 
ATOM      3  O   UNL     1       4.642  -4.271  -0.038  0.00  0.00    -0.269 OA
ATOM      4  H   UNL     1       1.587  -4.720  -0.059  0.00  0.00    +0.173 HD
ENDROOT
BRANCH   2   5
ATOM      5  C   UNL     1       3.610  -6.368  -0.057  0.00  0.00    +0.049 A 
ATOM      6  C   UNL     1       2.438  -7.101   0.049  0.00  0.00    +0.045 A 
ATOM      7  C   UNL     1       2.499  -8.505   0.032  0.00  0.00    +0.107 A 
ATOM      8  N   UNL     1       3.640  -9.159  -0.072  0.00  0.00    -0.244 NA
ATOM      9  C   UNL     1       4.813  -8.532  -0.173  0.00  0.00    +0.073 A 
ATOM     10  C   UNL     1       4.864  -7.115  -0.171  0.00  0.00    +0.013 A 
ATOM     11  C   UNL     1       6.096  -6.463  -0.278  0.00  0.00    +0.011 A 
ATOM     12  C   UNL     1       7.240  -7.197  -0.383  0.00  0.00    +0.001 A 
ATOM     13  C   UNL     1       7.197  -8.589  -0.386  0.00  0.00    +0.002 A 
ATOM     14  C   UNL     1       6.015  -9.256  -0.283  0.00  0.00    +0.028 A 
BRANCH   7  15
ATOM     15  C   UNL     1       1.245  -9.274   0.140  0.00  0.00    +0.153 A 
ATOM     16  C   UNL     1       1.136 -10.631   0.137  0.00  0.00    +0.051 A 
ATOM     17  C   UNL     1      -0.234 -10.928   0.262  0.00  0.00    +0.042 A 
ATOM     18  C   UNL     1      -0.890  -9.752   0.325  0.00  0.00    +0.196 A 
ATOM     19  O   UNL     1       0.006  -8.755   0.251  0.00  0.00    -0.461 OA
ENDBRANCH   7  15
ENDBRANCH   2   5
BRANCH   1  22
ATOM     20  C   UNL     1       1.234  -2.163  -0.046  0.00  0.00    +0.260 C 
ATOM     21  O   UNL     1       0.187  -2.782  -0.056  0.00  0.00    -0.269 OA
ATOM     22  N   UNL     1       2.408  -2.825  -0.043  0.00  0.00    -0.230 N 
ATOM     23  H   UNL     1       3.243  -2.332  -0.035  0.00  0.00    +0.173 HD
BRANCH  20  31
ATOM     24  C   UNL     1      -0.769   5.671  -0.675  0.00  0.00    +0.029 C 
ATOM     25  C   UNL     1      -0.371   4.214  -0.922  0.00  0.00    +0.134 C 
ATOM     26  C   UNL     1      -1.454   3.302  -0.415  0.00  0.00    +0.230 C 
ATOM     27  O   UNL     1      -2.586   3.734  -0.358  0.00  0.00    -0.274 OA
ATOM     28  N   UNL     1      -1.240   2.048  -0.027  0.00  0.00    -0.284 N 
ATOM     29  C   UNL     1      -0.017   1.382  -0.033  0.00  0.00    +0.048 A 
ATOM     30  C   UNL     1       0.002  -0.004  -0.041  0.00  0.00    +0.037 A 
ATOM     31  C   UNL     1       1.219  -0.689  -0.037  0.00  0.00    +0.040 A 
ATOM     32  C   UNL     1       2.424   0.021  -0.026  0.00  0.00    +0.014 A 
ATOM     33  C   UNL     1       2.406   1.398  -0.021  0.00  0.00    +0.017 A 
ATOM     34  C   UNL     1       1.196   2.079  -0.026  0.00  0.00    +0.030 A 
ATOM     35  S   UNL     1       1.170   3.844  -0.030  0.00  0.00    -0.111 S 
ATOM     36  H   UNL     1      -2.009   1.550   0.292  0.00  0.00    +0.155 HD
ENDBRANCH  20  31
ENDBRANCH   1  22
TORSDOF 4
