REMARK  Name = ZINC14882650
REMARK  10 active torsions:
REMARK  status: ('A' for Active; 'I' for Inactive)
REMARK    1  A    between atoms: C_1  and  C_2
REMARK    2  A    between atoms: C_2  and  C_3
REMARK    3  A    between atoms: C_3  and  C_4
REMARK    4  A    between atoms: C_4  and  C_18
REMARK    5  A    between atoms: N_7  and  C_11
REMARK    6  A    between atoms: C_11  and  C_12
REMARK    7  A    between atoms: C_23  and  C_24
REMARK    8  A    between atoms: C_23  and  N_66
REMARK    9  A    between atoms: C_27  and  N_29
REMARK   10  A    between atoms: C_30  and  C_32
REMARK                            x       y       z     vdW  Elec       q    Type
REMARK                         _______ _______ _______ _____ _____    ______ ____
ROOT
ATOM      1  C   UNL     1      -5.629  -3.773  -3.756  0.00  0.00    +0.018 C 
ATOM      2  C   UNL     1      -6.865  -3.711  -2.854  0.00  0.00    -0.013 C 
ATOM      3  C   UNL     1      -6.427  -3.428  -1.415  0.00  0.00    -0.078 C 
ATOM      4  C   UNL     1      -4.482  -2.206  -2.187  0.00  0.00    -0.078 C 
ATOM      5  C   UNL     1      -4.862  -2.453  -3.649  0.00  0.00    -0.013 C 
ATOM      6  N   UNL     1      -5.716  -2.132  -1.377  0.00  0.00    +0.383 N 
ATOM      7  H   UNL     1      -6.328  -1.405  -1.766  0.00  0.00    -0.081 HD
ENDROOT
BRANCH   1   8
ATOM      8  C   UNL     1      -6.064  -3.996  -5.205  0.00  0.00    +0.115 C 
ATOM      9  C   UNL     1      -6.893  -5.260  -5.325  0.00  0.00    +0.247 C 
ATOM     10  O   UNL     1      -6.542  -6.393  -5.073  0.00  0.00    -0.273 OA
ATOM     11  N   UNL     1      -8.101  -4.862  -5.771  0.00  0.00    -0.222 N 
ATOM     12  C   UNL     1      -8.150  -3.537  -5.948  0.00  0.00    +0.309 C 
ATOM     13  O   UNL     1      -9.135  -2.944  -6.343  0.00  0.00    -0.252 OA
ATOM     14  N   UNL     1      -6.985  -2.932  -5.639  0.00  0.00    -0.285 N 
ATOM     15  H   UNL     1      -6.791  -1.983  -5.691  0.00  0.00    +0.151 HD
BRANCH   8  16
ATOM     16  C   UNL     1      -4.845  -4.062  -6.128  0.00  0.00    +0.035 C 
BRANCH  16  18
ATOM     17  C   UNL     1      -4.091  -4.226  -8.504  0.00  0.00    +0.004 C 
ATOM     18  C   UNL     1      -5.311  -4.160  -7.582  0.00  0.00    -0.001 C 
ENDBRANCH  16  18
ENDBRANCH   8  16
BRANCH  11  19
ATOM     19  C   UNL     1      -9.222  -5.769  -6.030  0.00  0.00    +0.149 C 
BRANCH  19  20
ATOM     20  C   UNL     1     -10.060  -5.920  -4.758  0.00  0.00    +0.136 C 
ATOM     21  C   UNL     1     -11.238  -6.878  -5.018  0.00  0.00    +0.035 C 
ATOM     22  C   UNL     1     -11.042  -8.010  -3.980  0.00  0.00    +0.031 C 
ATOM     23  C   UNL     1     -10.139  -7.327  -2.921  0.00  0.00    +0.160 C 
ATOM     24  O   UNL     1      -9.261  -6.494  -3.711  0.00  0.00    -0.375 OA
ENDBRANCH  19  20
ENDBRANCH  11  19
ENDBRANCH   1   8
BRANCH   6  25
ATOM     25  C   UNL     1      -5.383  -1.781   0.019  0.00  0.00    -0.036 C 
BRANCH  25  26
ATOM     26  C   UNL     1      -4.433  -0.611   0.021  0.00  0.00    -0.025 A 
ATOM     27  C   UNL     1      -4.713   0.714   0.029  0.00  0.00    +0.011 A 
ATOM     28  C   UNL     1      -3.670   1.622   0.034  0.00  0.00    +0.031 A 
ATOM     29  C   UNL     1      -2.391   1.152   0.020  0.00  0.00    +0.072 A 
ATOM     30  S   UNL     1      -2.648  -0.615   0.012  0.00  0.00    -0.080 S 
BRANCH  29  31
ATOM     31  N   UNL     1      -1.191   1.867   0.018  0.00  0.00    -0.280 N 
ATOM     32  C   UNL     1      -0.014   1.209   0.009  0.00  0.00    +0.214 C 
ATOM     33  O   UNL     1       0.002  -0.004   0.002  0.00  0.00    -0.276 OA
ATOM     34  C   UNL     1       1.280   1.980   0.001  0.00  0.00    +0.109 C 
ATOM     35  H   UNL     1      -1.204   2.837   0.023  0.00  0.00    +0.155 HD
ENDBRANCH  29  31
ENDBRANCH  25  26
ENDBRANCH   6  25
TORSDOF 8
