REMARK  Name = ZINC59417053
REMARK  8 active torsions:
REMARK  status: ('A' for Active; 'I' for Inactive)
REMARK    1  A    between atoms: C_1  and  N_2
REMARK    2  A    between atoms: N_2  and  C_3
REMARK    3  A    between atoms: N_2  and  C_9
REMARK    4  A    between atoms: C_12  and  C_15
REMARK    5  A    between atoms: N_16  and  N_17
REMARK    6  A    between atoms: C_18  and  C_20
REMARK    7  A    between atoms: C_20  and  S_21
REMARK    8  A    between atoms: S_21  and  C_22
REMARK                            x       y       z     vdW  Elec       q    Type
REMARK                         _______ _______ _______ _____ _____    ______ ____
ROOT
ATOM      1  C   UNL     1       0.182  -2.832  -4.875  0.00  0.00    +0.138 C 
ATOM      2  N   UNL     1       0.275  -2.186  -5.997  0.00  0.00    -0.188 NA
ENDROOT
BRANCH   1   6
ATOM      3  C   UNL     1       0.046  -0.703  -1.204  0.00  0.00    +0.034 A 
ATOM      4  C   UNL     1      -0.009  -2.093  -1.203  0.00  0.00    +0.024 A 
ATOM      5  C   UNL     1       0.034  -2.787  -2.392  0.00  0.00    +0.011 A 
ATOM      6  C   UNL     1       0.135  -2.093  -3.601  0.00  0.00    -0.005 A 
ATOM      7  C   UNL     1       0.190  -0.696  -3.598  0.00  0.00    +0.011 A 
ATOM      8  C   UNL     1       0.140  -0.009  -2.406  0.00  0.00    +0.024 A 
BRANCH   3  10
ATOM      9  C   UNL     1      -1.288   0.400   0.568  0.00  0.00    +0.135 C 
ATOM     10  N   UNL     1       0.002  -0.004   0.002  0.00  0.00    -0.303 N 
BRANCH  10  11
ATOM     11  C   UNL     1       1.188   0.311   0.671  0.00  0.00    +0.034 A 
ATOM     12  C   UNL     1       2.403  -0.165   0.195  0.00  0.00    +0.023 A 
ATOM     13  C   UNL     1       3.573   0.149   0.858  0.00  0.00    +0.002 A 
ATOM     14  C   UNL     1       3.536   0.935   1.995  0.00  0.00    +0.000 A 
ATOM     15  C   UNL     1       2.328   1.409   2.472  0.00  0.00    +0.002 A 
ATOM     16  C   UNL     1       1.154   1.105   1.810  0.00  0.00    +0.023 A 
ENDBRANCH  10  11
ENDBRANCH   3  10
ENDBRANCH   1   6
BRANCH   2  17
ATOM     17  N   UNL     1       0.321  -2.888  -7.208  0.00  0.00    -0.206 N 
ATOM     18  C   UNL     1       0.417  -2.217  -8.373  0.00  0.00    +0.242 C 
ATOM     19  O   UNL     1       0.465  -1.005  -8.373  0.00  0.00    -0.273 OA
ATOM     20  H   UNL     1       0.283  -3.857  -7.209  0.00  0.00    +0.177 HD
BRANCH  18  21
ATOM     21  C   UNL     1       0.466  -2.972  -9.676  0.00  0.00    +0.174 C 
BRANCH  21  22
ATOM     22  S   UNL     1       0.595  -1.797 -11.052  0.00  0.00    -0.078 S 
BRANCH  22  23
ATOM     23  C   UNL     1       0.641  -2.822 -12.485  0.00  0.00    +0.168 A 
ATOM     24  N   UNL     1       0.742  -2.370 -13.771  0.00  0.00    -0.333 N 
ATOM     25  H   UNL     1       0.800  -1.444 -14.052  0.00  0.00    +0.168 HD
ATOM     26  C   UNL     1       0.746  -3.482 -14.597  0.00  0.00    +0.067 A 
ATOM     27  C   UNL     1       0.825  -3.658 -15.970  0.00  0.00    +0.028 A 
ATOM     28  C   UNL     1       0.803  -4.931 -16.501  0.00  0.00    +0.002 A 
ATOM     29  C   UNL     1       0.702  -6.038 -15.671  0.00  0.00    +0.002 A 
ATOM     30  C   UNL     1       0.623  -5.881 -14.305  0.00  0.00    +0.030 A 
ATOM     31  C   UNL     1       0.644  -4.598 -13.751  0.00  0.00    +0.090 A 
ATOM     32  N   UNL     1       0.590  -4.131 -12.476  0.00  0.00    -0.222 NA
ENDBRANCH  22  23
ENDBRANCH  21  22
ENDBRANCH  18  21
ENDBRANCH   2  17
TORSDOF 7
