REMARK  Name = ZINC02154830
REMARK  8 active torsions:
REMARK  status: ('A' for Active; 'I' for Inactive)
REMARK    1  A    between atoms: C_1  and  N_56
REMARK    2  A    between atoms: C_8  and  O_30
REMARK    3  A    between atoms: C_10  and  C_12
REMARK    4  A    between atoms: N_19  and  C_22
REMARK    5  A    between atoms: C_20  and  O_21
REMARK    6  A    between atoms: C_27  and  O_28
REMARK    7  A    between atoms: O_28  and  C_29
REMARK    8  A    between atoms: O_30  and  C_31
REMARK                            x       y       z     vdW  Elec       q    Type
REMARK                         _______ _______ _______ _____ _____    ______ ____
ROOT
ATOM      1  C   UNL     1      -1.153  -0.764   0.023  0.00  0.00    +0.068 A 
ATOM      2  C   UNL     1      -1.105  -2.169   0.008  0.00  0.00    +0.258 A 
ATOM      3  O   UNL     1      -2.137  -2.818  -0.009  0.00  0.00    -0.267 OA
ATOM      4  N   UNL     1       0.089  -2.794   0.015  0.00  0.00    -0.302 N 
ATOM      5  H   UNL     1       0.125  -3.763   0.005  0.00  0.00    +0.171 HD
ATOM      6  C   UNL     1       1.231  -2.083   0.035  0.00  0.00    +0.168 A 
ATOM      7  S   UNL     1       2.734  -2.903   0.043  0.00  0.00    -0.012 S 
ATOM      8  N   UNL     1       1.210  -0.738   0.043  0.00  0.00    -0.257 N 
ATOM      9  C   UNL     1       0.015  -0.061   0.043  0.00  0.00    +0.207 A 
ENDROOT
BRANCH   1  19
ATOM     10  C   UNL     1      -2.551  -0.024  -2.402  0.00  0.00    -0.095 C 
ATOM     11  C   UNL     1      -4.600   0.113  -1.115  0.00  0.00    -0.073 C 
ATOM     12  C   UNL     1      -5.382  -0.633  -0.034  0.00  0.00    +0.017 C 
ATOM     13  C   UNL     1      -4.590  -0.662   1.248  0.00  0.00    -0.040 A 
ATOM     14  C   UNL     1      -5.252  -0.972   2.426  0.00  0.00    +0.053 A 
ATOM     15  C   UNL     1      -4.567  -1.014   3.628  0.00  0.00    +0.170 A 
ATOM     16  C   UNL     1      -3.203  -0.742   3.654  0.00  0.00    +0.208 A 
ATOM     17  C   UNL     1      -2.543  -0.430   2.474  0.00  0.00    +0.167 A 
ATOM     18  C   UNL     1      -3.238  -0.390   1.269  0.00  0.00    -0.008 A 
ATOM     19  C   UNL     1      -2.477  -0.044   0.015  0.00  0.00    +0.007 C 
ATOM     20  O   UNL     1      -2.760  -0.846   4.942  0.00  0.00    -0.449 OA
ATOM     21  C   UNL     1      -3.781  -1.583   5.640  0.00  0.00    +0.467 C 
ATOM     22  O   UNL     1      -4.981  -1.288   4.900  0.00  0.00    -0.452 OA
ATOM     23  N   UNL     1      -3.242  -0.466  -1.170  0.00  0.00    +0.386 N 
ATOM     24  H   UNL     1      -3.314  -1.490  -1.176  0.00  0.00    -0.081 HD
BRANCH  17  25
ATOM     25  O   UNL     1      -1.210  -0.164   2.494  0.00  0.00    -0.491 OA
ATOM     26  C   UNL     1      -0.819   1.169   2.828  0.00  0.00    +0.277 C 
ENDBRANCH  17  25
ENDBRANCH   1  19
BRANCH   8  27
ATOM     27  C   UNL     1       2.416  -0.022   0.057  0.00  0.00    +0.093 A 
ATOM     28  C   UNL     1       3.006   0.321   1.265  0.00  0.00    +0.030 A 
ATOM     29  C   UNL     1       4.195   1.026   1.276  0.00  0.00    +0.002 A 
ATOM     30  C   UNL     1       4.798   1.391   0.087  0.00  0.00    +0.004 A 
ATOM     31  C   UNL     1       4.215   1.053  -1.120  0.00  0.00    +0.048 A 
ATOM     32  C   UNL     1       3.026   0.342  -1.141  0.00  0.00    +0.144 A 
BRANCH  32  33
ATOM     33  O   UNL     1       2.454   0.004  -2.327  0.00  0.00    -0.493 OA
ATOM     34  C   UNL     1       3.136   0.410  -3.515  0.00  0.00    +0.277 C 
ENDBRANCH  32  33
ENDBRANCH   8  27
BRANCH   9  35
ATOM     35  O   UNL     1      -0.003   1.289   0.057  0.00  0.00    -0.493 OA
ATOM     36  H   UNL     1       0.875   1.693   0.071  0.00  0.00    +0.294 HD
ENDBRANCH   9  35
TORSDOF 5
