REMARK  Name = ZINC01029759
REMARK  7 active torsions:
REMARK  status: ('A' for Active; 'I' for Inactive)
REMARK    1  A    between atoms: C_1  and  C_2
REMARK    2  A    between atoms: C_9  and  C_11
REMARK    3  A    between atoms: C_14  and  N_18
REMARK    4  A    between atoms: C_16  and  O_17
REMARK    5  A    between atoms: C_19  and  C_20
REMARK    6  A    between atoms: C_23  and  O_27
REMARK    7  A    between atoms: C_25  and  O_26
REMARK                            x       y       z     vdW  Elec       q    Type
REMARK                         _______ _______ _______ _____ _____    ______ ____
ROOT
ATOM      1  C   UNL     1      -7.229   5.274   0.107  0.00  0.00    +0.078 A 
ATOM      2  C   UNL     1      -6.184   5.660   0.951  0.00  0.00    +0.019 A 
ATOM      3  C   UNL     1      -5.000   4.981   0.933  0.00  0.00    +0.029 A 
ATOM      4  C   UNL     1      -4.824   3.895   0.068  0.00  0.00    +0.067 A 
ATOM      5  C   UNL     1      -5.859   3.503  -0.784  0.00  0.00    +0.074 A 
ATOM      6  C   UNL     1      -7.061   4.186  -0.763  0.00  0.00    +0.131 A 
ENDROOT
BRANCH   1  15
ATOM      7  C   UNL     1     -12.990   9.758   1.228  0.00  0.00    +0.044 C 
ATOM      8  C   UNL     1     -12.123   8.652   0.683  0.00  0.00    -0.047 A 
ATOM      9  C   UNL     1     -12.621   7.806  -0.297  0.00  0.00    +0.005 A 
ATOM     10  C   UNL     1     -11.841   6.791  -0.804  0.00  0.00    +0.032 A 
ATOM     11  C   UNL     1     -10.539   6.614  -0.328  0.00  0.00    +0.110 A 
ATOM     12  C   UNL     1     -10.039   7.473   0.664  0.00  0.00    +0.156 A 
ATOM     13  C   UNL     1     -10.839   8.488   1.163  0.00  0.00    +0.052 A 
ATOM     14  O   UNL     1      -8.776   7.065   0.922  0.00  0.00    -0.435 OA
ATOM     15  C   UNL     1      -8.507   6.009   0.130  0.00  0.00    +0.232 A 
ATOM     16  N   UNL     1      -9.546   5.736  -0.621  0.00  0.00    -0.209 NA
ENDBRANCH   1  15
BRANCH   6  17
ATOM     17  O   UNL     1      -8.074   3.808  -1.585  0.00  0.00    -0.506 OA
ATOM     18  H   UNL     1      -8.064   4.245  -2.448  0.00  0.00    +0.292 HD
ENDBRANCH   6  17
BRANCH   4  19
ATOM     19  N   UNL     1      -3.636   3.220   0.054  0.00  0.00    -0.255 NA
ATOM     20  C   UNL     1      -2.510   3.881   0.046  0.00  0.00    +0.123 C 
BRANCH  20  21
ATOM     21  C   UNL     1      -1.234   3.156   0.031  0.00  0.00    +0.035 A 
ATOM     22  C   UNL     1      -0.024   3.861   0.023  0.00  0.00    +0.016 A 
ATOM     23  C   UNL     1       1.169   3.177   0.008  0.00  0.00    +0.046 A 
ATOM     24  C   UNL     1       1.180   1.785   0.000  0.00  0.00    +0.120 A 
ATOM     25  C   UNL     1      -0.013   1.076   0.008  0.00  0.00    +0.091 A 
ATOM     26  C   UNL     1      -1.220   1.751   0.017  0.00  0.00    +0.129 A 
BRANCH  26  27
ATOM     27  O   UNL     1      -2.388   1.058   0.019  0.00  0.00    -0.506 OA
ATOM     28  H   UNL     1      -2.722   0.853   0.902  0.00  0.00    +0.292 HD
ENDBRANCH  26  27
BRANCH  24  29
ATOM     29  O   UNL     1       2.362   1.119  -0.015  0.00  0.00    -0.507 OA
ATOM     30  H   UNL     1       2.696   0.931  -0.903  0.00  0.00    +0.292 HD
ENDBRANCH  24  29
ENDBRANCH  20  21
ENDBRANCH   4  19
TORSDOF 6
