REMARK  Name = ZINC31811678
REMARK  4 active torsions:
REMARK  status: ('A' for Active; 'I' for Inactive)
REMARK    1  A    between atoms: C_4  and  C_7
REMARK    2  A    between atoms: N_9  and  N_10
REMARK    3  A    between atoms: C_11  and  C_13
REMARK    4  A    between atoms: C_13  and  C_18
REMARK                            x       y       z     vdW  Elec       q    Type
REMARK                         _______ _______ _______ _____ _____    ______ ____
ROOT
ATOM      1  N   UNL     1      -1.244  -0.658   0.162  0.00  0.00    -0.233 N 
ATOM      2  C   UNL     1      -0.063  -0.017   0.054  0.00  0.00    +0.240 C 
ATOM      3  O   UNL     1       0.968  -0.651  -0.011  0.00  0.00    -0.273 OA
ATOM      4  H   UNL     1      -2.184  -0.087   0.137  0.00  0.00    +0.173 HD
ENDROOT
BRANCH   2   5
ATOM      5  C   UNL     1      -0.025   1.489   0.014  0.00  0.00    +0.073 C 
ATOM      6  C   UNL     1      -0.894   2.009  -1.145  0.00  0.00    +0.021 C 
ATOM      7  C   UNL     1       0.046   2.791  -2.085  0.00  0.00    +0.001 C 
ATOM      8  C   UNL     1       1.449   2.203  -1.794  0.00  0.00    +0.001 C 
ATOM      9  C   UNL     1       1.413   1.974  -0.263  0.00  0.00    +0.021 C 
BRANCH   5  10
ATOM     10  C   UNL     1      -0.517   2.053   1.322  0.00  0.00    -0.031 A 
ATOM     11  C   UNL     1      -0.680   3.418   1.469  0.00  0.00    +0.005 A 
ATOM     12  C   UNL     1      -1.132   3.935   2.669  0.00  0.00    +0.002 A 
ATOM     13  C   UNL     1      -1.421   3.088   3.722  0.00  0.00    +0.020 A 
ATOM     14  C   UNL     1      -1.258   1.722   3.576  0.00  0.00    +0.041 A 
ATOM     15  C   UNL     1      -0.810   1.204   2.373  0.00  0.00    +0.024 A 
ATOM     16 CL   UNL     1      -1.621   0.658   4.898  0.00  0.00    -0.084 Cl
ENDBRANCH   5  10
ENDBRANCH   2   5
BRANCH   1  19
ATOM     17  C   UNL     1      -2.454  -2.692   0.413  0.00  0.00    +0.260 C 
ATOM     18  O   UNL     1      -3.493  -2.062   0.386  0.00  0.00    -0.269 OA
ATOM     19  N   UNL     1      -1.274  -2.051   0.305  0.00  0.00    -0.230 N 
ATOM     20  H   UNL     1      -0.334  -2.622   0.330  0.00  0.00    +0.173 HD
BRANCH  17  24
ATOM     21  C   UNL     1      -2.544  -6.917   0.849  0.00  0.00    +0.000 A 
ATOM     22  C   UNL     1      -3.728  -6.202   0.819  0.00  0.00    +0.001 A 
ATOM     23  C   UNL     1      -3.706  -4.830   0.677  0.00  0.00    +0.013 A 
ATOM     24  C   UNL     1      -2.486  -4.163   0.565  0.00  0.00    +0.038 A 
ATOM     25  C   UNL     1      -1.295  -4.890   0.591  0.00  0.00    +0.013 A 
ATOM     26  C   UNL     1      -1.331  -6.261   0.738  0.00  0.00    +0.001 A 
ENDBRANCH  17  24
ENDBRANCH   1  19
TORSDOF 4
