REMARK  Name = ZINC34491103
REMARK  4 active torsions:
REMARK  status: ('A' for Active; 'I' for Inactive)
REMARK    1  A    between atoms: C_1  and  C_2
REMARK    2  A    between atoms: C_5  and  C_7
REMARK    3  A    between atoms: C_7  and  C_9
REMARK    4  A    between atoms: C_7  and  O_15
REMARK                            x       y       z     vdW  Elec       q    Type
REMARK                         _______ _______ _______ _____ _____    ______ ____
ROOT
ATOM      1  C   UNL     1       1.043  -4.062  -0.027  0.00  0.00    +0.184 C 
ENDROOT
BRANCH   1   6
ATOM      2  C   UNL     1      -0.018   1.503   0.010  0.00  0.00    +0.051 C 
ATOM      3  C   UNL     1       0.002  -0.004   0.002  0.00  0.00    -0.013 A 
ATOM      4  C   UNL     1      -1.039  -0.872   0.002  0.00  0.00    +0.011 A 
ATOM      5  C   UNL     1      -0.780  -2.230  -0.007  0.00  0.00    +0.014 A 
ATOM      6  C   UNL     1       0.507  -2.653  -0.016  0.00  0.00    +0.023 A 
ATOM      7  S   UNL     1       1.404  -1.109  -0.018  0.00  0.00    -0.095 S 
ENDBRANCH   1   6
BRANCH   1   8
ATOM      8  C   UNL     1       1.344  -4.496   1.385  0.00  0.00    +0.023 A 
ATOM      9  C   UNL     1       0.561  -5.280   2.160  0.00  0.00    +0.111 A 
ATOM     10  N   UNL     1       1.181  -5.434   3.349  0.00  0.00    -0.284 N 
ATOM     11  H   UNL     1       0.852  -5.949   4.102  0.00  0.00    +0.188 HD
ATOM     12  N   UNL     1       2.386  -4.720   3.302  0.00  0.00    -0.182 NA
ATOM     13  C   UNL     1       2.485  -4.163   2.122  0.00  0.00    +0.140 A 
ENDBRANCH   1   8
BRANCH   1  14
ATOM     14  O   UNL     1       2.240  -4.110  -0.805  0.00  0.00    -0.382 OA
ATOM     15  H   UNL     1       2.947  -3.538  -0.476  0.00  0.00    +0.211 HD
ENDBRANCH   1  14
TORSDOF 3
