REMARK  Name = ZINC64727756
REMARK  8 active torsions:
REMARK  status: ('A' for Active; 'I' for Inactive)
REMARK    1  A    between atoms: C_1  and  O_2
REMARK    2  A    between atoms: O_2  and  C_3
REMARK    3  A    between atoms: C_3  and  C_5
REMARK    4  A    between atoms: C_5  and  C_7
REMARK    5  A    between atoms: C_5  and  N_17
REMARK    6  A    between atoms: C_7  and  C_8
REMARK    7  A    between atoms: C_18  and  C_20
REMARK    8  A    between atoms: C_20  and  C_21
REMARK                            x       y       z     vdW  Elec       q    Type
REMARK                         _______ _______ _______ _____ _____    ______ ____
ROOT
ATOM      1  N   UNL     1      -2.643  -2.570   0.013  0.00  0.00    -0.302 N 
ATOM      2  C   UNL     1      -3.306  -2.679   1.182  0.00  0.00    +0.215 C 
ATOM      3  O   UNL     1      -2.744  -2.417   2.224  0.00  0.00    -0.276 OA
ATOM      4  H   UNL     1      -3.092  -2.779  -0.820  0.00  0.00    +0.150 HD
ENDROOT
BRANCH   1   5
ATOM      5  C   UNL     1      -1.244  -2.135   0.003  0.00  0.00    +0.186 C 
BRANCH   5   6
ATOM      6  C   UNL     1      -1.185  -0.630   0.010  0.00  0.00    +0.328 C 
ATOM      7  O   UNL     1      -2.208   0.015   0.023  0.00  0.00    -0.249 OA
BRANCH   6   9
ATOM      8  C   UNL     1      -0.017   1.425   0.010  0.00  0.00    +0.280 C 
ATOM      9  O   UNL     1       0.002  -0.004   0.002  0.00  0.00    -0.467 OA
ENDBRANCH   6   9
ENDBRANCH   5   6
BRANCH   5  10
ATOM     10  C   UNL     1      -0.555  -2.666  -1.256  0.00  0.00    +0.067 C 
BRANCH  10  11
ATOM     11  C   UNL     1      -0.505  -4.172  -1.204  0.00  0.00    -0.039 C 
ATOM     12  C   UNL     1      -1.383  -5.034  -1.765  0.00  0.00    -0.001 A 
ATOM     13  C   UNL     1      -2.601  -4.837  -2.559  0.00  0.00    +0.010 A 
ATOM     14  C   UNL     1      -3.286  -5.921  -2.990  0.00  0.00    +0.001 A 
ATOM     15  C   UNL     1      -2.862  -7.225  -2.698  0.00  0.00    +0.002 A 
ATOM     16  C   UNL     1      -1.753  -7.486  -1.974  0.00  0.00    +0.026 A 
ATOM     17  C   UNL     1      -0.956  -6.421  -1.470  0.00  0.00    +0.043 A 
ATOM     18  N   UNL     1       0.143  -6.416  -0.756  0.00  0.00    -0.380 N 
ATOM     19  C   UNL     1       0.542  -5.023  -0.521  0.00  0.00    +0.144 C 
ATOM     20  H   UNL     1       0.616  -7.201  -0.439  0.00  0.00    +0.160 HD
ENDBRANCH  10  11
ENDBRANCH   5  10
ENDBRANCH   1   5
BRANCH   2  21
ATOM     21  C   UNL     1      -4.745  -3.126   1.193  0.00  0.00    +0.119 C 
BRANCH  21  22
ATOM     22  C   UNL     1      -5.255  -3.165   2.635  0.00  0.00    +0.146 C 
ATOM     23  C   UNL     1      -6.724  -3.502   2.643  0.00  0.00    +0.231 C 
ATOM     24  O   UNL     1      -7.523  -2.595   2.746  0.00  0.00    -0.274 OA
ATOM     25  N   UNL     1      -7.186  -4.744   2.544  0.00  0.00    -0.284 N 
ATOM     26  C   UNL     1      -6.431  -5.913   2.535  0.00  0.00    +0.047 A 
ATOM     27  C   UNL     1      -7.012  -7.093   2.083  0.00  0.00    +0.024 A 
ATOM     28  C   UNL     1      -6.281  -8.264   2.055  0.00  0.00    +0.002 A 
ATOM     29  C   UNL     1      -4.963  -8.278   2.476  0.00  0.00    +0.001 A 
ATOM     30  C   UNL     1      -4.374  -7.113   2.931  0.00  0.00    +0.016 A 
ATOM     31  C   UNL     1      -5.104  -5.937   2.965  0.00  0.00    +0.030 A 
ATOM     32  S   UNL     1      -4.360  -4.445   3.567  0.00  0.00    -0.110 S 
ATOM     33  H   UNL     1      -8.148  -4.846   2.469  0.00  0.00    +0.155 HD
ENDBRANCH  21  22
ENDBRANCH   2  21
TORSDOF 7
