REMARK  Name = ZINC21630667
REMARK  12 active torsions:
REMARK  status: ('A' for Active; 'I' for Inactive)
REMARK    1  A    between atoms: C_1  and  C_2
REMARK    2  A    between atoms: C_5  and  C_8
REMARK    3  A    between atoms: C_10  and  C_13
REMARK    4  A    between atoms: C_13  and  C_14
REMARK    5  A    between atoms: C_14  and  C_15
REMARK    6  A    between atoms: N_17  and  C_18
REMARK    7  A    between atoms: C_18  and  C_20
REMARK    8  A    between atoms: C_18  and  C_28
REMARK    9  A    between atoms: C_23  and  O_26
REMARK   10  A    between atoms: O_26  and  C_27
REMARK   11  A    between atoms: C_28  and  C_29
REMARK   12  A    between atoms: C_28  and  C_30
REMARK                            x       y       z     vdW  Elec       q    Type
REMARK                         _______ _______ _______ _____ _____    ______ ____
ROOT
ATOM      1  C   UNL     1      -0.014   1.209   0.009  0.00  0.00    +0.214 C 
ATOM      2  O   UNL     1       0.002  -0.004   0.002  0.00  0.00    -0.276 OA
ATOM      3  N   UNL     1      -1.191   1.867   0.018  0.00  0.00    -0.308 N 
ATOM      4  H   UNL     1      -1.206   2.966   0.024  0.00  0.00    +0.149 HD
ENDROOT
BRANCH   1   5
ATOM      5  C   UNL     1       1.280   1.980   0.001  0.00  0.00    +0.105 C 
BRANCH   5   6
ATOM      6  C   UNL     1       2.457   1.002  -0.016  0.00  0.00    +0.108 C 
BRANCH   6   9
ATOM      7  C   UNL     1       5.511   2.814   0.537  0.00  0.00    +0.202 A 
ATOM      8  N   UNL     1       4.430   2.165   1.025  0.00  0.00    -0.191 NA
ATOM      9  C   UNL     1       3.751   1.773  -0.024  0.00  0.00    +0.228 A 
ATOM     10  O   UNL     1       4.426   2.180  -1.104  0.00  0.00    -0.338 OA
ATOM     11  N   UNL     1       5.426   2.778  -0.767  0.00  0.00    -0.056 NA
BRANCH   7  16
ATOM     12  C   UNL     1       9.700   5.282   3.624  0.00  0.00    +0.044 C 
ATOM     13  C   UNL     1       8.604   4.636   2.816  0.00  0.00    -0.050 A 
ATOM     14  C   UNL     1       8.651   4.677   1.435  0.00  0.00    +0.004 A 
ATOM     15  C   UNL     1       7.650   4.087   0.690  0.00  0.00    +0.012 A 
ATOM     16  C   UNL     1       6.591   3.450   1.332  0.00  0.00    +0.022 A 
ATOM     17  C   UNL     1       6.546   3.415   2.724  0.00  0.00    +0.012 A 
ATOM     18  C   UNL     1       7.555   4.004   3.459  0.00  0.00    +0.004 A 
ENDBRANCH   7  16
ENDBRANCH   6   9
ENDBRANCH   5   6
ENDBRANCH   1   5
BRANCH   3  19
ATOM     19  C   UNL     1      -2.449   1.117   0.020  0.00  0.00    +0.106 C 
BRANCH  19  20
ATOM     20  C   UNL     1      -3.543   1.969  -0.571  0.00  0.00    -0.027 A 
ATOM     21  C   UNL     1      -3.609   3.316  -0.265  0.00  0.00    +0.009 A 
ATOM     22  C   UNL     1      -4.607   4.101  -0.810  0.00  0.00    +0.046 A 
ATOM     23  C   UNL     1      -5.550   3.534  -1.655  0.00  0.00    +0.120 A 
ATOM     24  C   UNL     1      -5.484   2.182  -1.956  0.00  0.00    +0.046 A 
ATOM     25  C   UNL     1      -4.481   1.402  -1.413  0.00  0.00    +0.009 A 
BRANCH  23  26
ATOM     26  O   UNL     1      -6.536   4.303  -2.187  0.00  0.00    -0.495 OA
ATOM     27  C   UNL     1      -6.542   5.688  -1.833  0.00  0.00    +0.277 C 
ENDBRANCH  23  26
ENDBRANCH  19  20
BRANCH  19  28
ATOM     28  C   UNL     1      -2.816   0.740   1.456  0.00  0.00    +0.008 C 
ATOM     29  C   UNL     1      -4.131  -0.043   1.458  0.00  0.00    +0.009 C 
ATOM     30  C   UNL     1      -1.706  -0.125   2.056  0.00  0.00    +0.009 C 
ENDBRANCH  19  28
ENDBRANCH   3  19
TORSDOF 8
