REMARK  Name = ZINC04092863
REMARK  13 active torsions:
REMARK  status: ('A' for Active; 'I' for Inactive)
REMARK    1  A    between atoms: C_1  and  C_2
REMARK    2  A    between atoms: C_2  and  C_3
REMARK    3  A    between atoms: C_3  and  C_4
REMARK    4  A    between atoms: C_3  and  C_5
REMARK    5  A    between atoms: C_3  and  N_6
REMARK    6  A    between atoms: C_7  and  C_9
REMARK    7  A    between atoms: C_9  and  C_11
REMARK    8  A    between atoms: C_9  and  N_18
REMARK    9  A    between atoms: N_18  and  C_19
REMARK   10  A    between atoms: C_19  and  C_20
REMARK   11  A    between atoms: C_25  and  C_27
REMARK   12  A    between atoms: C_27  and  C_28
REMARK   13  A    between atoms: C_28  and  C_29
REMARK                            x       y       z     vdW  Elec       q    Type
REMARK                         _______ _______ _______ _____ _____    ______ ____
ROOT
ATOM      1  N   UNL     1      -4.133  -4.821  -0.056  0.00  0.00    -0.279 N 
ATOM      2  C   UNL     1      -4.783  -5.177  -1.183  0.00  0.00    +0.217 C 
ATOM      3  O   UNL     1      -4.156  -5.423  -2.192  0.00  0.00    -0.276 OA
ENDROOT
BRANCH   1   4
ATOM      4  C   UNL     1      -2.671  -4.731  -0.051  0.00  0.00    +0.193 C 
BRANCH   4   5
ATOM      5  C   UNL     1      -2.083  -6.117   0.016  0.00  0.00    -0.018 A 
ATOM      6  C   UNL     1      -2.693  -7.090   0.786  0.00  0.00    +0.009 A 
ATOM      7  C   UNL     1      -2.155  -8.361   0.848  0.00  0.00    +0.038 A 
ATOM      8  C   UNL     1      -1.004  -8.661   0.138  0.00  0.00    +0.123 A 
ATOM      9  C   UNL     1      -0.394  -7.686  -0.633  0.00  0.00    +0.038 A 
ATOM     10  C   UNL     1      -0.937  -6.416  -0.697  0.00  0.00    +0.009 A 
ATOM     11  F   UNL     1      -0.477  -9.903   0.198  0.00  0.00    -0.205 F 
ENDBRANCH   4   5
BRANCH   4  13
ATOM     12  N   UNL     1      -0.919  -3.918   1.494  0.00  0.00    -0.308 N 
ATOM     13  C   UNL     1      -2.221  -3.936   1.148  0.00  0.00    +0.239 C 
ATOM     14  O   UNL     1      -3.031  -3.313   1.801  0.00  0.00    -0.273 OA
ATOM     15  H   UNL     1      -0.271  -4.416   0.971  0.00  0.00    +0.149 HD
BRANCH  12  16
ATOM     16  C   UNL     1      -0.481  -3.145   2.659  0.00  0.00    +0.029 C 
ATOM     17  C   UNL     1      -1.189  -3.666   3.911  0.00  0.00    +0.031 C 
ATOM     18  C   UNL     1      -0.830  -1.669   2.452  0.00  0.00    +0.031 C 
BRANCH  16  20
ATOM     19  C   UNL     1       1.489  -2.485   4.047  0.00  0.00    +0.006 C 
ATOM     20  C   UNL     1       1.032  -3.292   2.830  0.00  0.00    +0.022 C 
ENDBRANCH  16  20
ENDBRANCH  12  16
ENDBRANCH   4  13
ENDBRANCH   1   4
BRANCH   1  21
ATOM     21  C   UNL     1      -4.890  -4.524   1.162  0.00  0.00    +0.183 C 
BRANCH  21  22
ATOM     22  C   UNL     1      -5.420  -3.115   1.094  0.00  0.00    +0.122 A 
ATOM     23  C   UNL     1      -6.649  -2.756   0.682  0.00  0.00    +0.046 A 
ATOM     24  C   UNL     1      -6.719  -1.347   0.779  0.00  0.00    +0.041 A 
ATOM     25  C   UNL     1      -5.527  -0.929   1.244  0.00  0.00    +0.195 A 
ATOM     26  O   UNL     1      -4.747  -2.005   1.438  0.00  0.00    -0.466 OA
ENDBRANCH  21  22
ENDBRANCH   1  21
BRANCH   2  27
ATOM     27  C   UNL     1      -6.287  -5.269  -1.188  0.00  0.00    +0.105 C 
BRANCH  27  28
ATOM     28  C   UNL     1      -6.767  -5.689  -2.579  0.00  0.00    +0.105 C 
BRANCH  28  29
ATOM     29  C   UNL     1      -8.271  -5.782  -2.584  0.00  0.00    +0.219 C 
ATOM     30  O   UNL     1      -8.897  -5.536  -1.576  0.00  0.00    -0.275 OA
ATOM     31  N   UNL     1      -8.920  -6.138  -3.711  0.00  0.00    -0.270 N 
ATOM     32  C   UNL     1     -10.313  -6.128  -3.745  0.00  0.00    +0.125 A 
ATOM     33  C   UNL     1     -10.979  -6.606  -4.869  0.00  0.00    +0.044 A 
ATOM     34  C   UNL     1     -12.362  -6.590  -4.889  0.00  0.00    +0.005 A 
ATOM     35  C   UNL     1     -13.035  -6.094  -3.781  0.00  0.00    +0.020 A 
ATOM     36  C   UNL     1     -12.310  -5.636  -2.699  0.00  0.00    +0.113 A 
ATOM     37  N   UNL     1     -10.992  -5.668  -2.705  0.00  0.00    -0.240 NA
ATOM     38  H   UNL     1      -8.417  -6.401  -4.498  0.00  0.00    +0.156 HD
ENDBRANCH  28  29
ENDBRANCH  27  28
ENDBRANCH   2  27
TORSDOF 10
