REMARK  Name = ZINC21263062
REMARK  14 active torsions:
REMARK  status: ('A' for Active; 'I' for Inactive)
REMARK    1  A    between atoms: C_1  and  C_2
REMARK    2  A    between atoms: C_2  and  C_3
REMARK    3  A    between atoms: C_2  and  C_4
REMARK    4  A    between atoms: C_7  and  C_10
REMARK    5  A    between atoms: C_10  and  N_11
REMARK    6  A    between atoms: N_11  and  C_12
REMARK    7  A    between atoms: N_11  and  C_19
REMARK    8  A    between atoms: C_12  and  C_13
REMARK    9  A    between atoms: C_19  and  N_21
REMARK   10  A    between atoms: N_21  and  C_22
REMARK   11  A    between atoms: C_24  and  C_30
REMARK   12  A    between atoms: C_24  and  C_31
REMARK   13  A    between atoms: C_26  and  C_28
REMARK   14  A    between atoms: C_26  and  C_29
REMARK                            x       y       z     vdW  Elec       q    Type
REMARK                         _______ _______ _______ _____ _____    ______ ____
ROOT
ATOM      1  N   UNL     1       2.903   0.816  -1.402  0.00  0.00    -0.306 N 
ENDROOT
BRANCH   1   2
ATOM      2  C   UNL     1       2.524  -0.309  -2.039  0.00  0.00    +0.133 C 
ATOM      3  S   UNL     1       1.558  -1.468  -1.229  0.00  0.00    -0.019 S 
BRANCH   2   4
ATOM      4  N   UNL     1       2.904  -0.522  -3.315  0.00  0.00    -0.324 N 
ATOM      5  H   UNL     1       3.524   0.223  -3.836  0.00  0.00    +0.148 HD
BRANCH   4   6
ATOM      6  C   UNL     1       2.490  -1.748  -4.010  0.00  0.00    +0.069 C 
ATOM      7  C   UNL     1       3.484  -2.865  -3.694  0.00  0.00    +0.009 C 
ATOM      8  C   UNL     1       3.090  -4.148  -4.421  0.00  0.00    -0.072 C 
ATOM      9  N   UNL     1       2.822  -3.940  -5.829  0.00  0.00    +0.386 N 
ATOM     10  C   UNL     1       2.096  -2.766  -6.268  0.00  0.00    -0.072 C 
ATOM     11  C   UNL     1       2.501  -1.500  -5.518  0.00  0.00    +0.009 C 
ATOM     12  C   UNL     1       0.582  -2.973  -6.145  0.00  0.00    -0.010 C 
ATOM     13  C   UNL     1       2.406  -2.539  -7.764  0.00  0.00    -0.010 C 
ATOM     14  C   UNL     1       1.887  -4.787  -3.717  0.00  0.00    -0.010 C 
ATOM     15  C   UNL     1       4.271  -5.136  -4.296  0.00  0.00    -0.010 C 
ATOM     16  H   UNL     1       3.773  -3.882  -6.379  0.00  0.00    -0.084 HD
ATOM     17  H   UNL     1       2.224  -4.778  -6.216  0.00  0.00    -0.084 HD
ENDBRANCH   4   6
ENDBRANCH   2   4
ENDBRANCH   1   2
BRANCH   1  18
ATOM     18  C   UNL     1       2.490   1.048  -0.016  0.00  0.00    +0.142 C 
BRANCH  18  22
ATOM     19  C   UNL     1      -1.238   3.133   0.029  0.00  0.00    -0.045 A 
ATOM     20  C   UNL     1      -1.219   1.751   0.017  0.00  0.00    +0.004 A 
ATOM     21  C   UNL     1      -0.013   1.076   0.008  0.00  0.00    +0.005 A 
ATOM     22  C   UNL     1       1.175   1.783   0.000  0.00  0.00    -0.030 A 
ATOM     23  C   UNL     1       1.156   3.165   0.008  0.00  0.00    +0.005 A 
ATOM     24  C   UNL     1      -0.050   3.840   0.022  0.00  0.00    +0.004 A 
BRANCH  19  26
ATOM     25  C   UNL     1      -3.361   3.495  -1.198  0.00  0.00    +0.012 C 
ATOM     26  C   UNL     1      -2.553   3.869   0.045  0.00  0.00    +0.013 C 
ATOM     27  C   UNL     1      -3.338   3.481   1.300  0.00  0.00    +0.012 C 
ENDBRANCH  19  26
ENDBRANCH  18  22
ENDBRANCH   1  18
BRANCH   1  28
ATOM     28  C   UNL     1       3.729   1.808  -2.095  0.00  0.00    +0.138 C 
BRANCH  28  29
ATOM     29  C   UNL     1       5.208   1.487  -1.870  0.00  0.00    +0.136 C 
ATOM     30  C   UNL     1       6.086   2.529  -2.590  0.00  0.00    +0.035 C 
ATOM     31  C   UNL     1       6.944   3.148  -1.459  0.00  0.00    +0.031 C 
ATOM     32  C   UNL     1       6.869   2.057  -0.361  0.00  0.00    +0.160 C 
ATOM     33  O   UNL     1       5.516   1.559  -0.468  0.00  0.00    -0.375 OA
ENDBRANCH  28  29
ENDBRANCH   1  28
TORSDOF 8
