REMARK  Name = ZINC63505603
REMARK  7 active torsions:
REMARK  status: ('A' for Active; 'I' for Inactive)
REMARK    1  A    between atoms: C_1  and  C_2
REMARK    2  A    between atoms: C_2  and  O_3
REMARK    3  A    between atoms: O_3  and  C_4
REMARK    4  A    between atoms: C_4  and  C_6
REMARK    5  A    between atoms: C_15  and  N_17
REMARK    6  A    between atoms: N_20  and  N_21
REMARK    7  A    between atoms: C_22  and  C_24
REMARK                            x       y       z     vdW  Elec       q    Type
REMARK                         _______ _______ _______ _____ _____    ______ ____
ROOT
ATOM      1  N   UNL     1      -4.297  -0.960   1.367  0.00  0.00    -0.282 N 
ATOM      2  C   UNL     1      -4.594   0.347   1.507  0.00  0.00    +0.317 C 
ATOM      3  O   UNL     1      -4.676   1.060   0.526  0.00  0.00    -0.251 OA
ATOM      4  N   UNL     1      -4.801   0.864   2.735  0.00  0.00    -0.218 N 
ATOM      5  H   UNL     1      -4.232  -1.529   2.151  0.00  0.00    +0.152 HD
ATOM      6  H   UNL     1      -5.015   1.805   2.835  0.00  0.00    +0.174 HD
ENDROOT
BRANCH   1  15
ATOM      7  C   UNL     1      -2.847  -2.417   0.016  0.00  0.00    +0.067 C 
ATOM      8  C   UNL     1      -3.014  -3.716   0.016  0.00  0.00    -0.044 C 
ATOM      9  C   UNL     1      -1.895  -4.750  -0.108  0.00  0.00    +0.032 C 
ATOM     10  C   UNL     1      -2.518  -6.107   0.233  0.00  0.00    +0.004 C 
ATOM     11  C   UNL     1      -3.647  -6.470  -0.719  0.00  0.00    +0.002 C 
ATOM     12  C   UNL     1      -4.546  -5.284  -1.059  0.00  0.00    +0.018 C 
ATOM     13  C   UNL     1      -4.457  -4.241   0.057  0.00  0.00    +0.075 C 
ATOM     14  S   UNL     1      -5.394  -2.732  -0.415  0.00  0.00    -0.126 S 
ATOM     15  C   UNL     1      -4.072  -1.522   0.033  0.00  0.00    +0.170 C 
BRANCH   7  16
ATOM     16  C   UNL     1      -1.497  -1.837   0.006  0.00  0.00    +0.338 C 
ATOM     17  O   UNL     1      -0.523  -2.564  -0.007  0.00  0.00    -0.245 OA
BRANCH  16  18
ATOM     18  O   UNL     1      -1.339  -0.499   0.012  0.00  0.00    -0.462 OA
BRANCH  18  20
ATOM     19  C   UNL     1      -0.019   1.526   0.010  0.00  0.00    +0.048 C 
ATOM     20  C   UNL     1       0.002  -0.004   0.002  0.00  0.00    +0.229 C 
ENDBRANCH  18  20
ENDBRANCH  16  18
ENDBRANCH   7  16
ENDBRANCH   1  15
BRANCH   4  21
ATOM     21  N   UNL     1      -4.708   0.042   3.865  0.00  0.00    -0.231 N 
ATOM     22  C   UNL     1      -4.915   0.559   5.093  0.00  0.00    +0.258 C 
ATOM     23  O   UNL     1      -5.182   1.735   5.218  0.00  0.00    -0.272 OA
ATOM     24  H   UNL     1      -4.494  -0.899   3.765  0.00  0.00    +0.173 HD
BRANCH  22  25
ATOM     25  C   UNL     1      -4.814  -0.325   6.309  0.00  0.00    +0.217 C 
ATOM     26  C   UNL     1      -6.097  -1.102   6.497  0.00  0.00    +0.026 C 
ATOM     27  C   UNL     1      -6.577  -0.739   7.676  0.00  0.00    +0.036 A 
ATOM     28  C   UNL     1      -5.688   0.257   8.323  0.00  0.00    +0.074 A 
ATOM     29  N   UNL     1      -4.660   0.491   7.516  0.00  0.00    -0.266 NA
ATOM     30  C   UNL     1      -6.169   0.693   9.627  0.00  0.00    +0.035 A 
ATOM     31  C   UNL     1      -7.311   0.190  10.116  0.00  0.00    +0.048 A 
ATOM     32  S   UNL     1      -7.881  -0.942   8.865  0.00  0.00    -0.095 S 
ENDBRANCH  22  25
ENDBRANCH   4  21
TORSDOF 6
