REMARK  Name = ZINC46728346
REMARK  9 active torsions:
REMARK  status: ('A' for Active; 'I' for Inactive)
REMARK    1  A    between atoms: C_1  and  C_2
REMARK    2  A    between atoms: C_3  and  C_16
REMARK    3  A    between atoms: C_4  and  C_15
REMARK    4  A    between atoms: N_5  and  C_7
REMARK    5  A    between atoms: C_7  and  C_8
REMARK    6  A    between atoms: C_16  and  N_17
REMARK    7  A    between atoms: N_17  and  C_18
REMARK    8  A    between atoms: N_21  and  C_22
REMARK    9  A    between atoms: C_22  and  C_23
REMARK                            x       y       z     vdW  Elec       q    Type
REMARK                         _______ _______ _______ _____ _____    ______ ____
ROOT
ATOM      1  N   UNL     1       1.370  -0.170  -3.036  0.00  0.00    -0.284 N 
ATOM      2  C   UNL     1       2.073  -1.287  -3.671  0.00  0.00    +0.134 C 
ATOM      3  C   UNL     1       1.990   1.018  -2.885  0.00  0.00    +0.302 C 
ATOM      4  O   UNL     1       1.407   1.945  -2.357  0.00  0.00    -0.253 OA
ATOM      5  N   UNL     1       3.256   1.177  -3.318  0.00  0.00    -0.296 N 
ATOM      6  H   UNL     1       3.722   0.437  -3.738  0.00  0.00    +0.150 HD
ENDROOT
BRANCH   1   7
ATOM      7  C   UNL     1      -0.006  -0.343  -2.566  0.00  0.00    +0.147 C 
BRANCH   7  10
ATOM      8  C   UNL     1      -0.018   1.503   0.010  0.00  0.00    +0.068 C 
ATOM      9  C   UNL     1       0.002  -0.004   0.002  0.00  0.00    +0.065 A 
ATOM     10  C   UNL     1       0.008  -0.818  -1.135  0.00  0.00    +0.013 A 
ATOM     11  C   UNL     1       0.028  -2.107  -0.725  0.00  0.00    +0.041 A 
ATOM     12  N   UNL     1       0.034  -2.109   0.625  0.00  0.00    -0.264 N 
ATOM     13  N   UNL     1       0.023  -0.777   1.058  0.00  0.00    -0.176 NA
ATOM     14  C   UNL     1       0.040  -3.323  -1.615  0.00  0.00    +0.065 C 
BRANCH  12  15
ATOM     15  C   UNL     1       0.055  -3.295   1.485  0.00  0.00    +0.180 C 
BRANCH  15  16
ATOM     16  C   UNL     1       1.482  -3.682   1.773  0.00  0.00    -0.008 A 
ATOM     17  C   UNL     1       2.111  -4.635   0.994  0.00  0.00    +0.007 A 
ATOM     18  C   UNL     1       3.421  -4.990   1.258  0.00  0.00    +0.000 A 
ATOM     19  C   UNL     1       4.103  -4.392   2.302  0.00  0.00    +0.001 A 
ATOM     20  C   UNL     1       3.475  -3.438   3.081  0.00  0.00    +0.020 A 
ATOM     21  C   UNL     1       2.166  -3.078   2.813  0.00  0.00    +0.046 A 
ATOM     22 CL   UNL     1       1.380  -1.876   3.788  0.00  0.00    -0.083 Cl
ENDBRANCH  15  16
ENDBRANCH  12  15
ENDBRANCH   7  10
ENDBRANCH   1   7
BRANCH   5  23
ATOM     23  C   UNL     1       3.930   2.467  -3.153  0.00  0.00    +0.153 C 
BRANCH  23  24
ATOM     24  C   UNL     1       5.346   2.380  -3.724  0.00  0.00    +0.228 C 
ATOM     25  C   UNL     1       6.062   3.725  -3.542  0.00  0.00    +0.275 C 
ATOM     26  O   UNL     1       7.386   3.604  -4.073  0.00  0.00    -0.485 OA
ATOM     27  C   UNL     1       8.087   2.491  -3.722  0.00  0.00    +0.162 A 
ATOM     28  C   UNL     1       9.464   2.474  -3.888  0.00  0.00    +0.049 A 
ATOM     29  C   UNL     1      10.188   1.350  -3.539  0.00  0.00    +0.004 A 
ATOM     30  C   UNL     1       9.543   0.241  -3.024  0.00  0.00    +0.004 A 
ATOM     31  C   UNL     1       8.171   0.253  -2.855  0.00  0.00    +0.049 A 
ATOM     32  C   UNL     1       7.438   1.378  -3.202  0.00  0.00    +0.163 A 
ATOM     33  O   UNL     1       6.089   1.377  -3.023  0.00  0.00    -0.480 OA
ENDBRANCH  23  24
ENDBRANCH   5  23
TORSDOF 6
