REMARK  Name = ZINC36500660
REMARK  19 active torsions:
REMARK  status: ('A' for Active; 'I' for Inactive)
REMARK    1  A    between atoms: C_1  and  C_2
REMARK    2  A    between atoms: C_2  and  C_3
REMARK    3  A    between atoms: C_2  and  C_4
REMARK    4  A    between atoms: C_2  and  C_5
REMARK    5  A    between atoms: C_5  and  C_6
REMARK    6  A    between atoms: C_6  and  C_7
REMARK    7  A    between atoms: C_6  and  C_8
REMARK    8  A    between atoms: C_6  and  N_9
REMARK    9  A    between atoms: C_10  and  C_12
REMARK   10  A    between atoms: C_12  and  C_14
REMARK   11  A    between atoms: C_12  and  N_23
REMARK   12  A    between atoms: C_17  and  N_20
REMARK   13  A    between atoms: N_20  and  C_21
REMARK   14  A    between atoms: N_20  and  C_22
REMARK   15  A    between atoms: N_23  and  C_24
REMARK   16  A    between atoms: C_24  and  C_25
REMARK   17  A    between atoms: C_30  and  C_32
REMARK   18  A    between atoms: C_33  and  O_39
REMARK   19  A    between atoms: C_37  and  O_38
REMARK                            x       y       z     vdW  Elec       q    Type
REMARK                         _______ _______ _______ _____ _____    ______ ____
ROOT
ATOM      1  C   UNL     1       5.194  -0.238  -4.292  0.00  0.00    +0.193 C 
ENDROOT
BRANCH   1   2
ATOM      2  C   UNL     1       4.263   0.615  -5.115  0.00  0.00    -0.018 A 
ATOM      3  C   UNL     1       4.406   1.990  -5.115  0.00  0.00    +0.008 A 
ATOM      4  C   UNL     1       3.555   2.775  -5.869  0.00  0.00    +0.023 A 
ATOM      5  C   UNL     1       2.554   2.180  -6.627  0.00  0.00    +0.029 A 
ATOM      6  C   UNL     1       2.413   0.799  -6.624  0.00  0.00    +0.023 A 
ATOM      7  C   UNL     1       3.271   0.020  -5.873  0.00  0.00    +0.008 A 
BRANCH   5   8
ATOM      8  N   UNL     1       1.691   2.971  -7.389  0.00  0.00    -0.336 N 
ATOM      9  C   UNL     1       1.841   4.428  -7.390  0.00  0.00    +0.129 C 
ATOM     10  C   UNL     1       0.636   2.343  -8.188  0.00  0.00    +0.129 C 
ENDBRANCH   5   8
ENDBRANCH   1   2
BRANCH   1  12
ATOM     11  N   UNL     1       3.497  -0.906  -2.621  0.00  0.00    -0.308 N 
ATOM     12  C   UNL     1       4.682  -0.318  -2.877  0.00  0.00    +0.239 C 
ATOM     13  O   UNL     1       5.338   0.147  -1.968  0.00  0.00    -0.273 OA
ATOM     14  H   UNL     1       2.973  -1.278  -3.347  0.00  0.00    +0.149 HD
BRANCH  11  15
ATOM     15  C   UNL     1       3.000  -0.983  -1.245  0.00  0.00    +0.030 C 
ATOM     16  C   UNL     1       3.229   0.357  -0.543  0.00  0.00    +0.031 C 
ATOM     17  C   UNL     1       3.748  -2.086  -0.494  0.00  0.00    +0.031 C 
BRANCH  15  18
ATOM     18  C   UNL     1       1.503  -1.301  -1.260  0.00  0.00    +0.031 C 
BRANCH  18  20
ATOM     19  C   UNL     1       0.971  -1.116  -3.694  0.00  0.00    +0.010 C 
ATOM     20  C   UNL     1       0.812  -0.449  -2.326  0.00  0.00    -0.036 C 
ATOM     21  C   UNL     1       1.449   0.942  -2.360  0.00  0.00    +0.010 C 
ATOM     22  C   UNL     1      -0.675  -0.321  -1.991  0.00  0.00    +0.010 C 
ENDBRANCH  18  20
ENDBRANCH  15  18
ENDBRANCH  11  15
ENDBRANCH   1  12
BRANCH   1  23
ATOM     23  N   UNL     1       6.532   0.357  -4.295  0.00  0.00    -0.274 N 
ATOM     24  C   UNL     1       7.280   0.328  -5.416  0.00  0.00    +0.255 C 
ATOM     25  O   UNL     1       6.844  -0.193  -6.425  0.00  0.00    -0.270 OA
BRANCH  24  26
ATOM     26  C   UNL     1       8.626   0.926  -5.419  0.00  0.00    +0.119 A 
ATOM     27  C   UNL     1       9.744   0.150  -5.082  0.00  0.00    +0.133 A 
ATOM     28  C   UNL     1      11.006   0.723  -5.089  0.00  0.00    +0.046 A 
ATOM     29  C   UNL     1      11.164   2.054  -5.425  0.00  0.00    +0.007 A 
ATOM     30  C   UNL     1      10.068   2.828  -5.758  0.00  0.00    +0.046 A 
ATOM     31  C   UNL     1       8.798   2.274  -5.764  0.00  0.00    +0.133 A 
BRANCH  31  32
ATOM     32  O   UNL     1       7.725   3.034  -6.097  0.00  0.00    -0.506 OA
ATOM     33  H   UNL     1       7.314   3.484  -5.346  0.00  0.00    +0.292 HD
ENDBRANCH  31  32
BRANCH  27  34
ATOM     34  O   UNL     1       9.592  -1.157  -4.751  0.00  0.00    -0.506 OA
ATOM     35  H   UNL     1       9.646  -1.762  -5.503  0.00  0.00    +0.292 HD
ENDBRANCH  27  34
ENDBRANCH  24  26
BRANCH  23  36
ATOM     36  C   UNL     1       7.058   0.984  -3.080  0.00  0.00    +0.183 C 
BRANCH  36  37
ATOM     37  C   UNL     1       7.671  -0.070  -2.195  0.00  0.00    +0.122 A 
ATOM     38  C   UNL     1       8.948  -0.491  -2.242  0.00  0.00    +0.046 A 
ATOM     39  C   UNL     1       9.090  -1.481  -1.243  0.00  0.00    +0.041 A 
ATOM     40  C   UNL     1       7.891  -1.606  -0.645  0.00  0.00    +0.195 A 
ATOM     41  O   UNL     1       7.037  -0.745  -1.222  0.00  0.00    -0.466 OA
ENDBRANCH  36  37
ENDBRANCH  23  36
ENDBRANCH   1  23
TORSDOF 12
