REMARK  Name = ZINC04290112
REMARK  7 active torsions:
REMARK  status: ('A' for Active; 'I' for Inactive)
REMARK    1  A    between atoms: C_1  and  C_2
REMARK    2  A    between atoms: C_8  and  C_9
REMARK    3  A    between atoms: C_8  and  N_59
REMARK    4  A    between atoms: C_10  and  O_35
REMARK    5  A    between atoms: C_16  and  C_31
REMARK    6  A    between atoms: C_17  and  O_20
REMARK    7  A    between atoms: O_20  and  C_21
REMARK                            x       y       z     vdW  Elec       q    Type
REMARK                         _______ _______ _______ _____ _____    ______ ____
ROOT
ATOM      1  C   UNL     1       7.082   3.998   0.106  0.00  0.00    +0.020 A 
ATOM      2  C   UNL     1       7.740   4.383  -1.050  0.00  0.00    +0.122 A 
ATOM      3  C   UNL     1       7.244   4.024  -2.301  0.00  0.00    +0.046 A 
ATOM      4  C   UNL     1       6.099   3.285  -2.405  0.00  0.00    +0.019 A 
ATOM      5  C   UNL     1       5.424   2.889  -1.250  0.00  0.00    +0.068 A 
ATOM      6  C   UNL     1       5.918   3.247   0.018  0.00  0.00    +0.144 A 
ATOM      7  O   UNL     1       5.258   2.858   1.127  0.00  0.00    -0.447 OA
ATOM      8  C   UNL     1       4.133   2.133   1.077  0.00  0.00    +0.254 A 
ATOM      9  C   UNL     1       3.573   1.737  -0.084  0.00  0.00    +0.222 A 
ATOM     10  C   UNL     1       4.190   2.088  -1.318  0.00  0.00    +0.235 A 
ATOM     11  O   UNL     1       3.715   1.743  -2.387  0.00  0.00    -0.283 OA
ENDROOT
BRANCH   8  12
ATOM     12  C   UNL     1       3.465   1.745   2.371  0.00  0.00    +0.454 C 
ATOM     13  F   UNL     1       3.971   0.515   2.806  0.00  0.00    -0.163 F 
ATOM     14  F   UNL     1       3.719   2.723   3.338  0.00  0.00    -0.163 F 
ATOM     15  F   UNL     1       2.085   1.636   2.169  0.00  0.00    -0.163 F 
ENDBRANCH   8  12
BRANCH   2  16
ATOM     16  O   UNL     1       8.879   5.117  -0.963  0.00  0.00    -0.506 OA
ATOM     17  H   UNL     1       8.731   6.072  -0.962  0.00  0.00    +0.292 HD
ENDBRANCH   2  16
BRANCH   1  18
ATOM     18  C   UNL     1       7.627   4.392   1.454  0.00  0.00    -0.035 C 
BRANCH  18  25
ATOM     19  C   UNL     1      10.047   5.146   2.677  0.00  0.00    -0.013 C 
ATOM     20  C   UNL     1       9.348   3.841   3.066  0.00  0.00    -0.071 C 
ATOM     21  C   UNL     1      10.398   2.793   3.441  0.00  0.00    -0.016 C 
ATOM     22  C   UNL     1       9.695   1.483   3.809  0.00  0.00    -0.003 C 
ATOM     23  C   UNL     1       8.835   1.024   2.628  0.00  0.00    -0.019 C 
ATOM     24  C   UNL     1       7.831   2.124   2.276  0.00  0.00    -0.078 C 
ATOM     25  N   UNL     1       8.571   3.350   1.907  0.00  0.00    +0.384 N 
ATOM     26  H   UNL     1       9.219   3.130   1.141  0.00  0.00    -0.081 HD
ENDBRANCH  18  25
ENDBRANCH   1  18
BRANCH   9  27
ATOM     27  O   UNL     1       2.428   1.001  -0.075  0.00  0.00    -0.448 OA
BRANCH  27  28
ATOM     28  C   UNL     1       1.243   1.664  -0.103  0.00  0.00    +0.129 A 
ATOM     29  C   UNL     1       1.236   3.063  -0.139  0.00  0.00    +0.047 A 
ATOM     30  C   UNL     1       0.066   3.755  -0.167  0.00  0.00    +0.012 A 
ATOM     31  C   UNL     1      -1.156   3.060  -0.160  0.00  0.00    -0.018 A 
ATOM     32  C   UNL     1      -2.384   3.744  -0.188  0.00  0.00    +0.008 A 
ATOM     33  C   UNL     1      -3.548   3.039  -0.179  0.00  0.00    +0.001 A 
ATOM     34  C   UNL     1      -3.544   1.645  -0.144  0.00  0.00    +0.001 A 
ATOM     35  C   UNL     1      -2.375   0.949  -0.117  0.00  0.00    +0.008 A 
ATOM     36  C   UNL     1      -1.152   1.642  -0.130  0.00  0.00    -0.014 A 
ATOM     37  C   UNL     1       0.074   0.957  -0.096  0.00  0.00    +0.054 A 
ENDBRANCH  27  28
ENDBRANCH   9  27
TORSDOF 6
