REMARK  Name = ZINC48121690
REMARK  3 active torsions:
REMARK  status: ('A' for Active; 'I' for Inactive)
REMARK    1  A    between atoms: C_1  and  N_2
REMARK    2  A    between atoms: C_5  and  C_7
REMARK    3  A    between atoms: C_15  and  C_17
REMARK                            x       y       z     vdW  Elec       q    Type
REMARK                         _______ _______ _______ _____ _____    ______ ____
ROOT
ATOM      1  C   UNL     1      -0.023   1.457   0.013  0.00  0.00    +0.174 C 
ATOM      2  N   UNL     1      -0.020  -0.008   0.004  0.00  0.00    -0.248 N 
ATOM      3  C   UNL     1      -0.012  -0.805  -1.111  0.00  0.00    +0.177 A 
ATOM      4  C   UNL     1      -0.011  -2.122  -0.667  0.00  0.00    +0.113 A 
ATOM      5  C   UNL     1      -0.019  -2.092   0.743  0.00  0.00    +0.118 A 
ATOM      6  N   UNL     1      -0.018  -0.836   1.133  0.00  0.00    -0.167 NA
ATOM      7  N   UNL     1      -0.003  -2.917  -1.800  0.00  0.00    -0.334 N 
ATOM      8  H   UNL     1      -0.001  -3.887  -1.825  0.00  0.00    +0.168 HD
ATOM      9  C   UNL     1       0.001  -2.073  -2.878  0.00  0.00    +0.158 A 
ATOM     10  N   UNL     1      -0.004  -0.828  -2.453  0.00  0.00    -0.207 NA
ENDROOT
BRANCH   9  11
ATOM     11  C   UNL     1       0.009  -2.492  -4.288  0.00  0.00    +0.091 A 
ATOM     12  C   UNL     1       0.124  -3.774  -4.746  0.00  0.00    +0.031 A 
ATOM     13  C   UNL     1       0.087  -3.722  -6.147  0.00  0.00    +0.020 A 
ATOM     14  C   UNL     1      -0.048  -2.427  -6.510  0.00  0.00    +0.094 A 
ATOM     15  N   UNL     1      -0.103  -1.663  -5.381  0.00  0.00    -0.292 N 
ATOM     16  C   UNL     1      -0.244  -0.278  -5.342  0.00  0.00    +0.178 A 
ATOM     17  N   UNL     1      -0.197   0.518  -4.296  0.00  0.00    -0.231 NA
ATOM     18  C   UNL     1      -0.351   1.822  -4.425  0.00  0.00    +0.121 A 
ATOM     19  C   UNL     1      -0.558   2.298  -5.678  0.00  0.00    +0.068 A 
ATOM     20  S   UNL     1      -0.508   0.783  -6.621  0.00  0.00    -0.058 S 
ENDBRANCH   9  11
BRANCH   5  21
ATOM     21  C   UNL     1      -0.022  -3.277   1.635  0.00  0.00    +0.004 A 
ATOM     22  C   UNL     1      -0.704  -4.433   1.261  0.00  0.00    +0.010 A 
ATOM     23  C   UNL     1      -0.703  -5.532   2.095  0.00  0.00    +0.001 A 
ATOM     24  C   UNL     1      -0.026  -5.489   3.301  0.00  0.00    +0.000 A 
ATOM     25  C   UNL     1       0.653  -4.344   3.678  0.00  0.00    +0.001 A 
ATOM     26  C   UNL     1       0.663  -3.240   2.849  0.00  0.00    +0.010 A 
ENDBRANCH   5  21
TORSDOF 2
