REMARK  Name = ZINC36490204
REMARK  15 active torsions:
REMARK  status: ('A' for Active; 'I' for Inactive)
REMARK    1  A    between atoms: C_1  and  C_2
REMARK    2  A    between atoms: C_2  and  C_3
REMARK    3  A    between atoms: C_3  and  C_4
REMARK    4  A    between atoms: C_4  and  C_5
REMARK    5  A    between atoms: C_5  and  C_6
REMARK    6  A    between atoms: N_8  and  C_9
REMARK    7  A    between atoms: N_8  and  C_15
REMARK    8  A    between atoms: C_15  and  C_17
REMARK    9  A    between atoms: C_15  and  C_26
REMARK   10  A    between atoms: C_17  and  C_19
REMARK   11  A    between atoms: C_17  and  C_20
REMARK   12  A    between atoms: N_28  and  C_29
REMARK   13  A    between atoms: C_29  and  S_30
REMARK   14  A    between atoms: S_30  and  C_33
REMARK   15  A    between atoms: C_36  and  C_39
REMARK                            x       y       z     vdW  Elec       q    Type
REMARK                         _______ _______ _______ _____ _____    ______ ____
ROOT
ATOM      1  C   UNL     1       1.447  -5.866  -4.480  0.00  0.00    +0.169 C 
ENDROOT
BRANCH   1   2
ATOM      2  C   UNL     1       0.362  -6.465  -5.338  0.00  0.00    +0.235 C 
ATOM      3  O   UNL     1      -0.369  -5.743  -5.982  0.00  0.00    -0.274 OA
ATOM      4  N   UNL     1       0.205  -7.802  -5.388  0.00  0.00    -0.295 N 
ATOM      5  H   UNL     1       0.771  -8.378  -4.851  0.00  0.00    +0.150 HD
BRANCH   4   6
ATOM      6  C   UNL     1      -0.822  -8.386  -6.255  0.00  0.00    +0.278 C 
BRANCH   6   7
ATOM      7  S   UNL     1      -0.094  -8.788  -7.868  0.00  0.00    +0.013 S 
ATOM      8  O   UNL     1      -1.120  -9.002  -8.828  0.00  0.00    -0.168 OA
ATOM      9  O   UNL     1       0.989  -7.912  -8.148  0.00  0.00    -0.168 OA
BRANCH   7  10
ATOM     10  C   UNL     1       0.652 -10.369  -7.647  0.00  0.00    +0.090 A 
ATOM     11  C   UNL     1       1.933 -10.463  -7.137  0.00  0.00    +0.027 A 
ATOM     12  C   UNL     1       2.519 -11.703  -6.964  0.00  0.00    +0.005 A 
ATOM     13  C   UNL     1       1.823 -12.849  -7.300  0.00  0.00    -0.050 A 
ATOM     14  C   UNL     1       0.541 -12.755  -7.809  0.00  0.00    +0.005 A 
ATOM     15  C   UNL     1      -0.046 -11.515  -7.978  0.00  0.00    +0.027 A 
ATOM     16  C   UNL     1       2.462 -14.201  -7.112  0.00  0.00    +0.044 C 
ENDBRANCH   7  10
ENDBRANCH   6   7
ENDBRANCH   4   6
ENDBRANCH   1   2
BRANCH   1  19
ATOM     17  C   UNL     1       0.910  -4.503  -2.533  0.00  0.00    +0.216 C 
ATOM     18  O   UNL     1       0.417  -3.515  -2.031  0.00  0.00    -0.276 OA
ATOM     19  N   UNL     1       0.961  -4.624  -3.874  0.00  0.00    -0.286 N 
BRANCH  19  20
ATOM     20  C   UNL     1       0.530  -3.513  -4.726  0.00  0.00    +0.077 C 
ATOM     21  C   UNL     1       1.278  -2.240  -4.323  0.00  0.00    +0.022 C 
ATOM     22  C   UNL     1       0.828  -1.080  -5.213  0.00  0.00    +0.002 C 
ATOM     23  C   UNL     1      -0.677  -0.863  -5.045  0.00  0.00    +0.000 C 
ATOM     24  C   UNL     1      -1.425  -2.135  -5.449  0.00  0.00    +0.002 C 
ATOM     25  C   UNL     1      -0.975  -3.295  -4.558  0.00  0.00    +0.022 C 
ENDBRANCH  19  20
BRANCH  17  26
ATOM     26  C   UNL     1       1.466  -5.596  -1.656  0.00  0.00    +0.096 C 
BRANCH  26  27
ATOM     27  C   UNL     1       1.399  -5.158  -0.192  0.00  0.00    +0.009 C 
BRANCH  27  28
ATOM     28  C   UNL     1       1.963  -6.267   0.698  0.00  0.00    +0.000 C 
BRANCH  28  30
ATOM     29  C   UNL     1       2.461  -6.939   3.053  0.00  0.00    +0.004 C 
ATOM     30  C   UNL     1       1.897  -5.829   2.163  0.00  0.00    -0.003 C 
ENDBRANCH  28  30
ENDBRANCH  27  28
ENDBRANCH  26  27
ENDBRANCH  17  26
ENDBRANCH   1  19
BRANCH   1  31
ATOM     31  C   UNL     1       2.674  -5.566  -5.344  0.00  0.00    +0.045 C 
ATOM     32  C   UNL     1       3.706  -4.799  -4.516  0.00  0.00    +0.015 C 
BRANCH  31  33
ATOM     33  C   UNL     1       3.277  -6.860  -5.826  0.00  0.00    -0.042 A 
ATOM     34  C   UNL     1       3.379  -7.938  -4.967  0.00  0.00    +0.004 A 
ATOM     35  C   UNL     1       3.932  -9.125  -5.409  0.00  0.00    +0.000 A 
ATOM     36  C   UNL     1       4.384  -9.234  -6.711  0.00  0.00    +0.000 A 
ATOM     37  C   UNL     1       4.281  -8.156  -7.571  0.00  0.00    +0.000 A 
ATOM     38  C   UNL     1       3.724  -6.971  -7.130  0.00  0.00    +0.004 A 
ENDBRANCH  31  33
ENDBRANCH   1  31
TORSDOF 12
