REMARK  Name = ZINC32759977
REMARK  11 active torsions:
REMARK  status: ('A' for Active; 'I' for Inactive)
REMARK    1  A    between atoms: C_1  and  C_2
REMARK    2  A    between atoms: C_2  and  C_3
REMARK    3  A    between atoms: C_2  and  C_4
REMARK    4  A    between atoms: C_4  and  C_5
REMARK    5  A    between atoms: C_8  and  C_11
REMARK    6  A    between atoms: C_11  and  C_13
REMARK    7  A    between atoms: C_11  and  N_16
REMARK    8  A    between atoms: C_13  and  C_14
REMARK    9  A    between atoms: C_13  and  C_15
REMARK   10  A    between atoms: N_16  and  C_17
REMARK   11  A    between atoms: C_17  and  C_18
REMARK                            x       y       z     vdW  Elec       q    Type
REMARK                         _______ _______ _______ _____ _____    ______ ____
ROOT
ATOM      1  N   UNL     1       7.121  -0.056  -1.353  0.00  0.00    +0.388 N 
ATOM      2  H   UNL     1       7.016  -0.738  -0.617  0.00  0.00    -0.084 HD
ATOM      3  H   UNL     1       6.850  -0.467  -2.233  0.00  0.00    -0.084 HD
ENDROOT
BRANCH   1   4
ATOM      4  C   UNL     1       6.267   1.105  -1.070  0.00  0.00    -0.038 C 
BRANCH   4   8
ATOM      5  C   UNL     1       2.165  -0.079  -1.208  0.00  0.00    -0.047 A 
ATOM      6  C   UNL     1       2.551   1.137  -1.739  0.00  0.00    +0.004 A 
ATOM      7  C   UNL     1       3.879   1.521  -1.694  0.00  0.00    +0.002 A 
ATOM      8  C   UNL     1       4.820   0.688  -1.118  0.00  0.00    -0.061 A 
ATOM      9  C   UNL     1       4.434  -0.528  -0.587  0.00  0.00    +0.002 A 
ATOM     10  C   UNL     1       3.106  -0.910  -0.627  0.00  0.00    +0.004 A 
BRANCH   5  11
ATOM     11  C   UNL     1       0.718  -0.497  -1.257  0.00  0.00    +0.038 C 
BRANCH  11  13
ATOM     12  C   UNL     1      -0.019   1.526   0.010  0.00  0.00    +0.007 C 
ATOM     13  C   UNL     1       0.002  -0.004   0.002  0.00  0.00    -0.013 C 
ATOM     14  C   UNL     1      -1.433  -0.534   0.013  0.00  0.00    +0.007 C 
ENDBRANCH  11  13
ENDBRANCH   5  11
ENDBRANCH   4   8
BRANCH   4  15
ATOM     15  C   UNL     1       6.594   1.653   0.321  0.00  0.00    -0.027 C 
ATOM     16  C   UNL     1       5.704   2.862   0.615  0.00  0.00    +0.006 C 
ATOM     17  C   UNL     1       6.342   0.567   1.369  0.00  0.00    +0.006 C 
ENDBRANCH   4  15
ENDBRANCH   1   4
BRANCH   1  18
ATOM     18  C   UNL     1       8.524   0.374  -1.424  0.00  0.00    -0.006 C 
BRANCH  18  19
ATOM     19  C   UNL     1       9.401  -0.817  -1.714  0.00  0.00    +0.094 A 
ATOM     20  N   UNL     1      10.744  -0.646  -1.817  0.00  0.00    -0.312 N 
ATOM     21  H   UNL     1      11.120   0.240  -1.703  0.00  0.00    +0.170 HD
ATOM     22  C   UNL     1      11.563  -1.683  -2.075  0.00  0.00    +0.260 A 
ATOM     23  O   UNL     1      12.767  -1.515  -2.165  0.00  0.00    -0.267 OA
ATOM     24  C   UNL     1      10.994  -2.987  -2.242  0.00  0.00    +0.075 A 
ATOM     25  C   UNL     1      11.690  -4.251  -2.526  0.00  0.00    -0.023 A 
ATOM     26  C   UNL     1      10.927  -5.352  -2.640  0.00  0.00    -0.004 A 
ATOM     27  S   UNL     1       9.262  -4.787  -2.377  0.00  0.00    -0.073 S 
ATOM     28  C   UNL     1       9.601  -3.066  -2.117  0.00  0.00    +0.116 A 
ATOM     29  N   UNL     1       8.854  -1.995  -1.855  0.00  0.00    -0.229 NA
ATOM     30  C   UNL     1      11.744  -6.581  -2.935  0.00  0.00    +0.043 C 
ATOM     31  C   UNL     1      13.104  -6.035  -3.421  0.00  0.00    +0.010 C 
ATOM     32  C   UNL     1      13.152  -4.656  -2.735  0.00  0.00    +0.037 C 
ENDBRANCH  18  19
ENDBRANCH   1  18
TORSDOF 7
