REMARK  Name = ZINC10028120
REMARK  15 active torsions:
REMARK  status: ('A' for Active; 'I' for Inactive)
REMARK    1  A    between atoms: C_1  and  C_2
REMARK    2  A    between atoms: C_2  and  O_3
REMARK    3  A    between atoms: O_3  and  C_4
REMARK    4  A    between atoms: C_4  and  C_6
REMARK    5  A    between atoms: C_10  and  N_11
REMARK    6  A    between atoms: C_12  and  C_14
REMARK    7  A    between atoms: C_14  and  C_15
REMARK    8  A    between atoms: C_15  and  S_16
REMARK    9  A    between atoms: S_16  and  C_19
REMARK   10  A    between atoms: C_22  and  O_25
REMARK   11  A    between atoms: O_25  and  C_26
REMARK   12  A    between atoms: C_27  and  C_32
REMARK   13  A    between atoms: C_27  and  C_33
REMARK   14  A    between atoms: C_28  and  C_30
REMARK   15  A    between atoms: C_28  and  C_31
REMARK                            x       y       z     vdW  Elec       q    Type
REMARK                         _______ _______ _______ _____ _____    ______ ____
ROOT
ATOM      1  C   UNL     1       1.284   1.991   0.001  0.00  0.00    +0.091 A 
ATOM      2  C   UNL     1      -0.016   1.349   0.009  0.00  0.00    -0.024 A 
ATOM      3  C   UNL     1       0.002  -0.004   0.002  0.00  0.00    -0.016 A 
ATOM      4  S   UNL     1       1.721  -0.428  -0.030  0.00  0.00    -0.079 S 
ATOM      5  C   UNL     1       2.405   1.164  -0.028  0.00  0.00    +0.086 A 
ATOM      6  C   UNL     1      -1.184  -0.911   0.025  0.00  0.00    -0.041 C 
ATOM      7  C   UNL     1      -2.380   1.160  -0.681  0.00  0.00    -0.069 C 
ATOM      8  C   UNL     1      -1.357   2.067   0.007  0.00  0.00    +0.024 C 
ATOM      9  C   UNL     1      -2.059   1.085  -2.177  0.00  0.00    -0.010 C 
ATOM     10  C   UNL     1      -3.767   1.813  -0.529  0.00  0.00    -0.010 C 
ATOM     11  C   UNL     1      -1.062  -1.936  -1.108  0.00  0.00    -0.005 C 
ATOM     12  C   UNL     1      -1.177  -1.676   1.361  0.00  0.00    -0.005 C 
ATOM     13  N   UNL     1      -2.483  -0.188  -0.066  0.00  0.00    +0.389 N 
ATOM     14  H   UNL     1      -2.861  -0.082   0.882  0.00  0.00    -0.084 HD
ATOM     15  H   UNL     1      -3.128  -0.752  -0.631  0.00  0.00    -0.084 HD
ENDROOT
BRANCH   5  16
ATOM     16  N   UNL     1       3.742   1.531  -0.048  0.00  0.00    -0.279 N 
ATOM     17  C   UNL     1       4.700   0.584  -0.074  0.00  0.00    +0.219 C 
ATOM     18  O   UNL     1       4.394  -0.590  -0.079  0.00  0.00    -0.275 OA
ATOM     19  H   UNL     1       3.987   2.469  -0.044  0.00  0.00    +0.155 HD
BRANCH  17  20
ATOM     20  C   UNL     1       6.153   0.983  -0.096  0.00  0.00    +0.119 C 
BRANCH  20  21
ATOM     21  C   UNL     1       7.027  -0.274  -0.122  0.00  0.00    +0.181 C 
BRANCH  21  22
ATOM     22  S   UNL     1       8.776   0.207  -0.149  0.00  0.00    -0.003 S 
ATOM     23  O   UNL     1       9.092   0.835  -1.383  0.00  0.00    -0.169 OA
ATOM     24  O   UNL     1       9.136   0.812   1.085  0.00  0.00    -0.169 OA
BRANCH  22  25
ATOM     25  C   UNL     1       9.663  -1.316  -0.178  0.00  0.00    +0.088 A 
ATOM     26  C   UNL     1      10.036  -1.920   1.009  0.00  0.00    +0.030 A 
ATOM     27  C   UNL     1      10.727  -3.116   0.989  0.00  0.00    +0.047 A 
ATOM     28  C   UNL     1      11.056  -3.705  -0.224  0.00  0.00    +0.120 A 
ATOM     29  C   UNL     1      10.685  -3.095  -1.413  0.00  0.00    +0.047 A 
ATOM     30  C   UNL     1       9.989  -1.901  -1.387  0.00  0.00    +0.030 A 
BRANCH  28  31
ATOM     31  O   UNL     1      11.739  -4.880  -0.246  0.00  0.00    -0.495 OA
ATOM     32  C   UNL     1      12.088  -5.452   1.016  0.00  0.00    +0.277 C 
ENDBRANCH  28  31
ENDBRANCH  22  25
ENDBRANCH  21  22
ENDBRANCH  20  21
ENDBRANCH  17  20
ENDBRANCH   5  16
BRANCH   1  33
ATOM     33  C   UNL     1       1.425   3.448   0.033  0.00  0.00    +0.342 C 
ATOM     34  O   UNL     1       1.503   4.028   1.099  0.00  0.00    -0.245 OA
BRANCH  33  35
ATOM     35  O   UNL     1       1.468   4.147  -1.120  0.00  0.00    -0.461 OA
BRANCH  35  37
ATOM     36  C   UNL     1       1.638   6.204  -2.412  0.00  0.00    +0.048 C 
ATOM     37  C   UNL     1       1.608   5.588  -1.012  0.00  0.00    +0.229 C 
ENDBRANCH  35  37
ENDBRANCH  33  35
ENDBRANCH   1  33
TORSDOF 9
