REMARK  Name = ZINC57275773
REMARK  11 active torsions:
REMARK  status: ('A' for Active; 'I' for Inactive)
REMARK    1  A    between atoms: C_1  and  C_2
REMARK    2  A    between atoms: C_2  and  C_4
REMARK    3  A    between atoms: C_2  and  N_21
REMARK    4  A    between atoms: N_6  and  C_7
REMARK    5  A    between atoms: C_7  and  C_8
REMARK    6  A    between atoms: N_12  and  C_14
REMARK    7  A    between atoms: C_22  and  O_24
REMARK    8  A    between atoms: O_24  and  C_25
REMARK    9  A    between atoms: C_25  and  C_26
REMARK   10  A    between atoms: C_25  and  C_27
REMARK   11  A    between atoms: C_25  and  C_28
REMARK                            x       y       z     vdW  Elec       q    Type
REMARK                         _______ _______ _______ _____ _____    ______ ____
ROOT
ATOM      1  C   UNL     1       0.731  -0.503   1.223  0.00  0.00    +0.233 C 
ATOM      2  O   UNL     1       0.159  -1.213   2.023  0.00  0.00    -0.274 OA
ATOM      3  N   UNL     1       2.019  -0.161   1.426  0.00  0.00    -0.313 N 
ATOM      4  H   UNL     1       2.476   0.406   0.786  0.00  0.00    +0.149 HD
ENDROOT
BRANCH   1   6
ATOM      5  C   UNL     1      -0.019   1.526   0.010  0.00  0.00    +0.038 C 
ATOM      6  C   UNL     1       0.002  -0.004   0.002  0.00  0.00    +0.159 C 
BRANCH   6   7
ATOM      7  N   UNL     1      -1.372  -0.511   0.012  0.00  0.00    -0.270 N 
ATOM      8  C   UNL     1      -2.051  -0.643  -1.145  0.00  0.00    +0.401 C 
ATOM      9  O   UNL     1      -1.523  -0.341  -2.196  0.00  0.00    -0.226 OA
ATOM     10  H   UNL     1      -1.794  -0.752   0.852  0.00  0.00    +0.153 HD
BRANCH   8  11
ATOM     11  O   UNL     1      -3.314  -1.109  -1.135  0.00  0.00    -0.445 OA
BRANCH  11  12
ATOM     12  C   UNL     1      -3.973  -1.222  -2.398  0.00  0.00    +0.107 C 
ATOM     13  C   UNL     1      -3.189  -2.179  -3.298  0.00  0.00    +0.055 C 
ATOM     14  C   UNL     1      -5.388  -1.765  -2.188  0.00  0.00    +0.055 C 
ATOM     15  C   UNL     1      -4.048   0.155  -3.060  0.00  0.00    +0.055 C 
ENDBRANCH  11  12
ENDBRANCH   8  11
ENDBRANCH   6   7
ENDBRANCH   1   6
BRANCH   3  16
ATOM     16  C   UNL     1       2.727  -0.647   2.613  0.00  0.00    +0.109 C 
BRANCH  16  17
ATOM     17  C   UNL     1       4.163  -0.117   2.602  0.00  0.00    +0.025 C 
ATOM     18  C   UNL     1       4.993  -0.784   1.474  0.00  0.00    +0.025 C 
ATOM     19  C   UNL     1       6.438  -0.698   2.010  0.00  0.00    +0.105 C 
ATOM     20  N   UNL     1       6.353  -0.554   3.471  0.00  0.00    -0.330 N 
ATOM     21  C   UNL     1       4.932  -0.572   3.867  0.00  0.00    +0.110 C 
BRANCH  20  22
ATOM     22  C   UNL     1       7.439  -0.422   4.341  0.00  0.00    +0.030 A 
ATOM     23  C   UNL     1       7.224  -0.299   5.708  0.00  0.00    +0.026 A 
ATOM     24  C   UNL     1       8.299  -0.170   6.566  0.00  0.00    +0.040 A 
ATOM     25  C   UNL     1       9.589  -0.162   6.065  0.00  0.00    +0.124 A 
ATOM     26  C   UNL     1       9.806  -0.284   4.702  0.00  0.00    +0.040 A 
ATOM     27  C   UNL     1       8.734  -0.419   3.841  0.00  0.00    +0.026 A 
ATOM     28  F   UNL     1      10.639  -0.034   6.905  0.00  0.00    -0.205 F 
ENDBRANCH  20  22
ENDBRANCH  16  17
ENDBRANCH   3  16
TORSDOF 7
