REMARK  Name = ZINC33272791
REMARK  10 active torsions:
REMARK  status: ('A' for Active; 'I' for Inactive)
REMARK    1  A    between atoms: C_1  and  C_2
REMARK    2  A    between atoms: C_2  and  C_4
REMARK    3  A    between atoms: C_2  and  N_31
REMARK    4  A    between atoms: C_4  and  C_5
REMARK    5  A    between atoms: C_5  and  N_6
REMARK    6  A    between atoms: C_7  and  C_9
REMARK    7  A    between atoms: C_12  and  C_15
REMARK    8  A    between atoms: C_15  and  N_16
REMARK    9  A    between atoms: N_23  and  C_28
REMARK   10  A    between atoms: C_28  and  C_29
REMARK                            x       y       z     vdW  Elec       q    Type
REMARK                         _______ _______ _______ _____ _____    ______ ____
ROOT
ATOM      1  C   UNL     1      -8.290   2.172  -4.320  0.00  0.00    +0.037 A 
ATOM      2  C   UNL     1      -7.245   2.663  -5.104  0.00  0.00    +0.013 A 
ATOM      3  C   UNL     1      -6.011   2.048  -5.065  0.00  0.00    +0.006 A 
ATOM      4  C   UNL     1      -5.807   0.948  -4.251  0.00  0.00    -0.028 A 
ATOM      5  C   UNL     1      -6.840   0.453  -3.475  0.00  0.00    +0.006 A 
ATOM      6  C   UNL     1      -8.079   1.062  -3.501  0.00  0.00    +0.013 A 
ENDROOT
BRANCH   1   8
ATOM      7  N   UNL     1     -10.623   2.349  -3.597  0.00  0.00    -0.311 N 
ATOM      8  C   UNL     1      -9.616   2.826  -4.356  0.00  0.00    +0.244 C 
ATOM      9  O   UNL     1      -9.797   3.793  -5.069  0.00  0.00    -0.270 OA
ATOM     10  H   UNL     1     -10.459   1.474  -2.951  0.00  0.00    +0.149 HD
BRANCH   7  11
ATOM     11  C   UNL     1     -11.937   2.997  -3.633  0.00  0.00    +0.103 C 
BRANCH  11  12
ATOM     12  C   UNL     1     -12.892   2.265  -2.688  0.00  0.00    +0.003 C 
BRANCH  12  14
ATOM     13  C   UNL     1     -14.905   2.968  -3.990  0.00  0.00    -0.013 C 
ATOM     14  C   UNL     1     -14.221   3.020  -2.622  0.00  0.00    -0.070 C 
BRANCH  14  15
ATOM     15  N   UNL     1     -15.090   2.394  -1.617  0.00  0.00    +0.381 N 
ATOM     16  C   UNL     1     -14.453   2.416  -0.275  0.00  0.00    -0.079 C 
ATOM     17  C   UNL     1     -15.651   2.232   0.690  0.00  0.00    -0.020 C 
ATOM     18  C   UNL     1     -16.773   3.047   0.007  0.00  0.00    -0.020 C 
ATOM     19  C   UNL     1     -16.358   3.142  -1.473  0.00  0.00    -0.079 C 
ATOM     20  H   UNL     1     -15.265   1.367  -1.969  0.00  0.00    -0.081 HD
ENDBRANCH  14  15
ENDBRANCH  12  14
ENDBRANCH  11  12
ENDBRANCH   7  11
ENDBRANCH   1   8
BRANCH   4  21
ATOM     21  C   UNL     1      -4.456   0.282  -4.214  0.00  0.00    +0.160 C 
BRANCH  21  22
ATOM     22  N   UNL     1      -3.635   0.900  -3.170  0.00  0.00    -0.298 N 
ATOM     23  C   UNL     1      -3.662   0.394  -1.874  0.00  0.00    +0.069 A 
ATOM     24  C   UNL     1      -4.470  -0.699  -1.578  0.00  0.00    +0.028 A 
ATOM     25  C   UNL     1      -4.501  -1.207  -0.295  0.00  0.00    +0.002 A 
ATOM     26  C   UNL     1      -3.731  -0.632   0.702  0.00  0.00    +0.002 A 
ATOM     27  C   UNL     1      -2.926   0.452   0.420  0.00  0.00    +0.028 A 
ATOM     28  C   UNL     1      -2.885   0.973  -0.869  0.00  0.00    +0.069 A 
ATOM     29  N   UNL     1      -2.070   2.067  -1.145  0.00  0.00    -0.299 N 
ATOM     30  C   UNL     1      -2.029   2.581  -2.391  0.00  0.00    +0.317 A 
ATOM     31  O   UNL     1      -1.323   3.539  -2.636  0.00  0.00    -0.262 OA
ATOM     32  C   UNL     1      -2.855   1.959  -3.466  0.00  0.00    +0.317 A 
ATOM     33  O   UNL     1      -2.828   2.405  -4.596  0.00  0.00    -0.262 OA
BRANCH  29  34
ATOM     34  C   UNL     1      -1.261   2.664  -0.080  0.00  0.00    +0.152 C 
BRANCH  34  35
ATOM     35  C   UNL     1       0.086   1.991  -0.035  0.00  0.00    -0.013 C 
ATOM     36  C   UNL     1       1.179   2.707  -0.128  0.00  0.00    +0.005 C 
ENDBRANCH  34  35
ENDBRANCH  29  34
ENDBRANCH  21  22
ENDBRANCH   4  21
TORSDOF 9
