REMARK  Name = ZINC07000883
REMARK  10 active torsions:
REMARK  status: ('A' for Active; 'I' for Inactive)
REMARK    1  A    between atoms: C_1  and  C_2
REMARK    2  A    between atoms: C_5  and  C_8
REMARK    3  A    between atoms: C_9  and  C_31
REMARK    4  A    between atoms: C_17  and  C_19
REMARK    5  A    between atoms: C_19  and  N_56
REMARK    6  A    between atoms: C_20  and  C_22
REMARK    7  A    between atoms: C_20  and  C_28
REMARK    8  A    between atoms: C_20  and  N_56
REMARK    9  A    between atoms: C_28  and  C_29
REMARK   10  A    between atoms: C_28  and  C_30
REMARK                            x       y       z     vdW  Elec       q    Type
REMARK                         _______ _______ _______ _____ _____    ______ ____
ROOT
ATOM      1  C   UNL     1       2.668   1.431   1.584  0.00  0.00    +0.007 A 
ATOM      2  C   UNL     1       3.687   2.305   1.403  0.00  0.00    -0.003 A 
ATOM      3  S   UNL     1       2.857   3.826   0.984  0.00  0.00    -0.073 S 
ATOM      4  C   UNL     1       1.178   3.258   1.061  0.00  0.00    +0.116 A 
ATOM      5  C   UNL     1       1.300   1.903   1.410  0.00  0.00    +0.080 A 
ATOM      6  C   UNL     1       0.069   1.184   1.544  0.00  0.00    +0.260 A 
ATOM      7  O   UNL     1       0.072   0.003   1.843  0.00  0.00    -0.267 OA
ATOM      8  N   UNL     1      -1.091   1.831   1.328  0.00  0.00    -0.312 N 
ATOM      9  H   UNL     1      -1.953   1.332   1.412  0.00  0.00    +0.170 HD
ATOM     10  C   UNL     1      -1.114   3.148   0.999  0.00  0.00    +0.094 A 
ATOM     11  N   UNL     1      -0.008   3.831   0.870  0.00  0.00    -0.229 NA
ATOM     12  C   UNL     1       5.168   2.053   1.526  0.00  0.00    +0.052 C 
ENDROOT
BRANCH   1  17
ATOM     13  C   UNL     1       3.721  -4.046   3.016  0.00  0.00    +0.044 C 
ATOM     14  C   UNL     1       3.446  -2.612   2.641  0.00  0.00    -0.050 A 
ATOM     15  C   UNL     1       3.859  -2.130   1.413  0.00  0.00    +0.004 A 
ATOM     16  C   UNL     1       3.610  -0.818   1.064  0.00  0.00    +0.009 A 
ATOM     17  C   UNL     1       2.939   0.021   1.952  0.00  0.00    -0.016 A 
ATOM     18  C   UNL     1       2.530  -0.469   3.192  0.00  0.00    +0.009 A 
ATOM     19  C   UNL     1       2.780  -1.784   3.527  0.00  0.00    +0.004 A 
ENDBRANCH   1  17
BRANCH  10  20
ATOM     20  C   UNL     1      -2.437   3.833   0.773  0.00  0.00    -0.006 C 
BRANCH  20  21
ATOM     21  N   UNL     1      -2.197   5.246   0.425  0.00  0.00    +0.388 N 
ATOM     22  H   UNL     1      -1.558   5.293  -0.377  0.00  0.00    -0.084 HD
ATOM     23  H   UNL     1      -1.775   5.726   1.229  0.00  0.00    -0.084 HD
BRANCH  21  24
ATOM     24  C   UNL     1      -3.467   5.910   0.075  0.00  0.00    -0.038 C 
BRANCH  24  25
ATOM     25  C   UNL     1      -3.178   7.099  -0.804  0.00  0.00    -0.061 A 
ATOM     26  C   UNL     1      -2.088   7.907  -0.538  0.00  0.00    +0.002 A 
ATOM     27  C   UNL     1      -1.820   8.995  -1.347  0.00  0.00    +0.000 A 
ATOM     28  C   UNL     1      -2.647   9.280  -2.417  0.00  0.00    +0.000 A 
ATOM     29  C   UNL     1      -3.740   8.476  -2.681  0.00  0.00    +0.000 A 
ATOM     30  C   UNL     1      -4.005   7.385  -1.874  0.00  0.00    +0.002 A 
ENDBRANCH  24  25
BRANCH  24  31
ATOM     31  C   UNL     1      -4.168   6.378   1.352  0.00  0.00    -0.027 C 
ATOM     32  C   UNL     1      -3.297   7.419   2.059  0.00  0.00    +0.006 C 
ATOM     33  C   UNL     1      -5.518   7.002   0.994  0.00  0.00    +0.006 C 
ENDBRANCH  24  31
ENDBRANCH  21  24
ENDBRANCH  20  21
ENDBRANCH  10  20
TORSDOF 6
