REMARK  Name = ZINC40007706
REMARK  12 active torsions:
REMARK  status: ('A' for Active; 'I' for Inactive)
REMARK    1  A    between atoms: C_1  and  C_2
REMARK    2  A    between atoms: C_2  and  N_3
REMARK    3  A    between atoms: N_3  and  C_4
REMARK    4  A    between atoms: N_3  and  C_6
REMARK    5  A    between atoms: C_4  and  C_5
REMARK    6  A    between atoms: C_6  and  C_8
REMARK    7  A    between atoms: C_6  and  C_26
REMARK    8  A    between atoms: C_8  and  N_9
REMARK    9  A    between atoms: C_10  and  C_12
REMARK   10  A    between atoms: C_14  and  S_19
REMARK   11  A    between atoms: S_19  and  N_22
REMARK   12  A    between atoms: N_22  and  C_23
REMARK                            x       y       z     vdW  Elec       q    Type
REMARK                         _______ _______ _______ _____ _____    ______ ____
ROOT
ATOM      1  N   UNL     1       1.587  -2.373   1.063  0.00  0.00    -0.313 N 
ATOM      2  C   UNL     1       0.761  -3.436   1.138  0.00  0.00    +0.245 C 
ATOM      3  O   UNL     1      -0.372  -3.296   1.555  0.00  0.00    -0.270 OA
ATOM      4  H   UNL     1       2.465  -2.469   0.662  0.00  0.00    +0.149 HD
ENDROOT
BRANCH   2   5
ATOM      5  C   UNL     1       1.232  -4.770   0.712  0.00  0.00    +0.052 A 
ATOM      6  C   UNL     1       2.566  -4.958   0.344  0.00  0.00    +0.042 A 
ATOM      7  C   UNL     1       3.000  -6.206  -0.051  0.00  0.00    +0.106 A 
ATOM      8  C   UNL     1       2.116  -7.271  -0.085  0.00  0.00    +0.029 A 
ATOM      9  C   UNL     1       0.794  -7.093   0.277  0.00  0.00    +0.018 A 
ATOM     10  C   UNL     1       0.347  -5.850   0.681  0.00  0.00    +0.030 A 
ATOM     11 BR   UNL     1      -1.460  -5.609   1.184  0.00  0.00    -0.050 Br
BRANCH   7  12
ATOM     12  S   UNL     1       4.683  -6.445  -0.515  0.00  0.00    +0.059 S 
ATOM     13  O   UNL     1       4.712  -7.581  -1.368  0.00  0.00    -0.153 OA
ATOM     14  O   UNL     1       5.176  -5.175  -0.921  0.00  0.00    -0.153 OA
BRANCH  12  15
ATOM     15  N   UNL     1       5.514  -6.860   0.855  0.00  0.00    -0.187 NA
ATOM     16  H   UNL     1       6.200  -6.269   1.204  0.00  0.00    +0.148 HD
BRANCH  15  17
ATOM     17  C   UNL     1       5.215  -8.120   1.540  0.00  0.00    +0.077 C 
ATOM     18  C   UNL     1       5.343  -8.143   3.064  0.00  0.00    +0.022 C 
ATOM     19  C   UNL     1       6.380  -8.861   2.198  0.00  0.00    +0.022 C 
ENDBRANCH  15  17
ENDBRANCH  12  15
ENDBRANCH   7  12
ENDBRANCH   2   5
BRANCH   1  20
ATOM     20  C   UNL     1       1.158  -1.074   1.586  0.00  0.00    +0.094 C 
BRANCH  20  21
ATOM     21  C   UNL     1       2.213  -0.017   1.251  0.00  0.00    -0.020 C 
BRANCH  21  22
ATOM     22  C   UNL     1       1.717   1.340   1.681  0.00  0.00    -0.059 A 
ATOM     23  C   UNL     1       0.743   1.444   2.656  0.00  0.00    +0.002 A 
ATOM     24  C   UNL     1       0.289   2.688   3.050  0.00  0.00    +0.000 A 
ATOM     25  C   UNL     1       0.808   3.830   2.468  0.00  0.00    +0.000 A 
ATOM     26  C   UNL     1       1.783   3.727   1.493  0.00  0.00    +0.000 A 
ATOM     27  C   UNL     1       2.240   2.482   1.103  0.00  0.00    +0.002 A 
ENDBRANCH  21  22
BRANCH  21  28
ATOM     28  N   UNL     1       2.459  -0.012  -0.197  0.00  0.00    +0.385 N 
ATOM     29  H   UNL     1       2.349  -0.947  -0.559  0.00  0.00    -0.081 HD
BRANCH  28  31
ATOM     30  C   UNL     1       0.074   0.443  -0.515  0.00  0.00    -0.017 C 
ATOM     31  C   UNL     1       1.500   0.884  -0.854  0.00  0.00    -0.081 C 
ENDBRANCH  28  31
BRANCH  28  32
ATOM     32  C   UNL     1       3.827   0.457  -0.459  0.00  0.00    -0.081 C 
ATOM     33  C   UNL     1       4.828  -0.587   0.039  0.00  0.00    -0.017 C 
ENDBRANCH  28  32
ENDBRANCH  21  28
ENDBRANCH  20  21
ENDBRANCH   1  20
TORSDOF 10
