REMARK  Name = ZINC35997706
REMARK  8 active torsions:
REMARK  status: ('A' for Active; 'I' for Inactive)
REMARK    1  A    between atoms: C_1  and  C_2
REMARK    2  A    between atoms: C_2  and  C_3
REMARK    3  A    between atoms: C_9  and  C_11
REMARK    4  A    between atoms: C_11  and  C_13
REMARK    5  A    between atoms: C_11  and  N_23
REMARK    6  A    between atoms: C_17  and  C_19
REMARK    7  A    between atoms: C_25  and  C_32
REMARK    8  A    between atoms: C_28  and  C_31
REMARK                            x       y       z     vdW  Elec       q    Type
REMARK                         _______ _______ _______ _____ _____    ______ ____
ROOT
ATOM      1  C   UNL     1      -6.961  -2.571  -0.749  0.00  0.00    +0.006 C 
ENDROOT
BRANCH   1   8
ATOM      2  C   UNL     1      -1.412  -0.526   0.013  0.00  0.00    +0.152 A 
ATOM      3  N   UNL     1      -2.127  -0.793   1.104  0.00  0.00    -0.205 NA
ATOM      4  C   UNL     1      -3.306  -1.227   0.751  0.00  0.00    +0.199 A 
ATOM      5  N   UNL     1      -3.395  -1.255  -0.607  0.00  0.00    -0.170 N 
ATOM      6  N   UNL     1      -2.131  -0.782  -1.047  0.00  0.00    -0.146 NA
ATOM      7  C   UNL     1      -4.579  -1.691  -1.151  0.00  0.00    +0.282 A 
ATOM      8  C   UNL     1      -5.593  -2.068  -0.364  0.00  0.00    +0.050 A 
ATOM      9  S   UNL     1      -4.901  -1.817   1.264  0.00  0.00    -0.050 S 
ATOM     10  O   UNL     1      -4.722  -1.740  -2.503  0.00  0.00    -0.265 OA
BRANCH   2  12
ATOM     11  C   UNL     1      -0.019   1.526   0.010  0.00  0.00    +0.012 C 
ATOM     12  C   UNL     1       0.002  -0.004   0.002  0.00  0.00    +0.075 C 
ENDBRANCH   2  12
ENDBRANCH   1   8
BRANCH   1  13
ATOM     13  N   UNL     1      -7.987  -1.742  -0.102  0.00  0.00    +0.388 N 
ATOM     14  C   UNL     1      -9.318  -2.239  -0.471  0.00  0.00    -0.074 C 
ATOM     15  C   UNL     1     -10.390  -1.430   0.264  0.00  0.00    -0.031 C 
ATOM     16  C   UNL     1     -10.267   0.045  -0.127  0.00  0.00    +0.003 C 
ATOM     17  C   UNL     1      -8.851   0.532   0.194  0.00  0.00    -0.031 C 
ATOM     18  C   UNL     1      -7.836  -0.349  -0.539  0.00  0.00    -0.074 C 
ATOM     19  C   UNL     1      -8.693   1.983  -0.264  0.00  0.00    +0.005 C 
ATOM     20  C   UNL     1     -10.194  -1.577   1.774  0.00  0.00    +0.005 C 
ATOM     21  H   UNL     1      -7.877  -1.794   0.900  0.00  0.00    -0.080 HD
ENDBRANCH   1  13
BRANCH   1  22
ATOM     22  C   UNL     1      -7.114  -4.002  -0.301  0.00  0.00    -0.055 A 
ATOM     23  C   UNL     1      -7.425  -4.284   1.016  0.00  0.00    +0.002 A 
ATOM     24  C   UNL     1      -7.566  -5.597   1.426  0.00  0.00    +0.001 A 
ATOM     25  C   UNL     1      -7.397  -6.626   0.519  0.00  0.00    +0.012 A 
ATOM     26  C   UNL     1      -7.087  -6.344  -0.798  0.00  0.00    +0.055 A 
ATOM     27  C   UNL     1      -6.950  -5.031  -1.209  0.00  0.00    +0.014 A 
BRANCH  26  28
ATOM     28  C   UNL     1      -6.902  -7.466  -1.786  0.00  0.00    +0.417 C 
ATOM     29  F   UNL     1      -7.093  -8.693  -1.140  0.00  0.00    -0.166 F 
ATOM     30  F   UNL     1      -7.834  -7.335  -2.821  0.00  0.00    -0.166 F 
ATOM     31  F   UNL     1      -5.608  -7.414  -2.314  0.00  0.00    -0.166 F 
ENDBRANCH  26  28
ENDBRANCH   1  22
TORSDOF 5
