REMARK  Name = ZINC02978866
REMARK  4 active torsions:
REMARK  status: ('A' for Active; 'I' for Inactive)
REMARK    1  A    between atoms: C_1  and  C_2
REMARK    2  A    between atoms: C_7  and  N_8
REMARK    3  A    between atoms: C_12  and  C_13
REMARK    4  A    between atoms: N_17  and  C_18
REMARK                            x       y       z     vdW  Elec       q    Type
REMARK                         _______ _______ _______ _____ _____    ______ ____
ROOT
ATOM      1  N   UNL     1       0.529  -0.148  -1.286  0.00  0.00    -0.190 N 
ATOM      2  C   UNL     1       0.366   1.111  -0.831  0.00  0.00    +0.264 C 
ATOM      3  O   UNL     1      -0.735   1.526  -0.523  0.00  0.00    -0.269 OA
ATOM      4  C   UNL     1       1.557   1.971  -0.723  0.00  0.00    +0.102 C 
ATOM      5  C   UNL     1       1.466   3.280  -0.262  0.00  0.00    +0.044 C 
ATOM      6  C   UNL     1       2.847   1.385  -1.125  0.00  0.00    +0.257 C 
ATOM      7  O   UNL     1       3.874   2.034  -1.063  0.00  0.00    -0.270 OA
ATOM      8  N   UNL     1       2.859   0.109  -1.562  0.00  0.00    -0.235 N 
ATOM      9  C   UNL     1       1.735  -0.617  -1.635  0.00  0.00    +0.320 C 
ATOM     10  O   UNL     1       1.814  -1.761  -2.039  0.00  0.00    -0.251 OA
ATOM     11  H   UNL     1       3.701  -0.292  -1.831  0.00  0.00    +0.159 HD
ENDROOT
BRANCH   1  18
ATOM     12  C   UNL     1      -0.172  -1.763   0.950  0.00  0.00    +0.045 C 
ATOM     13  C   UNL     1      -0.966  -1.790  -0.331  0.00  0.00    -0.029 A 
ATOM     14  C   UNL     1      -2.071  -2.611  -0.442  0.00  0.00    +0.005 A 
ATOM     15  C   UNL     1      -2.797  -2.639  -1.619  0.00  0.00    +0.000 A 
ATOM     16  C   UNL     1      -2.421  -1.843  -2.686  0.00  0.00    +0.002 A 
ATOM     17  C   UNL     1      -1.320  -1.017  -2.579  0.00  0.00    +0.024 A 
ATOM     18  C   UNL     1      -0.590  -0.986  -1.398  0.00  0.00    +0.049 A 
ENDBRANCH   1  18
BRANCH   5  19
ATOM     19  C   UNL     1       2.634   4.020  -0.018  0.00  0.00    +0.047 A 
ATOM     20  C   UNL     1       2.966   5.246  -0.585  0.00  0.00    +0.027 A 
ATOM     21  C   UNL     1       4.204   5.616  -0.062  0.00  0.00    +0.020 A 
ATOM     22  C   UNL     1       4.611   4.638   0.789  0.00  0.00    +0.092 A 
ATOM     23  N   UNL     1       3.669   3.663   0.826  0.00  0.00    -0.316 N 
BRANCH  23  24
ATOM     24  C   UNL     1       3.734   2.491   1.590  0.00  0.00    +0.047 A 
ATOM     25  C   UNL     1       2.689   2.157   2.441  0.00  0.00    +0.027 A 
ATOM     26  C   UNL     1       2.754   0.998   3.190  0.00  0.00    +0.022 A 
ATOM     27  C   UNL     1       3.864   0.176   3.100  0.00  0.00    +0.041 A 
ATOM     28  C   UNL     1       4.909   0.509   2.256  0.00  0.00    +0.022 A 
ATOM     29  C   UNL     1       4.846   1.664   1.501  0.00  0.00    +0.027 A 
ATOM     30 CL   UNL     1       3.945  -1.276   4.048  0.00  0.00    -0.084 Cl
ENDBRANCH  23  24
ENDBRANCH   5  19
TORSDOF 3
