REMARK  Name = ZINC13037087
REMARK  7 active torsions:
REMARK  status: ('A' for Active; 'I' for Inactive)
REMARK    1  A    between atoms: C_1  and  C_2
REMARK    2  A    between atoms: C_2  and  C_3
REMARK    3  A    between atoms: C_2  and  N_48
REMARK    4  A    between atoms: C_6  and  N_9
REMARK    5  A    between atoms: N_9  and  C_10
REMARK    6  A    between atoms: N_13  and  C_18
REMARK    7  A    between atoms: C_21  and  C_24
REMARK                            x       y       z     vdW  Elec       q    Type
REMARK                         _______ _______ _______ _____ _____    ______ ____
ROOT
ATOM      1  C   UNL     1      -7.350   5.264   0.062  0.00  0.00    +0.071 A 
ATOM      2  C   UNL     1      -7.287   3.859  -0.051  0.00  0.00    +0.158 A 
ATOM      3  N   UNL     1      -6.135   3.249  -0.062  0.00  0.00    -0.170 NA
ATOM      4  N   UNL     1      -4.939   3.965   0.048  0.00  0.00    -0.195 N 
ATOM      5  C   UNL     1      -4.952   5.308   0.158  0.00  0.00    +0.292 A 
ATOM      6  O   UNL     1      -3.904   5.928   0.249  0.00  0.00    -0.264 OA
ATOM      7  C   UNL     1      -6.178   5.990   0.167  0.00  0.00    +0.129 A 
ATOM      8 CL   UNL     1      -6.222   7.720   0.306  0.00  0.00    -0.076 Cl
ENDROOT
BRANCH   4   9
ATOM      9  C   UNL     1      -3.721   3.284   0.038  0.00  0.00    +0.069 A 
ATOM     10  C   UNL     1      -2.762   3.563   1.007  0.00  0.00    +0.029 A 
ATOM     11  C   UNL     1      -1.559   2.893   1.001  0.00  0.00    +0.017 A 
ATOM     12  C   UNL     1      -1.302   1.930   0.020  0.00  0.00    +0.063 A 
ATOM     13  C   UNL     1      -2.266   1.656  -0.954  0.00  0.00    +0.017 A 
ATOM     14  C   UNL     1      -3.469   2.327  -0.939  0.00  0.00    +0.029 A 
BRANCH  12  15
ATOM     15  C   UNL     1      -0.015   1.210   0.010  0.00  0.00    +0.387 C 
ATOM     16  O   UNL     1       0.824   1.453   0.855  0.00  0.00    -0.241 OA
ATOM     17  O   UNL     1       0.229   0.279  -0.932  0.00  0.00    -0.241 OA
ENDBRANCH  12  15
ENDBRANCH   4   9
BRANCH   1  18
ATOM     18  N   UNL     1      -8.575   5.911   0.068  0.00  0.00    -0.339 N 
ATOM     19  H   UNL     1      -8.613   6.877   0.146  0.00  0.00    +0.146 HD
BRANCH  18  22
ATOM     20  C   UNL     1     -12.268   5.133   0.413  0.00  0.00    -0.077 C 
ATOM     21  C   UNL     1     -10.967   5.920   0.587  0.00  0.00    +0.003 C 
ATOM     22  C   UNL     1      -9.813   5.135  -0.043  0.00  0.00    +0.067 C 
ATOM     23  C   UNL     1     -10.125   4.879  -1.520  0.00  0.00    +0.003 C 
ATOM     24  C   UNL     1     -11.451   4.123  -1.633  0.00  0.00    -0.077 C 
ATOM     25  N   UNL     1     -12.524   4.942  -1.030  0.00  0.00    +0.381 N 
ATOM     26  H   UNL     1     -12.541   5.860  -1.489  0.00  0.00    -0.081 HD
BRANCH  25  28
ATOM     27  C   UNL     1     -14.062   4.074  -2.725  0.00  0.00    -0.014 C 
ATOM     28  C   UNL     1     -13.832   4.284  -1.227  0.00  0.00    -0.075 C 
ATOM     29  C   UNL     1     -13.868   2.932  -0.512  0.00  0.00    -0.014 C 
ENDBRANCH  25  28
ENDBRANCH  18  22
ENDBRANCH   1  18
TORSDOF 5
