REMARK  Name = ZINC39665995
REMARK  11 active torsions:
REMARK  status: ('A' for Active; 'I' for Inactive)
REMARK    1  A    between atoms: C_1  and  C_2
REMARK    2  A    between atoms: C_2  and  O_3
REMARK    3  A    between atoms: O_3  and  C_4
REMARK    4  A    between atoms: C_7  and  C_10
REMARK    5  A    between atoms: C_14  and  C_23
REMARK    6  A    between atoms: N_25  and  C_26
REMARK    7  A    between atoms: C_26  and  C_27
REMARK    8  A    between atoms: C_27  and  C_29
REMARK    9  A    between atoms: C_27  and  O_30
REMARK   10  A    between atoms: O_30  and  C_31
REMARK   11  A    between atoms: C_34  and  C_37
REMARK                            x       y       z     vdW  Elec       q    Type
REMARK                         _______ _______ _______ _____ _____    ______ ____
ROOT
ATOM      1  C   UNL     1       1.105  -5.944   1.743  0.00  0.00    +0.247 C 
ATOM      2  O   UNL     1       1.046  -4.740   1.589  0.00  0.00    -0.270 OA
ATOM      3  N   UNL     1       1.665  -6.455   2.857  0.00  0.00    -0.296 N 
ATOM      4  C   UNL     1       2.190  -5.718   4.030  0.00  0.00    +0.121 C 
ATOM      5  C   UNL     1       1.766  -6.569   5.248  0.00  0.00    +0.100 C 
ATOM      6  C   UNL     1       1.577  -7.988   4.688  0.00  0.00    -0.004 C 
ATOM      7  C   UNL     1       1.890  -7.883   3.188  0.00  0.00    +0.115 C 
ATOM      8  C   UNL     1       2.542  -8.956   5.364  0.00  0.00    -0.010 C 
ATOM      9  C   UNL     1       2.295 -10.371   4.833  0.00  0.00    -0.082 C 
ATOM     10  N   UNL     1       0.907 -10.763   5.106  0.00  0.00    +0.379 N 
ATOM     11  C   UNL     1      -0.014  -9.883   4.377  0.00  0.00    -0.082 C 
ATOM     12  C   UNL     1       0.136  -8.447   4.889  0.00  0.00    -0.010 C 
ATOM     13  H   UNL     1       0.764 -11.717   4.810  0.00  0.00    -0.086 HD
ATOM     14  H   UNL     1       0.727 -10.690   6.096  0.00  0.00    -0.086 HD
ENDROOT
BRANCH   1  18
ATOM     15  C   UNL     1      -0.456  -8.543  -1.232  0.00  0.00    +0.121 A 
ATOM     16  C   UNL     1       0.668  -8.917  -0.505  0.00  0.00    +0.046 A 
ATOM     17  C   UNL     1       1.177  -8.078   0.460  0.00  0.00    +0.016 A 
ATOM     18  C   UNL     1       0.562  -6.847   0.709  0.00  0.00    +0.037 A 
ATOM     19  C   UNL     1      -0.567  -6.475  -0.025  0.00  0.00    +0.016 A 
ATOM     20  C   UNL     1      -1.067  -7.318  -0.991  0.00  0.00    +0.046 A 
BRANCH  15  21
ATOM     21  O   UNL     1      -0.955  -9.373  -2.182  0.00  0.00    -0.492 OA
BRANCH  21  23
ATOM     22  C   UNL     1      -0.980 -11.412  -3.481  0.00  0.00    +0.048 C 
ATOM     23  C   UNL     1      -0.278 -10.617  -2.377  0.00  0.00    +0.225 C 
ENDBRANCH  21  23
ENDBRANCH  15  21
ENDBRANCH   1  18
BRANCH   5  24
ATOM     24  C   UNL     1       0.473  -6.052   5.824  0.00  0.00    +0.218 C 
ATOM     25  O   UNL     1      -0.377  -5.592   5.091  0.00  0.00    -0.275 OA
ATOM     26  N   UNL     1       0.260  -6.102   7.154  0.00  0.00    -0.312 N 
ATOM     27  H   UNL     1       0.940  -6.470   7.740  0.00  0.00    +0.149 HD
BRANCH  26  28
ATOM     28  C   UNL     1      -0.997  -5.600   7.714  0.00  0.00    +0.148 C 
BRANCH  28  29
ATOM     29  C   UNL     1      -0.983  -5.772   9.234  0.00  0.00    +0.187 C 
ATOM     30  C   UNL     1      -2.342  -5.365   9.806  0.00  0.00    +0.053 C 
BRANCH  29  31
ATOM     31  O   UNL     1       0.038  -4.947   9.797  0.00  0.00    -0.488 OA
BRANCH  31  32
ATOM     32  C   UNL     1       0.538  -5.321  11.005  0.00  0.00    +0.121 A 
ATOM     33  C   UNL     1       0.130  -6.511  11.587  0.00  0.00    +0.046 A 
ATOM     34  C   UNL     1       0.640  -6.890  12.814  0.00  0.00    +0.007 A 
ATOM     35  C   UNL     1       1.556  -6.082  13.462  0.00  0.00    -0.050 A 
ATOM     36  C   UNL     1       1.964  -4.894  12.883  0.00  0.00    +0.007 A 
ATOM     37  C   UNL     1       1.462  -4.515  11.654  0.00  0.00    +0.046 A 
ATOM     38  C   UNL     1       2.111  -6.497  14.800  0.00  0.00    +0.044 C 
ENDBRANCH  31  32
ENDBRANCH  29  31
ENDBRANCH  28  29
ENDBRANCH  26  28
ENDBRANCH   5  24
TORSDOF 8
