REMARK  Name = ZINC63625878
REMARK  8 active torsions:
REMARK  status: ('A' for Active; 'I' for Inactive)
REMARK    1  A    between atoms: C_1  and  O_2
REMARK    2  A    between atoms: O_2  and  C_3
REMARK    3  A    between atoms: C_8  and  S_13
REMARK    4  A    between atoms: S_13  and  C_14
REMARK    5  A    between atoms: C_14  and  C_15
REMARK    6  A    between atoms: C_21  and  S_23
REMARK    7  A    between atoms: S_23  and  C_26
REMARK    8  A    between atoms: C_29  and  N_32
REMARK                            x       y       z     vdW  Elec       q    Type
REMARK                         _______ _______ _______ _____ _____    ______ ____
ROOT
ATOM      1  C   UNL     1      -1.268  -4.442  -6.161  0.00  0.00    +0.229 C 
ATOM      2  O   UNL     1      -0.932  -5.438  -6.765  0.00  0.00    -0.275 OA
ATOM      3  N   UNL     1      -2.473  -3.886  -6.395  0.00  0.00    -0.264 N 
ATOM      4  C   UNL     1      -3.331  -4.454  -7.330  0.00  0.00    +0.166 A 
ATOM      5  N   UNL     1      -3.141  -5.525  -8.069  0.00  0.00    -0.231 NA
ATOM      6  C   UNL     1      -4.061  -5.941  -8.919  0.00  0.00    +0.148 A 
ATOM      7  C   UNL     1      -5.204  -5.214  -8.993  0.00  0.00    +0.152 A 
ATOM      8  S   UNL     1      -4.868  -3.942  -7.787  0.00  0.00    -0.033 S 
ATOM      9  H   UNL     1      -2.742  -3.089  -5.912  0.00  0.00    +0.157 HD
ENDROOT
BRANCH   7  10
ATOM     10  S   UNL     1      -6.630  -5.462  -9.998  0.00  0.00    +0.033 S 
ATOM     11  O   UNL     1      -7.262  -4.196 -10.124  0.00  0.00    -0.164 OA
ATOM     12  O   UNL     1      -6.207  -6.218 -11.124  0.00  0.00    -0.164 OA
BRANCH  10  13
ATOM     13  C   UNL     1      -7.736  -6.489  -9.089  0.00  0.00    +0.094 A 
ATOM     14  C   UNL     1      -7.659  -7.864  -9.209  0.00  0.00    +0.029 A 
ATOM     15  C   UNL     1      -8.526  -8.670  -8.496  0.00  0.00    +0.034 A 
ATOM     16  C   UNL     1      -9.471  -8.101  -7.663  0.00  0.00    +0.126 A 
ATOM     17  C   UNL     1      -9.548  -6.726  -7.542  0.00  0.00    +0.034 A 
ATOM     18  C   UNL     1      -8.677  -5.920  -8.252  0.00  0.00    +0.029 A 
BRANCH  16  19
ATOM     19  N   UNL     1     -10.401  -8.963  -6.900  0.00  0.00    +0.056 N 
ATOM     20  O   UNL     1     -10.334 -10.166  -7.006  0.00  0.00    -0.126 OA
ATOM     21  O   UNL     1     -11.227  -8.466  -6.171  0.00  0.00    -0.126 OA
ENDBRANCH  16  19
ENDBRANCH  10  13
ENDBRANCH   7  10
BRANCH   1  22
ATOM     22  C   UNL     1      -0.339  -3.826  -5.147  0.00  0.00    +0.169 C 
BRANCH  22  23
ATOM     23  S   UNL     1       1.191  -4.797  -5.061  0.00  0.00    -0.106 S 
BRANCH  23  29
ATOM     24  C   UNL     1       0.605  -0.606  -1.054  0.00  0.00    +0.122 A 
ATOM     25  C   UNL     1       1.193   0.221  -2.099  0.00  0.00    +0.048 A 
ATOM     26  C   UNL     1       1.804  -0.317  -3.171  0.00  0.00    +0.031 A 
ATOM     27  C   UNL     1       1.890  -1.778  -3.307  0.00  0.00    +0.061 A 
ATOM     28  N   UNL     1       2.412  -2.544  -4.221  0.00  0.00    -0.355 N 
ATOM     29  C   UNL     1       2.188  -3.936  -3.814  0.00  0.00    +0.236 C 
ATOM     30  N   UNL     1       1.464  -3.883  -2.538  0.00  0.00    -0.355 N 
ATOM     31  C   UNL     1       1.289  -2.624  -2.240  0.00  0.00    +0.064 A 
ATOM     32  C   UNL     1       0.647  -1.960  -1.104  0.00  0.00    +0.073 A 
ATOM     33  H   UNL     1       2.866  -2.248  -5.026  0.00  0.00    +0.162 HD
ATOM     34  H   UNL     1       1.171  -4.644  -2.012  0.00  0.00    +0.162 HD
BRANCH  24  36
ATOM     35  C   UNL     1      -0.017   1.425   0.010  0.00  0.00    +0.277 C 
ATOM     36  O   UNL     1       0.002  -0.004   0.002  0.00  0.00    -0.495 OA
ENDBRANCH  24  36
ENDBRANCH  23  29
ENDBRANCH  22  23
ENDBRANCH   1  22
TORSDOF 7
