REMARK  Name = ZINC09444952
REMARK  8 active torsions:
REMARK  status: ('A' for Active; 'I' for Inactive)
REMARK    1  A    between atoms: C_1  and  C_2
REMARK    2  A    between atoms: C_4  and  C_32
REMARK    3  A    between atoms: N_9  and  N_10
REMARK    4  A    between atoms: N_10  and  C_11
REMARK    5  A    between atoms: C_11  and  N_13
REMARK    6  A    between atoms: N_13  and  C_14
REMARK    7  A    between atoms: C_17  and  S_20
REMARK    8  A    between atoms: S_20  and  N_23
REMARK                            x       y       z     vdW  Elec       q    Type
REMARK                         _______ _______ _______ _____ _____    ______ ____
ROOT
ATOM      1  C   UNL     1       4.352  -0.594   6.128  0.00  0.00    +0.154 C 
ATOM      2  S   UNL     1       4.298  -1.699   4.821  0.00  0.00    -0.017 S 
ENDROOT
BRANCH   1   3
ATOM      3  N   UNL     1       5.329  -0.689   7.051  0.00  0.00    -0.218 N 
ATOM      4  H   UNL     1       6.001  -1.384   6.976  0.00  0.00    +0.176 HD
BRANCH   3  13
ATOM      5  C   UNL     1       4.782   4.319  11.228  0.00  0.00    +0.044 C 
ATOM      6  C   UNL     1       5.644   3.083  11.217  0.00  0.00    -0.050 A 
ATOM      7  C   UNL     1       6.499   2.826  12.275  0.00  0.00    +0.007 A 
ATOM      8  C   UNL     1       7.296   1.697  12.273  0.00  0.00    -0.046 A 
ATOM      9  C   UNL     1       7.248   0.809  11.213  0.00  0.00    -0.036 A 
ATOM     10  C   UNL     1       6.384   1.064  10.149  0.00  0.00    +0.001 A 
ATOM     11  C   UNL     1       5.583   2.208  10.154  0.00  0.00    +0.013 A 
ATOM     12  C   UNL     1       6.313   0.123   9.010  0.00  0.00    +0.067 C 
ATOM     13  N   UNL     1       5.372   0.215   8.120  0.00  0.00    -0.185 NA
ATOM     14  C   UNL     1       7.373  -0.955   8.922  0.00  0.00    +0.058 C 
ATOM     15  C   UNL     1       7.588  -1.507  10.332  0.00  0.00    +0.011 C 
ATOM     16  C   UNL     1       8.136  -0.405  11.234  0.00  0.00    +0.036 C 
ATOM     17  C   UNL     1       8.222   1.431  13.432  0.00  0.00    +0.044 C 
ENDBRANCH   3  13
ENDBRANCH   1   3
BRANCH   1  18
ATOM     18  N   UNL     1       3.417   0.371   6.232  0.00  0.00    -0.296 N 
ATOM     19  H   UNL     1       3.492   1.046   6.925  0.00  0.00    +0.154 HD
BRANCH  18  20
ATOM     20  C   UNL     1       2.339   0.400   5.342  0.00  0.00    +0.033 A 
ATOM     21  C   UNL     1       1.696  -0.779   4.989  0.00  0.00    +0.025 A 
ATOM     22  C   UNL     1       0.632  -0.747   4.109  0.00  0.00    +0.030 A 
ATOM     23  C   UNL     1       0.205   0.457   3.581  0.00  0.00    +0.106 A 
ATOM     24  C   UNL     1       0.846   1.633   3.927  0.00  0.00    +0.030 A 
ATOM     25  C   UNL     1       1.908   1.609   4.810  0.00  0.00    +0.025 A 
BRANCH  23  26
ATOM     26  S   UNL     1      -1.153   0.494   2.459  0.00  0.00    +0.061 S 
ATOM     27  O   UNL     1      -1.228  -0.797   1.871  0.00  0.00    -0.153 OA
ATOM     28  O   UNL     1      -1.009   1.677   1.686  0.00  0.00    -0.153 OA
BRANCH  26  29
ATOM     29  N   UNL     1      -2.529   0.683   3.362  0.00  0.00    -0.172 NA
ATOM     30  C   UNL     1      -3.047   2.023   3.681  0.00  0.00    +0.137 C 
ATOM     31  C   UNL     1      -4.535   2.066   3.316  0.00  0.00    +0.177 C 
ATOM     32  O   UNL     1      -5.204   0.963   3.933  0.00  0.00    -0.377 OA
ATOM     33  C   UNL     1      -4.747  -0.318   3.493  0.00  0.00    +0.177 C 
ATOM     34  C   UNL     1      -3.270  -0.484   3.867  0.00  0.00    +0.137 C 
ENDBRANCH  26  29
ENDBRANCH  23  26
ENDBRANCH  18  20
ENDBRANCH   1  18
TORSDOF 6
