REMARK  Name = ZINC13636395
REMARK  6 active torsions:
REMARK  status: ('A' for Active; 'I' for Inactive)
REMARK    1  A    between atoms: C_8  and  N_9
REMARK    2  A    between atoms: C_13  and  C_16
REMARK    3  A    between atoms: C_16  and  C_17
REMARK    4  A    between atoms: C_17  and  C_18
REMARK    5  A    between atoms: C_18  and  O_19
REMARK    6  A    between atoms: N_22  and  C_25
REMARK                            x       y       z     vdW  Elec       q    Type
REMARK                         _______ _______ _______ _____ _____    ______ ____
ROOT
ATOM      1  C   UNL     1      -0.068   1.363   0.280  0.00  0.00    +0.001 A 
ATOM      2  C   UNL     1       1.108   2.099   0.306  0.00  0.00    +0.001 A 
ATOM      3  C   UNL     1       2.333   1.470   0.238  0.00  0.00    +0.014 A 
ATOM      4  C   UNL     1       2.391   0.079   0.142  0.00  0.00    +0.046 A 
ATOM      5  C   UNL     1       1.193  -0.665   0.117  0.00  0.00    +0.000 A 
ATOM      6  C   UNL     1      -0.033  -0.013   0.186  0.00  0.00    +0.009 A 
ATOM      7  C   UNL     1       1.287  -2.136   0.015  0.00  0.00    +0.059 C 
ATOM      8  C   UNL     1       0.154  -2.919  -0.016  0.00  0.00    +0.088 C 
ATOM      9  C   UNL     1       2.624  -2.738  -0.054  0.00  0.00    +0.259 C 
ATOM     10  O   UNL     1       2.737  -3.947  -0.139  0.00  0.00    -0.269 OA
ATOM     11  N   UNL     1       3.724  -1.968  -0.025  0.00  0.00    -0.201 N 
ATOM     12  C   UNL     1       3.675  -0.629   0.068  0.00  0.00    +0.258 C 
ATOM     13  O   UNL     1       4.711   0.007   0.089  0.00  0.00    -0.269 OA
ENDROOT
BRANCH   8  14
ATOM     14  N   UNL     1      -1.011  -2.410  -0.499  0.00  0.00    -0.290 N 
ATOM     15  C   UNL     1      -2.184  -3.146  -0.398  0.00  0.00    +0.218 A 
ATOM     16  N   UNL     1      -2.320  -4.382   0.163  0.00  0.00    -0.313 N 
ATOM     17  H   UNL     1      -1.623  -4.921   0.568  0.00  0.00    +0.170 HD
ATOM     18  C   UNL     1      -3.641  -4.704   0.035  0.00  0.00    +0.132 A 
ATOM     19  N   UNL     1      -4.227  -3.706  -0.566  0.00  0.00    -0.133 NA
ATOM     20  N   UNL     1      -3.372  -2.780  -0.819  0.00  0.00    -0.113 NA
ATOM     21  H   UNL     1      -1.023  -1.534  -0.915  0.00  0.00    +0.154 HD
BRANCH  18  22
ATOM     22  C   UNL     1      -4.299  -5.976   0.502  0.00  0.00    +0.078 C 
BRANCH  22  23
ATOM     23  C   UNL     1      -5.473  -5.636   1.423  0.00  0.00    +0.035 C 
BRANCH  23  24
ATOM     24  C   UNL     1      -6.141  -6.928   1.897  0.00  0.00    +0.156 C 
BRANCH  24  25
ATOM     25  O   UNL     1      -7.237  -6.609   2.757  0.00  0.00    -0.395 OA
ATOM     26  H   UNL     1      -7.708  -7.383   3.096  0.00  0.00    +0.209 HD
ENDBRANCH  24  25
ENDBRANCH  23  24
ENDBRANCH  22  23
ENDBRANCH  18  22
ENDBRANCH   8  14
BRANCH  11  27
ATOM     27  C   UNL     1       4.978  -2.589  -0.094  0.00  0.00    +0.063 A 
ATOM     28  C   UNL     1       5.578  -2.811  -1.326  0.00  0.00    +0.025 A 
ATOM     29  C   UNL     1       6.815  -3.424  -1.390  0.00  0.00    +0.002 A 
ATOM     30  C   UNL     1       7.455  -3.817  -0.229  0.00  0.00    +0.002 A 
ATOM     31  C   UNL     1       6.861  -3.597   1.000  0.00  0.00    +0.022 A 
ATOM     32  C   UNL     1       5.627  -2.979   1.072  0.00  0.00    +0.063 A 
ATOM     33 CL   UNL     1       4.884  -2.698   2.615  0.00  0.00    -0.082 Cl
ENDBRANCH  11  27
TORSDOF 6
