REMARK  Name = ZINC08789753
REMARK  13 active torsions:
REMARK  status: ('A' for Active; 'I' for Inactive)
REMARK    1  A    between atoms: C_1  and  C_2
REMARK    2  A    between atoms: C_2  and  O_3
REMARK    3  A    between atoms: O_3  and  C_4
REMARK    4  A    between atoms: C_5  and  C_12
REMARK    5  A    between atoms: C_9  and  O_10
REMARK    6  A    between atoms: O_10  and  C_11
REMARK    7  A    between atoms: N_19  and  C_34
REMARK    8  A    between atoms: C_22  and  C_33
REMARK    9  A    between atoms: C_34  and  C_35
REMARK   10  A    between atoms: C_35  and  C_36
REMARK   11  A    between atoms: C_36  and  C_37
REMARK   12  A    between atoms: C_37  and  C_38
REMARK   13  A    between atoms: C_38  and  O_39
REMARK                            x       y       z     vdW  Elec       q    Type
REMARK                         _______ _______ _______ _____ _____    ______ ____
ROOT
ATOM      1  C   UNL     1       0.438  -0.164   7.147  0.00  0.00    +0.072 C 
ATOM      2  C   UNL     1       1.638  -0.134   6.193  0.00  0.00    +0.122 C 
ATOM      3  N   UNL     1       1.164   0.227   4.844  0.00  0.00    -0.280 N 
ATOM      4  C   UNL     1       1.572   1.372   4.290  0.00  0.00    +0.234 C 
ATOM      5  O   UNL     1       2.432   2.005   4.865  0.00  0.00    -0.274 OA
ATOM      6  C   UNL     1       1.037   1.923   3.009  0.00  0.00    +0.203 C 
ATOM      7  N   UNL     1      -0.020   1.094   2.454  0.00  0.00    -0.291 N 
ATOM      8  C   UNL     1      -0.385  -0.081   2.968  0.00  0.00    +0.245 C 
ATOM      9  O   UNL     1      -1.288  -0.684   2.428  0.00  0.00    -0.273 OA
ATOM     10  C   UNL     1       0.257  -0.699   4.165  0.00  0.00    +0.151 C 
ATOM     11  C   UNL     1      -0.793  -1.137   5.159  0.00  0.00    +0.054 A 
ATOM     12  C   UNL     1      -0.701  -0.896   6.486  0.00  0.00    -0.008 A 
ATOM     13  C   UNL     1      -1.882  -1.467   7.101  0.00  0.00    +0.004 A 
ATOM     14  C   UNL     1      -2.327  -1.526   8.425  0.00  0.00    +0.010 A 
ATOM     15  C   UNL     1      -3.524  -2.159   8.650  0.00  0.00    +0.001 A 
ATOM     16  C   UNL     1      -4.266  -2.718   7.622  0.00  0.00    +0.002 A 
ATOM     17  C   UNL     1      -3.849  -2.675   6.303  0.00  0.00    +0.026 A 
ATOM     18  C   UNL     1      -2.638  -2.038   6.044  0.00  0.00    +0.047 A 
ATOM     19  N   UNL     1      -1.948  -1.819   4.886  0.00  0.00    -0.356 N 
ATOM     20  H   UNL     1      -2.234  -2.103   4.004  0.00  0.00    +0.166 HD
ATOM     21  C   UNL     1       1.051  -1.925   3.711  0.00  0.00    +0.048 C 
ENDROOT
BRANCH   1  23
ATOM     22  C   UNL     1       0.758  -0.204   9.632  0.00  0.00    +0.166 A 
ATOM     23  C   UNL     1       0.823  -0.873   8.420  0.00  0.00    +0.007 A 
ATOM     24  C   UNL     1       1.248  -2.188   8.377  0.00  0.00    +0.008 A 
ATOM     25  C   UNL     1       1.602  -2.841   9.543  0.00  0.00    +0.004 A 
ATOM     26  C   UNL     1       1.533  -2.182  10.756  0.00  0.00    +0.049 A 
ATOM     27  C   UNL     1       1.108  -0.864  10.806  0.00  0.00    +0.162 A 
BRANCH  27  28
ATOM     28  O   UNL     1       1.040  -0.214  11.999  0.00  0.00    -0.491 OA
ATOM     29  C   UNL     1       1.422  -0.952  13.162  0.00  0.00    +0.277 C 
ENDBRANCH  27  28
BRANCH  22  30
ATOM     30  O   UNL     1       0.346   1.091   9.675  0.00  0.00    -0.488 OA
BRANCH  30  32
ATOM     31  C   UNL     1      -1.324   2.827   9.868  0.00  0.00    +0.048 C 
ATOM     32  C   UNL     1      -1.054   1.321   9.844  0.00  0.00    +0.226 C 
ENDBRANCH  30  32
ENDBRANCH  22  30
ENDBRANCH   1  23
BRANCH   7  33
ATOM     33  C   UNL     1      -0.729   1.579   1.267  0.00  0.00    +0.108 C 
BRANCH  33  34
ATOM     34  C   UNL     1      -0.013   1.086   0.008  0.00  0.00    +0.019 C 
BRANCH  34  35
ATOM     35  C   UNL     1      -0.753   1.593  -1.232  0.00  0.00    +0.004 C 
BRANCH  35  36
ATOM     36  C   UNL     1      -0.037   1.099  -2.490  0.00  0.00    +0.028 C 
BRANCH  36  37
ATOM     37  C   UNL     1      -0.777   1.606  -3.730  0.00  0.00    +0.156 C 
BRANCH  37  38
ATOM     38  O   UNL     1      -0.108   1.145  -4.906  0.00  0.00    -0.395 OA
ATOM     39  H   UNL     1      -0.523   1.429  -5.731  0.00  0.00    +0.209 HD
ENDBRANCH  37  38
ENDBRANCH  36  37
ENDBRANCH  35  36
ENDBRANCH  34  35
ENDBRANCH  33  34
ENDBRANCH   7  33
TORSDOF 10
