REMARK  Name = ZINC23460724
REMARK  9 active torsions:
REMARK  status: ('A' for Active; 'I' for Inactive)
REMARK    1  A    between atoms: C_1  and  C_2
REMARK    2  A    between atoms: C_2  and  N_3
REMARK    3  A    between atoms: C_4  and  C_25
REMARK    4  A    between atoms: C_7  and  S_8
REMARK    5  A    between atoms: S_8  and  C_9
REMARK    6  A    between atoms: C_9  and  C_10
REMARK    7  A    between atoms: C_12  and  O_13
REMARK    8  A    between atoms: C_22  and  C_24
REMARK    9  A    between atoms: C_25  and  C_26
REMARK                            x       y       z     vdW  Elec       q    Type
REMARK                         _______ _______ _______ _____ _____    ______ ____
ROOT
ATOM      1  C   UNL     1       6.178  -1.123  -0.565  0.00  0.00    -0.020 A 
ATOM      2  C   UNL     1       6.691   0.084  -0.133  0.00  0.00    +0.092 A 
ATOM      3  C   UNL     1       7.737   0.103   0.779  0.00  0.00    +0.285 A 
ATOM      4  O   UNL     1       8.265  -1.028   1.257  0.00  0.00    -0.425 OA
ATOM      5  C   UNL     1       7.801  -2.234   0.868  0.00  0.00    +0.141 A 
ATOM      6  C   UNL     1       6.734  -2.314  -0.055  0.00  0.00    +0.022 A 
ATOM      7  C   UNL     1       6.245  -3.569  -0.458  0.00  0.00    +0.013 A 
ATOM      8  C   UNL     1       6.794  -4.705   0.044  0.00  0.00    +0.024 A 
ATOM      9  C   UNL     1       7.853  -4.635   0.968  0.00  0.00    +0.037 A 
ATOM     10  C   UNL     1       8.357  -3.397   1.370  0.00  0.00    +0.070 A 
ATOM     11  N   UNL     1       8.395  -5.781   1.464  0.00  0.00    -0.286 N 
ATOM     12  C   UNL     1       9.152  -5.738   2.543  0.00  0.00    +0.214 C 
ATOM     13  O   UNL     1       9.268  -4.697   3.166  0.00  0.00    -0.276 OA
ATOM     14  C   UNL     1       9.874  -6.978   3.006  0.00  0.00    +0.109 C 
ATOM     15  H   UNL     1       8.224  -6.628   1.024  0.00  0.00    +0.155 HD
ENDROOT
BRANCH   3  16
ATOM     16  O   UNL     1       8.229   1.287   1.193  0.00  0.00    -0.480 OA
ATOM     17  H   UNL     1       8.954   1.211   1.827  0.00  0.00    +0.295 HD
ENDBRANCH   3  16
BRANCH   1  18
ATOM     18  C   UNL     1       5.043  -1.166  -1.556  0.00  0.00    +0.113 C 
BRANCH  18  19
ATOM     19  S   UNL     1       3.495  -0.715  -0.722  0.00  0.00    -0.081 S 
BRANCH  19  24
ATOM     20  N   UNL     1       0.946  -0.560  -1.865  0.00  0.00    -0.306 N 
ATOM     21  C   UNL     1       0.409  -0.755  -3.108  0.00  0.00    +0.138 A 
ATOM     22  N   UNL     1       1.383  -1.103  -3.901  0.00  0.00    -0.133 NA
ATOM     23  N   UNL     1       2.490  -1.141  -3.250  0.00  0.00    -0.122 NA
ATOM     24  C   UNL     1       2.282  -0.811  -1.996  0.00  0.00    +0.192 A 
BRANCH  20  26
ATOM     25  C   UNL     1       0.111   1.366  -0.610  0.00  0.00    +0.027 C 
ATOM     26  C   UNL     1       0.236  -0.159  -0.648  0.00  0.00    +0.122 C 
ENDBRANCH  20  26
BRANCH  21  27
ATOM     27  C   UNL     1      -1.040  -0.597  -3.489  0.00  0.00    +0.111 C 
BRANCH  27  28
ATOM     28  C   UNL     1      -1.778  -1.878  -3.199  0.00  0.00    -0.040 A 
ATOM     29  C   UNL     1      -1.770  -2.905  -4.124  0.00  0.00    +0.004 A 
ATOM     30  C   UNL     1      -2.447  -4.081  -3.858  0.00  0.00    +0.000 A 
ATOM     31  C   UNL     1      -3.132  -4.229  -2.667  0.00  0.00    +0.000 A 
ATOM     32  C   UNL     1      -3.140  -3.203  -1.741  0.00  0.00    +0.000 A 
ATOM     33  C   UNL     1      -2.459  -2.029  -2.006  0.00  0.00    +0.004 A 
ENDBRANCH  27  28
ENDBRANCH  21  27
ENDBRANCH  19  24
ENDBRANCH  18  19
ENDBRANCH   1  18
TORSDOF 7
