REMARK  Name = ZINC32502372
REMARK  3 active torsions:
REMARK  status: ('A' for Active; 'I' for Inactive)
REMARK    1  A    between atoms: C_5  and  C_7
REMARK    2  A    between atoms: C_10  and  C_12
REMARK    3  A    between atoms: C_18  and  C_20
REMARK                            x       y       z     vdW  Elec       q    Type
REMARK                         _______ _______ _______ _____ _____    ______ ____
ROOT
ATOM      1  C   UNL     1       0.099   6.797  -1.196  0.00  0.00    +0.285 C 
ATOM      2  O   UNL     1       0.389   7.924  -0.840  0.00  0.00    -0.266 OA
ATOM      3  N   UNL     1      -0.767   6.614  -2.212  0.00  0.00    -0.257 N 
ATOM      4  C   UNL     1      -1.330   7.711  -2.852  0.00  0.00    +0.188 A 
ATOM      5  N   UNL     1      -1.159   9.007  -2.632  0.00  0.00    -0.126 NA
ATOM      6  N   UNL     1      -1.756   9.883  -3.317  0.00  0.00    -0.144 NA
ATOM      7  C   UNL     1      -2.585   9.567  -4.291  0.00  0.00    +0.107 A 
ATOM      8  S   UNL     1      -2.487   7.780  -4.216  0.00  0.00    -0.035 S 
ATOM      9  H   UNL     1      -1.029   5.595  -2.534  0.00  0.00    +0.157 HD
ENDROOT
BRANCH   7  10
ATOM     10  C   UNL     1      -3.383  10.455  -5.210  0.00  0.00    +0.047 C 
ATOM     11  C   UNL     1      -2.432  11.352  -6.005  0.00  0.00    +0.010 C 
ATOM     12  C   UNL     1      -3.242  12.254  -6.938  0.00  0.00    +0.001 C 
ATOM     13  C   UNL     1      -4.190  13.124  -6.110  0.00  0.00    +0.000 C 
ATOM     14  C   UNL     1      -5.141  12.228  -5.314  0.00  0.00    +0.001 C 
ATOM     15  C   UNL     1      -4.331  11.326  -4.381  0.00  0.00    +0.010 C 
ENDBRANCH   7  10
BRANCH   1  19
ATOM     16  C   UNL     1       1.173   3.563   0.009  0.00  0.00    +0.139 A 
ATOM     17  C   UNL     1       1.887   4.361   0.857  0.00  0.00    +0.051 A 
ATOM     18  C   UNL     1       1.587   5.686   0.526  0.00  0.00    +0.055 A 
ATOM     19  C   UNL     1       0.692   5.641  -0.521  0.00  0.00    +0.190 A 
ATOM     20  O   UNL     1       0.461   4.345  -0.820  0.00  0.00    -0.450 OA
BRANCH  16  25
ATOM     21  C   UNL     1       0.002  -0.004   0.002  0.00  0.00    +0.001 A 
ATOM     22  C   UNL     1       1.208  -0.684  -0.014  0.00  0.00    +0.003 A 
ATOM     23  C   UNL     1       2.402   0.012  -0.021  0.00  0.00    +0.039 A 
ATOM     24  C   UNL     1       2.400   1.394  -0.013  0.00  0.00    +0.134 A 
ATOM     25  C   UNL     1       1.185   2.087   0.002  0.00  0.00    +0.052 A 
ATOM     26  C   UNL     1      -0.017   1.375   0.010  0.00  0.00    +0.014 A 
ATOM     27  F   UNL     1       3.567   2.074  -0.019  0.00  0.00    -0.205 F 
ENDBRANCH  16  25
ENDBRANCH   1  19
TORSDOF 3
