REMARK  Name = ZINC39635883
REMARK  5 active torsions:
REMARK  status: ('A' for Active; 'I' for Inactive)
REMARK    1  A    between atoms: C_1  and  C_2
REMARK    2  A    between atoms: C_8  and  N_10
REMARK    3  A    between atoms: C_11  and  C_13
REMARK    4  A    between atoms: C_24  and  C_26
REMARK    5  A    between atoms: C_26  and  C_32
REMARK                            x       y       z     vdW  Elec       q    Type
REMARK                         _______ _______ _______ _____ _____    ______ ____
ROOT
ATOM      1  C   UNL     1       0.019   0.556   4.873  0.00  0.00    +0.100 C 
ATOM      2  C   UNL     1      -0.397   2.034   4.696  0.00  0.00    +0.121 C 
ATOM      3  N   UNL     1      -0.177   2.646   6.027  0.00  0.00    -0.300 N 
ATOM      4  C   UNL     1       1.082   2.032   6.513  0.00  0.00    +0.115 C 
ATOM      5  C   UNL     1       0.990   0.559   6.066  0.00  0.00    -0.004 C 
ATOM      6  C   UNL     1       2.363   0.054   5.631  0.00  0.00    -0.010 C 
ATOM      7  C   UNL     1       3.294   0.011   6.846  0.00  0.00    -0.082 C 
ATOM      8  N   UNL     1       2.725  -0.875   7.869  0.00  0.00    +0.379 N 
ATOM      9  C   UNL     1       1.449  -0.332   8.349  0.00  0.00    -0.082 C 
ATOM     10  C   UNL     1       0.440  -0.303   7.197  0.00  0.00    -0.010 C 
ATOM     11  C   UNL     1      -0.948   3.557   6.655  0.00  0.00    +0.222 C 
ATOM     12  O   UNL     1      -0.591   4.025   7.716  0.00  0.00    -0.275 OA
ATOM     13  H   UNL     1       2.572  -1.790   7.473  0.00  0.00    -0.086 HD
ATOM     14  H   UNL     1       3.369  -0.950   8.643  0.00  0.00    -0.086 HD
ENDROOT
BRANCH  11  15
ATOM     15  C   UNL     1      -2.252   3.993   6.039  0.00  0.00    +0.044 C 
ATOM     16  C   UNL     1      -1.998   4.514   4.623  0.00  0.00    +0.016 C 
ATOM     17  C   UNL     1      -1.039   5.704   4.682  0.00  0.00    +0.001 C 
ATOM     18  C   UNL     1      -1.658   6.816   5.531  0.00  0.00    +0.000 C 
ATOM     19  C   UNL     1      -1.911   6.295   6.947  0.00  0.00    +0.001 C 
ATOM     20  C   UNL     1      -2.871   5.105   6.889  0.00  0.00    +0.016 C 
ATOM     21  C   UNL     1      -3.211   2.802   5.980  0.00  0.00    +0.021 C 
ENDBRANCH  11  15
BRANCH   1  23
ATOM     22  N   UNL     1       0.780  -1.269   3.387  0.00  0.00    -0.312 N 
ATOM     23  C   UNL     1       0.713   0.054   3.633  0.00  0.00    +0.218 C 
ATOM     24  O   UNL     1       1.212   0.841   2.856  0.00  0.00    -0.275 OA
ATOM     25  H   UNL     1       0.381  -1.899   4.008  0.00  0.00    +0.149 HD
BRANCH  22  32
ATOM     26  C   UNL     1      -0.611  -3.004   1.530  0.00  0.00    +0.009 C 
ATOM     27  C   UNL     1       0.890  -3.127   1.800  0.00  0.00    +0.006 C 
ATOM     28  C   UNL     1       1.122  -4.112   2.948  0.00  0.00    +0.005 C 
ATOM     29  C   UNL     1       2.623  -4.235   3.219  0.00  0.00    +0.000 C 
ATOM     30  C   UNL     1       3.187  -2.865   3.599  0.00  0.00    +0.002 C 
ATOM     31  C   UNL     1       2.955  -1.881   2.451  0.00  0.00    +0.022 C 
ATOM     32  C   UNL     1       1.454  -1.757   2.181  0.00  0.00    +0.076 C 
ENDBRANCH  22  32
ENDBRANCH   1  23
TORSDOF 3
