REMARK  Name = ZINC45899503
REMARK  11 active torsions:
REMARK  status: ('A' for Active; 'I' for Inactive)
REMARK    1  A    between atoms: C_1  and  C_2
REMARK    2  A    between atoms: C_2  and  C_3
REMARK    3  A    between atoms: C_3  and  N_4
REMARK    4  A    between atoms: C_5  and  C_7
REMARK    5  A    between atoms: C_7  and  C_8
REMARK    6  A    between atoms: C_11  and  N_14
REMARK    7  A    between atoms: N_23  and  C_26
REMARK    8  A    between atoms: C_26  and  C_27
REMARK    9  A    between atoms: N_29  and  C_30
REMARK   10  A    between atoms: C_35  and  C_36
REMARK   11  A    between atoms: C_36  and  C_37
REMARK                            x       y       z     vdW  Elec       q    Type
REMARK                         _______ _______ _______ _____ _____    ______ ____
ROOT
ATOM      1  N   UNL     1       4.015  -5.987  -6.912  0.00  0.00    -0.228 N 
ATOM      2  C   UNL     1       3.273  -6.264  -8.007  0.00  0.00    +0.269 A 
ATOM      3  O   UNL     1       2.063  -6.153  -7.984  0.00  0.00    -0.266 OA
ATOM      4  C   UNL     1       3.970  -6.703  -9.229  0.00  0.00    +0.064 A 
ATOM      5  C   UNL     1       3.276  -7.007 -10.399  0.00  0.00    +0.015 A 
ATOM      6  C   UNL     1       3.974  -7.413 -11.516  0.00  0.00    +0.001 A 
ATOM      7  C   UNL     1       5.356  -7.520 -11.480  0.00  0.00    +0.002 A 
ATOM      8  C   UNL     1       6.056  -7.222 -10.328  0.00  0.00    +0.027 A 
ATOM      9  C   UNL     1       5.371  -6.811  -9.194  0.00  0.00    +0.059 A 
ATOM     10  N   UNL     1       6.035  -6.501  -8.016  0.00  0.00    -0.284 N 
ATOM     11  C   UNL     1       5.352  -6.100  -6.930  0.00  0.00    +0.337 A 
ATOM     12  O   UNL     1       5.972  -5.834  -5.919  0.00  0.00    -0.246 OA
ENDROOT
BRANCH   1  16
ATOM     13  C   UNL     1       2.114  -4.738  -3.420  0.00  0.00    -0.038 A 
ATOM     14  C   UNL     1       3.098  -3.950  -3.990  0.00  0.00    +0.006 A 
ATOM     15  C   UNL     1       3.729  -4.361  -5.147  0.00  0.00    +0.027 A 
ATOM     16  C   UNL     1       3.376  -5.567  -5.738  0.00  0.00    +0.054 A 
ATOM     17  C   UNL     1       2.389  -6.356  -5.163  0.00  0.00    +0.027 A 
ATOM     18  C   UNL     1       1.764  -5.941  -4.003  0.00  0.00    +0.006 A 
BRANCH  13  19
ATOM     19  C   UNL     1       1.427  -4.286  -2.157  0.00  0.00    +0.130 C 
BRANCH  19  21
ATOM     20  N   UNL     1       1.754  -4.517   0.284  0.00  0.00    -0.315 N 
ATOM     21  C   UNL     1       2.186  -4.799  -0.961  0.00  0.00    +0.217 C 
ATOM     22  O   UNL     1       3.187  -5.466  -1.118  0.00  0.00    -0.275 OA
ATOM     23  H   UNL     1       0.953  -3.983   0.410  0.00  0.00    +0.149 HD
BRANCH  20  24
ATOM     24  C   UNL     1       2.492  -5.016   1.447  0.00  0.00    +0.104 C 
BRANCH  24  26
ATOM     25  C   UNL     1       2.565  -5.078   3.944  0.00  0.00    +0.005 C 
ATOM     26  C   UNL     1       1.794  -4.557   2.729  0.00  0.00    +0.015 C 
ENDBRANCH  24  26
ENDBRANCH  20  24
ENDBRANCH  19  21
ENDBRANCH  13  19
ENDBRANCH   1  16
BRANCH  10  27
ATOM     27  C   UNL     1       7.495  -6.608  -7.957  0.00  0.00    +0.222 C 
BRANCH  27  28
ATOM     28  C   UNL     1       8.111  -5.292  -8.357  0.00  0.00    +0.237 C 
ATOM     29  O   UNL     1       7.401  -4.357  -8.662  0.00  0.00    -0.274 OA
ATOM     30  N   UNL     1       9.452  -5.154  -8.376  0.00  0.00    -0.284 N 
ATOM     31  H   UNL     1      10.021  -5.915  -8.183  0.00  0.00    +0.155 HD
BRANCH  30  32
ATOM     32  C   UNL     1      10.023  -3.911  -8.675  0.00  0.00    +0.037 A 
ATOM     33  C   UNL     1       9.323  -2.991  -9.445  0.00  0.00    +0.023 A 
ATOM     34  C   UNL     1       9.890  -1.766  -9.738  0.00  0.00    +0.002 A 
ATOM     35  C   UNL     1      11.152  -1.456  -9.266  0.00  0.00    +0.000 A 
ATOM     36  C   UNL     1      11.851  -2.369  -8.499  0.00  0.00    +0.005 A 
ATOM     37  C   UNL     1      11.287  -3.594  -8.197  0.00  0.00    -0.026 A 
BRANCH  37  38
ATOM     38  C   UNL     1      12.046  -4.587  -7.355  0.00  0.00    +0.033 C 
ATOM     39  C   UNL     1      12.796  -5.560  -8.267  0.00  0.00    +0.009 C 
ENDBRANCH  37  38
ENDBRANCH  30  32
ENDBRANCH  27  28
ENDBRANCH  10  27
TORSDOF 9
