REMARK  Name = ZINC39677735
REMARK  9 active torsions:
REMARK  status: ('A' for Active; 'I' for Inactive)
REMARK    1  A    between atoms: C_1  and  O_2
REMARK    2  A    between atoms: O_2  and  C_3
REMARK    3  A    between atoms: C_6  and  C_9
REMARK    4  A    between atoms: C_9  and  C_10
REMARK    5  A    between atoms: C_10  and  C_11
REMARK    6  A    between atoms: C_15  and  C_24
REMARK    7  A    between atoms: N_26  and  C_27
REMARK    8  A    between atoms: C_27  and  C_28
REMARK    9  A    between atoms: C_31  and  C_33
REMARK                            x       y       z     vdW  Elec       q    Type
REMARK                         _______ _______ _______ _____ _____    ______ ____
ROOT
ATOM      1  C   UNL     1       2.059  -3.271   6.491  0.00  0.00    +0.216 C 
ATOM      2  O   UNL     1       3.249  -3.454   6.347  0.00  0.00    -0.276 OA
ATOM      3  N   UNL     1       1.448  -3.674   7.623  0.00  0.00    -0.300 N 
ATOM      4  C   UNL     1       0.014  -3.546   7.975  0.00  0.00    +0.121 C 
ATOM      5  C   UNL     1      -0.333  -4.871   8.690  0.00  0.00    +0.100 C 
ATOM      6  C   UNL     1       1.012  -5.390   9.227  0.00  0.00    -0.004 C 
ATOM      7  C   UNL     1       2.056  -4.351   8.793  0.00  0.00    +0.115 C 
ATOM      8  C   UNL     1       0.968  -5.493  10.749  0.00  0.00    -0.010 C 
ATOM      9  C   UNL     1       2.295  -6.066  11.255  0.00  0.00    -0.082 C 
ATOM     10  N   UNL     1       2.516  -7.390  10.661  0.00  0.00    +0.379 N 
ATOM     11  C   UNL     1       2.650  -7.270   9.204  0.00  0.00    -0.082 C 
ATOM     12  C   UNL     1       1.338  -6.748   8.611  0.00  0.00    -0.010 C 
ATOM     13  H   UNL     1       3.360  -7.791  11.043  0.00  0.00    -0.086 HD
ATOM     14  H   UNL     1       1.734  -7.990  10.878  0.00  0.00    -0.086 HD
ENDROOT
BRANCH   5  15
ATOM     15  C   UNL     1      -0.925  -5.854   7.713  0.00  0.00    +0.218 C 
ATOM     16  O   UNL     1      -0.597  -5.822   6.545  0.00  0.00    -0.275 OA
ATOM     17  N   UNL     1      -1.819  -6.769   8.136  0.00  0.00    -0.310 N 
ATOM     18  H   UNL     1      -2.081  -6.795   9.070  0.00  0.00    +0.149 HD
BRANCH  17  19
ATOM     19  C   UNL     1      -2.394  -7.725   7.187  0.00  0.00    +0.146 C 
BRANCH  19  20
ATOM     20  C   UNL     1      -3.358  -8.632   7.908  0.00  0.00    +0.007 A 
ATOM     21  C   UNL     1      -4.692  -8.473   8.110  0.00  0.00    +0.013 A 
ATOM     22  C   UNL     1      -5.384  -9.439   8.806  0.00  0.00    +0.018 A 
ATOM     23  C   UNL     1      -4.702 -10.531   9.273  0.00  0.00    +0.038 A 
ATOM     24  S   UNL     1      -3.041 -10.195   8.711  0.00  0.00    -0.090 S 
BRANCH  23  25
ATOM     25  C   UNL     1      -5.210 -11.689  10.037  0.00  0.00    +0.078 A 
ATOM     26  C   UNL     1      -4.331 -12.703  10.423  0.00  0.00    +0.029 A 
ATOM     27  C   UNL     1      -4.822 -13.780  11.138  0.00  0.00    +0.004 A 
ATOM     28  C   UNL     1      -6.176 -13.811  11.445  0.00  0.00    +0.020 A 
ATOM     29  C   UNL     1      -6.990 -12.773  11.031  0.00  0.00    +0.111 A 
ATOM     30  N   UNL     1      -6.498 -11.755  10.356  0.00  0.00    -0.254 NA
ENDBRANCH  23  25
ENDBRANCH  19  20
ENDBRANCH  17  19
ENDBRANCH   5  15
BRANCH   1  31
ATOM     31  C   UNL     1       1.264  -2.594   5.405  0.00  0.00    +0.100 C 
BRANCH  31  32
ATOM     32  C   UNL     1       2.190  -2.241   4.239  0.00  0.00    +0.044 C 
BRANCH  32  36
ATOM     33  C   UNL     1      -0.064  -0.320   1.159  0.00  0.00    +0.120 A 
ATOM     34  C   UNL     1       0.527   0.436   2.161  0.00  0.00    +0.046 A 
ATOM     35  C   UNL     1       1.255  -0.188   3.156  0.00  0.00    +0.007 A 
ATOM     36  C   UNL     1       1.395  -1.563   3.153  0.00  0.00    -0.047 A 
ATOM     37  C   UNL     1       0.807  -2.318   2.155  0.00  0.00    +0.007 A 
ATOM     38  C   UNL     1       0.073  -1.700   1.161  0.00  0.00    +0.046 A 
BRANCH  33  40
ATOM     39  C   UNL     1      -0.880   1.716   0.240  0.00  0.00    +0.277 C 
ATOM     40  O   UNL     1      -0.781   0.291   0.179  0.00  0.00    -0.495 OA
ENDBRANCH  33  40
ENDBRANCH  32  36
ENDBRANCH  31  32
ENDBRANCH   1  31
TORSDOF 8
