REMARK  Name = ZINC09242519
REMARK  10 active torsions:
REMARK  status: ('A' for Active; 'I' for Inactive)
REMARK    1  A    between atoms: C_1  and  C_2
REMARK    2  A    between atoms: C_2  and  N_60
REMARK    3  A    between atoms: C_3  and  C_4
REMARK    4  A    between atoms: C_3  and  N_60
REMARK    5  A    between atoms: C_5  and  C_6
REMARK    6  A    between atoms: C_5  and  N_60
REMARK    7  A    between atoms: C_6  and  N_7
REMARK    8  A    between atoms: C_8  and  C_27
REMARK    9  A    between atoms: C_11  and  C_12
REMARK   10  A    between atoms: C_11  and  O_22
REMARK                            x       y       z     vdW  Elec       q    Type
REMARK                         _______ _______ _______ _____ _____    ______ ____
ROOT
ATOM      1  N   UNL     1       4.470  -4.328   0.245  0.00  0.00    -0.285 N 
ATOM      2  C   UNL     1       4.917  -2.942   0.079  0.00  0.00    +0.144 C 
ATOM      3  C   UNL     1       3.671  -2.088   0.033  0.00  0.00    +0.071 C 
ATOM      4  C   UNL     1       3.611  -0.715  -0.109  0.00  0.00    +0.133 C 
ATOM      5  C   UNL     1       2.588  -2.970   0.159  0.00  0.00    +0.249 C 
ATOM      6  O   UNL     1       1.411  -2.660   0.163  0.00  0.00    -0.282 OA
ATOM      7  C   UNL     1       3.127  -4.351   0.288  0.00  0.00    +0.288 C 
ATOM      8  O   UNL     1       2.452  -5.352   0.414  0.00  0.00    -0.266 OA
ENDROOT
BRANCH   4   9
ATOM      9  C   UNL     1       2.313  -0.053  -0.311  0.00  0.00    +0.021 A 
ATOM     10  C   UNL     1       1.491  -0.428  -1.380  0.00  0.00    +0.015 A 
ATOM     11  C   UNL     1       0.279   0.195  -1.566  0.00  0.00    +0.050 A 
ATOM     12  C   UNL     1      -0.136   1.198  -0.695  0.00  0.00    +0.162 A 
ATOM     13  C   UNL     1       0.676   1.575   0.373  0.00  0.00    +0.163 A 
ATOM     14  C   UNL     1       1.896   0.956   0.565  0.00  0.00    +0.061 A 
ATOM     15  O   UNL     1       0.281   2.549   1.238  0.00  0.00    -0.485 OA
ATOM     16  C   UNL     1      -0.779   3.407   0.800  0.00  0.00    +0.270 C 
ATOM     17  C   UNL     1      -1.887   2.533   0.198  0.00  0.00    +0.270 C 
ATOM     18  O   UNL     1      -1.334   1.805  -0.904  0.00  0.00    -0.485 OA
ENDBRANCH   4   9
BRANCH   2  19
ATOM     19  C   UNL     1       5.690  -2.797  -1.207  0.00  0.00    -0.021 A 
ATOM     20  C   UNL     1       5.285  -3.481  -2.338  0.00  0.00    +0.006 A 
ATOM     21  C   UNL     1       5.990  -3.344  -3.519  0.00  0.00    +0.002 A 
ATOM     22  C   UNL     1       7.107  -2.531  -3.567  0.00  0.00    +0.020 A 
ATOM     23  C   UNL     1       7.516  -1.851  -2.434  0.00  0.00    +0.041 A 
ATOM     24  C   UNL     1       6.807  -1.984  -1.254  0.00  0.00    +0.025 A 
ATOM     25 CL   UNL     1       8.920  -0.831  -2.493  0.00  0.00    -0.084 Cl
ENDBRANCH   2  19
BRANCH   4  26
ATOM     26  O   UNL     1       4.744   0.019  -0.064  0.00  0.00    -0.506 OA
ATOM     27  H   UNL     1       4.520   0.986  -0.184  0.00  0.00    +0.292 HD
ENDBRANCH   4  26
BRANCH   1  28
ATOM     28  C   UNL     1       5.344  -5.499   0.342  0.00  0.00    +0.090 C 
BRANCH  28  29
ATOM     29  C   UNL     1       5.605  -6.058  -1.059  0.00  0.00    -0.060 C 
BRANCH  29  30
ATOM     30  N   UNL     1       6.383  -7.309  -0.935  0.00  0.00    +0.380 N 
ATOM     31  H   UNL     1       7.184  -7.143  -0.314  0.00  0.00    -0.082 HD
BRANCH  30  33
ATOM     32  C   UNL     1       6.421  -9.582  -0.031  0.00  0.00    -0.017 C 
ATOM     33  C   UNL     1       5.539  -8.374  -0.355  0.00  0.00    -0.082 C 
ENDBRANCH  30  33
BRANCH  30  34
ATOM     34  C   UNL     1       6.883  -7.726  -2.261  0.00  0.00    -0.082 C 
ATOM     35  C   UNL     1       8.089  -6.858  -2.626  0.00  0.00    -0.017 C 
ENDBRANCH  30  34
ENDBRANCH  29  30
ENDBRANCH  28  29
ENDBRANCH   1  28
TORSDOF 8
