REMARK  Name = ZINC02512858
REMARK  4 active torsions:
REMARK  status: ('A' for Active; 'I' for Inactive)
REMARK    1  A    between atoms: C_3  and  S_11
REMARK    2  A    between atoms: C_4  and  N_8
REMARK    3  A    between atoms: S_11  and  N_14
REMARK    4  A    between atoms: N_14  and  C_15
REMARK                            x       y       z     vdW  Elec       q    Type
REMARK                         _______ _______ _______ _____ _____    ______ ____
ROOT
ATOM      1  S   UNL     1       1.219  -2.537   0.028  0.00  0.00    +0.061 S 
ATOM      2  O   UNL     1       0.456  -3.048  -1.056  0.00  0.00    -0.153 OA
ATOM      3  O   UNL     1       2.628  -2.703   0.113  0.00  0.00    -0.153 OA
ENDROOT
BRANCH   1   6
ATOM      4  C   UNL     1      -0.129   1.150  -0.828  0.00  0.00    +0.022 A 
ATOM      5  C   UNL     1       0.113  -0.210  -0.874  0.00  0.00    +0.032 A 
ATOM      6  C   UNL     1       0.912  -0.803   0.086  0.00  0.00    +0.135 A 
ATOM      7  C   UNL     1       1.470  -0.036   1.092  0.00  0.00    +0.154 A 
ATOM      8  C   UNL     1       1.229   1.324   1.139  0.00  0.00    +0.054 A 
ATOM      9  C   UNL     1       0.430   1.918   0.178  0.00  0.00    +0.043 A 
ATOM     10 CL   UNL     1       0.126   3.627   0.236  0.00  0.00    -0.083 Cl
BRANCH   7  11
ATOM     11  N   UNL     1       2.325  -0.671   2.119  0.00  0.00    +0.058 N 
ATOM     12  O   UNL     1       2.921   0.018   2.928  0.00  0.00    -0.126 OA
ATOM     13  O   UNL     1       2.433  -1.884   2.157  0.00  0.00    -0.126 OA
ENDBRANCH   7  11
ENDBRANCH   1   6
BRANCH   1  14
ATOM     14  N   UNL     1       0.581  -3.194   1.407  0.00  0.00    -0.187 NA
ATOM     15  H   UNL     1       1.257  -3.517   2.212  0.00  0.00    +0.148 HD
BRANCH  14  16
ATOM     16  C   UNL     1      -0.865  -3.143   1.642  0.00  0.00    +0.077 C 
ATOM     17  C   UNL     1      -1.191  -1.961   2.557  0.00  0.00    +0.020 C 
ATOM     18  C   UNL     1      -2.700  -1.907   2.802  0.00  0.00    +0.002 C 
ATOM     19  C   UNL     1      -3.156  -3.208   3.467  0.00  0.00    +0.000 C 
ATOM     20  C   UNL     1      -2.829  -4.390   2.552  0.00  0.00    +0.002 C 
ATOM     21  C   UNL     1      -1.320  -4.443   2.307  0.00  0.00    +0.020 C 
ENDBRANCH  14  16
ENDBRANCH   1  14
TORSDOF 4
