REMARK  Name = ZINC35448006
REMARK  6 active torsions:
REMARK  status: ('A' for Active; 'I' for Inactive)
REMARK    1  A    between atoms: C_1  and  C_2
REMARK    2  A    between atoms: C_5  and  O_20
REMARK    3  A    between atoms: C_6  and  N_8
REMARK    4  A    between atoms: C_9  and  C_11
REMARK    5  A    between atoms: O_20  and  C_21
REMARK    6  A    between atoms: C_21  and  C_22
REMARK                            x       y       z     vdW  Elec       q    Type
REMARK                         _______ _______ _______ _____ _____    ______ ____
ROOT
ATOM      1  C   UNL     1       0.017   1.511   0.025  0.00  0.00    +0.044 C 
ATOM      2  C   UNL     1       0.029   0.004   0.011  0.00  0.00    -0.048 A 
ATOM      3  C   UNL     1       0.036  -0.675  -1.193  0.00  0.00    +0.007 A 
ATOM      4  C   UNL     1       0.048  -2.057  -1.212  0.00  0.00    +0.048 A 
ATOM      5  C   UNL     1       0.053  -2.766  -0.022  0.00  0.00    +0.142 A 
ATOM      6  C   UNL     1       0.047  -2.083   1.192  0.00  0.00    +0.076 A 
ATOM      7  C   UNL     1       0.040  -0.695   1.203  0.00  0.00    +0.030 A 
ENDROOT
BRANCH   6   8
ATOM      8  N   UNL     1       0.051  -2.794   2.399  0.00  0.00    -0.279 N 
ATOM      9  C   UNL     1      -0.440  -2.227   3.518  0.00  0.00    +0.248 C 
ATOM     10  O   UNL     1      -0.979  -1.138   3.461  0.00  0.00    -0.270 OA
ATOM     11  H   UNL     1       0.408  -3.696   2.429  0.00  0.00    +0.155 HD
BRANCH   9  12
ATOM     12  C   UNL     1      -0.325  -2.926   4.812  0.00  0.00    +0.041 A 
ATOM     13  C   UNL     1       0.298  -4.175   4.880  0.00  0.00    +0.017 A 
ATOM     14  C   UNL     1       0.406  -4.826   6.089  0.00  0.00    +0.050 A 
ATOM     15  C   UNL     1      -0.104  -4.246   7.243  0.00  0.00    +0.166 A 
ATOM     16  C   UNL     1      -0.729  -3.000   7.182  0.00  0.00    +0.167 A 
ATOM     17  C   UNL     1      -0.834  -2.339   5.973  0.00  0.00    +0.062 A 
ATOM     18  O   UNL     1      -1.138  -2.655   8.438  0.00  0.00    -0.453 OA
ATOM     19  C   UNL     1      -1.124  -3.880   9.195  0.00  0.00    +0.466 C 
ATOM     20  O   UNL     1      -0.124  -4.679   8.536  0.00  0.00    -0.453 OA
ENDBRANCH   9  12
ENDBRANCH   6   8
BRANCH   5  21
ATOM     21  O   UNL     1       0.064  -4.126  -0.038  0.00  0.00    -0.484 OA
BRANCH  21  22
ATOM     22  C   UNL     1       0.070  -4.759  -1.320  0.00  0.00    +0.282 C 
BRANCH  22  23
ATOM     23  C   UNL     1       0.081  -6.255  -1.141  0.00  0.00    +0.061 A 
ATOM     24  C   UNL     1       0.079  -6.811   0.121  0.00  0.00    +0.095 A 
ATOM     25  C   UNL     1       0.091  -8.198   0.267  0.00  0.00    +0.259 A 
ATOM     26  O   UNL     1       0.088  -8.696   1.382  0.00  0.00    -0.267 OA
ATOM     27  N   UNL     1       0.103  -8.999  -0.841  0.00  0.00    -0.260 N 
ATOM     28  C   UNL     1       0.115 -10.387  -0.833  0.00  0.00    +0.039 A 
ATOM     29  C   UNL     1       0.126 -11.029  -2.007  0.00  0.00    +0.013 A 
ATOM     30  S   UNL     1       0.121  -9.721  -3.205  0.00  0.00    -0.056 S 
ATOM     31  C   UNL     1       0.104  -8.365  -2.051  0.00  0.00    +0.159 A 
ATOM     32  N   UNL     1       0.088  -7.063  -2.198  0.00  0.00    -0.336 N 
ATOM     33  C   UNL     1       0.140 -12.505  -2.249  0.00  0.00    +0.044 C 
ATOM     34  C   UNL     1       0.507 -13.208  -0.934  0.00  0.00    +0.006 C 
ATOM     35  C   UNL     1      -0.338 -12.606   0.193  0.00  0.00    +0.006 C 
ATOM     36  C   UNL     1       0.115 -11.174   0.476  0.00  0.00    +0.055 C 
ATOM     37  H   UNL     1       0.086  -6.683  -3.090  0.00  0.00    +0.168 HD
ENDBRANCH  22  23
ENDBRANCH  21  22
ENDBRANCH   5  21
TORSDOF 5
