REMARK  Name = ZINC32447317
REMARK  9 active torsions:
REMARK  status: ('A' for Active; 'I' for Inactive)
REMARK    1  A    between atoms: C_1  and  C_2
REMARK    2  A    between atoms: C_2  and  C_3
REMARK    3  A    between atoms: C_3  and  C_5
REMARK    4  A    between atoms: C_3  and  N_25
REMARK    5  A    between atoms: C_5  and  N_6
REMARK    6  A    between atoms: C_7  and  C_9
REMARK    7  A    between atoms: C_9  and  N_10
REMARK    8  A    between atoms: C_13  and  C_17
REMARK    9  A    between atoms: C_13  and  C_18
REMARK                            x       y       z     vdW  Elec       q    Type
REMARK                         _______ _______ _______ _____ _____    ______ ____
ROOT
ATOM      1  N   UNL     1       2.152  -3.457  -1.643  0.00  0.00    -0.316 N 
ATOM      2  C   UNL     1       1.549  -2.272  -1.428  0.00  0.00    +0.231 C 
ATOM      3  O   UNL     1       1.193  -1.593  -2.368  0.00  0.00    -0.274 OA
ATOM      4  H   UNL     1       2.475  -4.073  -0.790  0.00  0.00    +0.149 HD
ENDROOT
BRANCH   1   5
ATOM      5  C   UNL     1       2.379  -3.926  -3.012  0.00  0.00    +0.089 C 
BRANCH   5   6
ATOM      6  C   UNL     1       3.075  -5.288  -2.976  0.00  0.00    -0.051 C 
BRANCH   6   7
ATOM      7  N   UNL     1       2.285  -6.221  -2.161  0.00  0.00    +0.385 N 
ATOM      8  C   UNL     1       3.035  -7.460  -1.903  0.00  0.00    -0.073 C 
ATOM      9  C   UNL     1       2.340  -8.221  -0.773  0.00  0.00    +0.017 C 
ATOM     10  C   UNL     1       0.868  -8.351  -1.070  0.00  0.00    -0.048 A 
ATOM     11  C   UNL     1       0.132  -9.293  -0.366  0.00  0.00    +0.004 A 
ATOM     12  C   UNL     1      -1.220  -9.438  -0.601  0.00  0.00    +0.000 A 
ATOM     13  C   UNL     1      -1.845  -8.640  -1.542  0.00  0.00    +0.000 A 
ATOM     14  C   UNL     1      -1.113  -7.705  -2.245  0.00  0.00    +0.002 A 
ATOM     15  C   UNL     1       0.247  -7.558  -2.011  0.00  0.00    -0.061 A 
ATOM     16  C   UNL     1       1.004  -6.526  -2.805  0.00  0.00    -0.042 C 
ATOM     17  H   UNL     1       2.079  -5.729  -1.199  0.00  0.00    -0.081 HD
ENDBRANCH   6   7
BRANCH   6  19
ATOM     18  C   UNL     1       4.138  -4.938  -5.210  0.00  0.00    +0.002 C 
ATOM     19  C   UNL     1       3.200  -5.835  -4.400  0.00  0.00    -0.017 C 
ENDBRANCH   6  19
ENDBRANCH   5   6
ENDBRANCH   1   5
BRANCH   2  20
ATOM     20  C   UNL     1       1.315  -1.790  -0.019  0.00  0.00    +0.213 C 
BRANCH  20  21
ATOM     21  N   UNL     1       0.649  -0.485  -0.053  0.00  0.00    -0.215 N 
ATOM     22  C   UNL     1      -0.689  -0.319  -0.062  0.00  0.00    +0.251 C 
ATOM     23  O   UNL     1      -1.535  -1.187  -0.043  0.00  0.00    -0.272 OA
ATOM     24  C   UNL     1      -0.915   1.179  -0.099  0.00  0.00    +0.135 C 
ATOM     25  N   UNL     1       0.450   1.735  -0.108  0.00  0.00    -0.281 N 
ATOM     26  C   UNL     1       1.292   0.687  -0.080  0.00  0.00    +0.310 C 
ATOM     27  O   UNL     1       2.503   0.794  -0.078  0.00  0.00    -0.252 OA
ATOM     28  C   UNL     1      -1.667   1.579  -1.369  0.00  0.00    +0.047 C 
ATOM     29  H   UNL     1       0.599   2.825  -0.134  0.00  0.00    +0.152 HD
BRANCH  24  30
ATOM     30  C   UNL     1      -1.664   1.633   1.128  0.00  0.00    -0.015 A 
ATOM     31  C   UNL     1      -2.559   0.779   1.745  0.00  0.00    +0.009 A 
ATOM     32  C   UNL     1      -3.243   1.192   2.873  0.00  0.00    +0.039 A 
ATOM     33  C   UNL     1      -3.039   2.465   3.378  0.00  0.00    +0.123 A 
ATOM     34  C   UNL     1      -2.146   3.321   2.756  0.00  0.00    +0.039 A 
ATOM     35  C   UNL     1      -1.460   2.904   1.631  0.00  0.00    +0.009 A 
ATOM     36  F   UNL     1      -3.711   2.872   4.477  0.00  0.00    -0.205 F 
ENDBRANCH  24  30
ENDBRANCH  20  21
ENDBRANCH   2  20
TORSDOF 7
