REMARK  Name = ZINC41294505
REMARK  13 active torsions:
REMARK  status: ('A' for Active; 'I' for Inactive)
REMARK    1  A    between atoms: C_1  and  C_2
REMARK    2  A    between atoms: C_2  and  C_3
REMARK    3  A    between atoms: C_2  and  C_4
REMARK    4  A    between atoms: C_4  and  N_5
REMARK    5  A    between atoms: N_5  and  C_6
REMARK    6  A    between atoms: C_6  and  C_7
REMARK    7  A    between atoms: C_7  and  C_8
REMARK    8  A    between atoms: C_7  and  C_9
REMARK    9  A    between atoms: C_10  and  C_12
REMARK   10  A    between atoms: C_12  and  S_13
REMARK   11  A    between atoms: S_13  and  C_14
REMARK   12  A    between atoms: C_17  and  C_20
REMARK   13  A    between atoms: N_18  and  C_19
REMARK                            x       y       z     vdW  Elec       q    Type
REMARK                         _______ _______ _______ _____ _____    ______ ____
ROOT
ATOM      1  C   UNL     1      -1.438  -4.064  -1.468  0.00  0.00    +0.173 C 
ENDROOT
BRANCH   1   3
ATOM      2  N   UNL     1      -1.416  -1.993  -0.116  0.00  0.00    -0.300 N 
ATOM      3  C   UNL     1      -1.455  -2.562  -1.336  0.00  0.00    +0.226 C 
ATOM      4  O   UNL     1      -1.504  -1.867  -2.329  0.00  0.00    -0.275 OA
BRANCH   2   5
ATOM      5  C   UNL     1      -1.433  -0.534   0.013  0.00  0.00    +0.110 C 
BRANCH   5   7
ATOM      6  C   UNL     1      -0.019   1.526   0.010  0.00  0.00    +0.009 C 
ATOM      7  C   UNL     1       0.002  -0.004   0.002  0.00  0.00    +0.000 C 
ATOM      8  C   UNL     1       0.742  -0.511   1.242  0.00  0.00    +0.009 C 
ENDBRANCH   5   7
ENDBRANCH   2   5
BRANCH   2   9
ATOM      9  C   UNL     1      -1.358  -2.833   1.083  0.00  0.00    +0.110 C 
BRANCH   9  10
ATOM     10  C   UNL     1      -2.778  -3.147   1.556  0.00  0.00    +0.000 C 
ATOM     11  C   UNL     1      -2.720  -4.125   2.732  0.00  0.00    +0.009 C 
ATOM     12  C   UNL     1      -3.465  -1.854   2.001  0.00  0.00    +0.009 C 
ENDBRANCH   9  10
ENDBRANCH   2   9
ENDBRANCH   1   3
BRANCH   1  13
ATOM     13  S   UNL     1      -1.498  -4.517  -3.224  0.00  0.00    -0.077 S 
BRANCH  13  14
ATOM     14  C   UNL     1      -1.472  -6.279  -3.210  0.00  0.00    +0.192 A 
ATOM     15  N   UNL     1      -1.425  -7.049  -2.147  0.00  0.00    -0.122 NA
ATOM     16  N   UNL     1      -1.418  -8.286  -2.496  0.00  0.00    -0.125 NA
ATOM     17  C   UNL     1      -1.460  -8.382  -3.807  0.00  0.00    +0.200 A 
ATOM     18  N   UNL     1      -1.501  -7.098  -4.304  0.00  0.00    -0.303 N 
ATOM     19  C   UNL     1      -1.562  -6.695  -5.711  0.00  0.00    +0.153 C 
BRANCH  17  20
ATOM     20  C   UNL     1      -1.467  -9.626  -4.593  0.00  0.00    +0.172 A 
ATOM     21  C   UNL     1      -1.724 -10.874  -4.112  0.00  0.00    +0.053 A 
ATOM     22  C   UNL     1      -1.625 -11.757  -5.205  0.00  0.00    +0.042 A 
ATOM     23  C   UNL     1      -1.317 -11.015  -6.287  0.00  0.00    +0.196 A 
ATOM     24  O   UNL     1      -1.227  -9.727  -5.915  0.00  0.00    -0.460 OA
ENDBRANCH  17  20
ENDBRANCH  13  14
ENDBRANCH   1  13
TORSDOF 8
