REMARK  Name = ZINC63709341
REMARK  6 active torsions:
REMARK  status: ('A' for Active; 'I' for Inactive)
REMARK    1  A    between atoms: C_7  and  C_10
REMARK    2  A    between atoms: C_10  and  C_11
REMARK    3  A    between atoms: C_11  and  N_12
REMARK    4  A    between atoms: C_13  and  C_15
REMARK    5  A    between atoms: C_18  and  C_21
REMARK    6  A    between atoms: C_21  and  N_22
REMARK                            x       y       z     vdW  Elec       q    Type
REMARK                         _______ _______ _______ _____ _____    ______ ____
ROOT
ATOM      1  C   UNL     1      -1.752  -6.557  -2.622  0.00  0.00    +0.075 C 
ATOM      2  C   UNL     1      -1.139  -7.699  -1.807  0.00  0.00    +0.013 C 
ATOM      3  C   UNL     1       0.194  -8.113  -2.432  0.00  0.00    +0.006 C 
ATOM      4  C   UNL     1      -0.040  -8.581  -3.870  0.00  0.00    +0.007 C 
ATOM      5  C   UNL     1      -0.652  -7.439  -4.684  0.00  0.00    +0.006 C 
ATOM      6  C   UNL     1      -1.986  -7.025  -4.059  0.00  0.00    +0.013 C 
ENDROOT
BRANCH   1   8
ATOM      7  N   UNL     1      -0.458  -4.798  -1.460  0.00  0.00    -0.315 N 
ATOM      8  C   UNL     1      -0.811  -5.380  -2.623  0.00  0.00    +0.216 C 
ATOM      9  O   UNL     1      -0.371  -4.957  -3.671  0.00  0.00    -0.276 OA
ATOM     10  H   UNL     1      -0.810  -5.136  -0.622  0.00  0.00    +0.149 HD
BRANCH   7  11
ATOM     11  C   UNL     1       0.457  -3.653  -1.462  0.00  0.00    +0.108 C 
BRANCH  11  12
ATOM     12  C   UNL     1       0.691  -3.186  -0.024  0.00  0.00    +0.052 C 
BRANCH  12  19
ATOM     13  C   UNL     1      -0.016   1.348   0.009  0.00  0.00    +0.001 A 
ATOM     14  C   UNL     1       1.166   2.101   0.002  0.00  0.00    +0.002 A 
ATOM     15  C   UNL     1       2.391   1.535  -0.013  0.00  0.00    +0.026 A 
ATOM     16  C   UNL     1       2.529   0.120  -0.022  0.00  0.00    +0.043 A 
ATOM     17  N   UNL     1       3.587  -0.654  -0.037  0.00  0.00    -0.380 N 
ATOM     18  C   UNL     1       3.143  -2.053  -0.041  0.00  0.00    +0.144 C 
ATOM     19  C   UNL     1       1.631  -2.008  -0.025  0.00  0.00    -0.040 C 
ATOM     20  C   UNL     1       1.295  -0.698  -0.014  0.00  0.00    -0.001 A 
ATOM     21  C   UNL     1       0.002  -0.004   0.002  0.00  0.00    +0.010 A 
ATOM     22  H   UNL     1       4.509  -0.353  -0.045  0.00  0.00    +0.160 HD
ENDBRANCH  12  19
ENDBRANCH  11  12
ENDBRANCH   7  11
ENDBRANCH   1   8
BRANCH   4  23
ATOM     23  C   UNL     1       1.294  -8.995  -4.495  0.00  0.00    +0.119 C 
BRANCH  23  24
ATOM     24  N   UNL     1       1.056  -9.554  -5.828  0.00  0.00    -0.251 N 
ATOM     25  C   UNL     1       0.830 -10.876  -5.965  0.00  0.00    +0.234 C 
ATOM     26  O   UNL     1       0.764 -11.585  -4.983  0.00  0.00    -0.274 OA
ATOM     27  C   UNL     1       0.661 -11.467  -7.328  0.00  0.00    +0.144 C 
ATOM     28  C   UNL     1      -0.353 -12.562  -7.378  0.00  0.00    -0.008 C 
ATOM     29  C   UNL     1      -1.120 -12.742  -8.455  0.00  0.00    -0.003 C 
ATOM     30  C   UNL     1      -1.012 -11.902  -9.587  0.00  0.00    +0.001 C 
ATOM     31  C   UNL     1      -0.289 -10.753  -9.538  0.00  0.00    +0.022 C 
ATOM     32  C   UNL     1       0.361 -10.408  -8.345  0.00  0.00    +0.049 C 
ATOM     33  N   UNL     1       0.644  -9.148  -8.101  0.00  0.00    -0.196 NA
ATOM     34  C   UNL     1       1.060  -8.742  -6.899  0.00  0.00    +0.163 C 
ATOM     35  S   UNL     1       1.624  -7.136  -6.718  0.00  0.00    -0.016 S 
ENDBRANCH  23  24
ENDBRANCH   4  23
TORSDOF 6
