REMARK  Name = ZINC27546324
REMARK  10 active torsions:
REMARK  status: ('A' for Active; 'I' for Inactive)
REMARK    1  A    between atoms: C_1  and  C_2
REMARK    2  A    between atoms: C_4  and  C_29
REMARK    3  A    between atoms: C_5  and  N_9
REMARK    4  A    between atoms: C_6  and  C_8
REMARK    5  A    between atoms: C_10  and  C_12
REMARK    6  A    between atoms: C_12  and  S_13
REMARK    7  A    between atoms: S_13  and  C_14
REMARK    8  A    between atoms: C_17  and  C_22
REMARK    9  A    between atoms: N_20  and  N_21
REMARK   10  A    between atoms: C_22  and  C_23
REMARK                            x       y       z     vdW  Elec       q    Type
REMARK                         _______ _______ _______ _____ _____    ______ ____
ROOT
ATOM      1  C   UNL     1       4.930   1.369  -0.942  0.00  0.00    +0.210 A 
ATOM      2  N   UNL     1       4.963   0.328  -0.126  0.00  0.00    -0.122 NA
ATOM      3  N   UNL     1       6.058  -0.281   0.156  0.00  0.00    -0.146 NA
ATOM      4  C   UNL     1       7.206   0.101  -0.354  0.00  0.00    +0.134 A 
ATOM      5  C   UNL     1       7.240   1.206  -1.232  0.00  0.00    +0.293 A 
ATOM      6  O   UNL     1       8.291   1.584  -1.722  0.00  0.00    -0.264 OA
ATOM      7  N   UNL     1       6.075   1.829  -1.520  0.00  0.00    -0.206 N 
ENDROOT
BRANCH   7   8
ATOM      8  N   UNL     1       6.047   2.900  -2.368  0.00  0.00    -0.293 N 
ATOM      9  H   UNL     1       6.979   3.262  -2.828  0.00  0.00    +0.163 HD
ATOM     10  H   UNL     1       5.093   3.400  -2.591  0.00  0.00    +0.163 HD
ENDBRANCH   7   8
BRANCH   1  11
ATOM     11  S   UNL     1       3.394   2.160  -1.290  0.00  0.00    -0.075 S 
BRANCH  11  12
ATOM     12  C   UNL     1       2.283   1.144  -0.286  0.00  0.00    +0.173 C 
BRANCH  12  14
ATOM     13  N   UNL     1      -0.134   1.043   0.231  0.00  0.00    -0.284 N 
ATOM     14  C   UNL     1       0.871   1.650  -0.431  0.00  0.00    +0.228 C 
ATOM     15  O   UNL     1       0.639   2.604  -1.142  0.00  0.00    -0.275 OA
ATOM     16  H   UNL     1       0.067   0.144   0.832  0.00  0.00    +0.155 HD
BRANCH  13  21
ATOM     17  C   UNL     1      -5.403   3.122  -0.085  0.00  0.00    +0.044 C 
ATOM     18  C   UNL     1      -4.004   2.570  -0.001  0.00  0.00    -0.050 A 
ATOM     19  C   UNL     1      -3.770   1.236  -0.281  0.00  0.00    +0.008 A 
ATOM     20  C   UNL     1      -2.489   0.726  -0.205  0.00  0.00    -0.029 A 
ATOM     21  C   UNL     1      -1.434   1.556   0.153  0.00  0.00    +0.039 A 
ATOM     22  C   UNL     1      -1.672   2.894   0.438  0.00  0.00    -0.029 A 
ATOM     23  C   UNL     1      -2.955   3.398   0.355  0.00  0.00    +0.008 A 
ATOM     24  C   UNL     1      -0.531   3.795   0.834  0.00  0.00    +0.045 C 
ATOM     25  C   UNL     1      -2.236  -0.728  -0.509  0.00  0.00    +0.045 C 
ENDBRANCH  13  21
ENDBRANCH  12  14
ENDBRANCH  11  12
ENDBRANCH   1  11
BRANCH   4  26
ATOM     26  C   UNL     1       8.475  -0.632  -0.004  0.00  0.00    +0.098 C 
BRANCH  26  27
ATOM     27  C   UNL     1       8.159  -1.760   0.944  0.00  0.00    -0.041 A 
ATOM     28  C   UNL     1       8.187  -1.543   2.309  0.00  0.00    +0.004 A 
ATOM     29  C   UNL     1       7.892  -2.576   3.179  0.00  0.00    +0.000 A 
ATOM     30  C   UNL     1       7.579  -3.828   2.684  0.00  0.00    +0.000 A 
ATOM     31  C   UNL     1       7.555  -4.046   1.319  0.00  0.00    +0.000 A 
ATOM     32  C   UNL     1       7.845  -3.012   0.450  0.00  0.00    +0.004 A 
ENDBRANCH  26  27
ENDBRANCH   4  26
TORSDOF 7
