REMARK  Name = ZINC62229763
REMARK  6 active torsions:
REMARK  status: ('A' for Active; 'I' for Inactive)
REMARK    1  A    between atoms: C_4  and  C_7
REMARK    2  A    between atoms: C_7  and  N_8
REMARK    3  A    between atoms: C_12  and  C_14
REMARK    4  A    between atoms: C_14  and  N_15
REMARK    5  A    between atoms: C_16  and  C_18
REMARK    6  A    between atoms: C_24  and  N_28
REMARK                            x       y       z     vdW  Elec       q    Type
REMARK                         _______ _______ _______ _____ _____    ______ ____
ROOT
ATOM      1  N   UNL     1       7.397  -3.360   4.106  0.00  0.00    -0.310 N 
ATOM      2  C   UNL     1       8.485  -4.122   4.333  0.00  0.00    +0.260 C 
ATOM      3  O   UNL     1       9.188  -4.471   3.404  0.00  0.00    -0.269 OA
ATOM      4  H   UNL     1       6.836  -3.081   4.847  0.00  0.00    +0.149 HD
ENDROOT
BRANCH   2   5
ATOM      5  C   UNL     1       8.822  -4.531   5.704  0.00  0.00    +0.103 A 
ATOM      6  C   UNL     1       9.892  -5.290   6.059  0.00  0.00    +0.041 A 
ATOM      7  C   UNL     1       9.856  -5.456   7.465  0.00  0.00    +0.003 A 
ATOM      8  C   UNL     1      10.681  -6.128   8.376  0.00  0.00    +0.010 A 
ATOM      9  C   UNL     1      10.381  -6.108   9.707  0.00  0.00    +0.003 A 
ATOM     10  C   UNL     1       9.262  -5.426  10.169  0.00  0.00    +0.035 A 
ATOM     11  C   UNL     1       8.435  -4.758   9.294  0.00  0.00    +0.150 A 
ATOM     12  C   UNL     1       8.721  -4.764   7.931  0.00  0.00    +0.078 A 
ATOM     13  N   UNL     1       8.106  -4.200   6.838  0.00  0.00    -0.349 N 
ATOM     14  H   UNL     1       7.300  -3.661   6.860  0.00  0.00    +0.166 HD
BRANCH  11  15
ATOM     15  N   UNL     1       7.247  -4.035   9.800  0.00  0.00    +0.058 N 
ATOM     16  O   UNL     1       7.001  -4.031  10.983  0.00  0.00    -0.126 OA
ATOM     17  O   UNL     1       6.522  -3.449   9.030  0.00  0.00    -0.126 OA
ENDBRANCH  11  15
ENDBRANCH   2   5
BRANCH   1  18
ATOM     18  C   UNL     1       7.060  -2.951   2.740  0.00  0.00    +0.106 C 
BRANCH  18  23
ATOM     19  N   UNL     1       4.153  -0.953   1.342  0.00  0.00    +0.383 N 
ATOM     20  C   UNL     1       4.424   0.329   2.003  0.00  0.00    -0.078 C 
ATOM     21  C   UNL     1       4.807   0.083   3.464  0.00  0.00    -0.018 C 
ATOM     22  C   UNL     1       6.060  -0.796   3.517  0.00  0.00    +0.001 C 
ATOM     23  C   UNL     1       5.790  -2.099   2.760  0.00  0.00    -0.011 C 
ATOM     24  C   UNL     1       5.371  -1.772   1.325  0.00  0.00    -0.073 C 
ATOM     25  H   UNL     1       3.427  -1.441   1.844  0.00  0.00    -0.081 HD
BRANCH  19  26
ATOM     26  C   UNL     1       3.711  -0.707  -0.038  0.00  0.00    -0.043 C 
BRANCH  26  30
ATOM     27  C   UNL     1      -0.017   1.378   0.010  0.00  0.00    +0.000 A 
ATOM     28  C   UNL     1       1.171   2.086   0.002  0.00  0.00    +0.000 A 
ATOM     29  C   UNL     1       2.377   1.411  -0.013  0.00  0.00    +0.002 A 
ATOM     30  C   UNL     1       2.396   0.029  -0.020  0.00  0.00    -0.064 A 
ATOM     31  C   UNL     1       1.208  -0.679  -0.012  0.00  0.00    +0.002 A 
ATOM     32  C   UNL     1       0.002  -0.004   0.002  0.00  0.00    +0.000 A 
ENDBRANCH  26  30
ENDBRANCH  19  26
ENDBRANCH  18  23
ENDBRANCH   1  18
TORSDOF 6
