REMARK  Name = ZINC13500991
REMARK  12 active torsions:
REMARK  status: ('A' for Active; 'I' for Inactive)
REMARK    1  A    between atoms: C_1  and  C_2
REMARK    2  A    between atoms: C_2  and  C_3
REMARK    3  A    between atoms: C_3  and  C_4
REMARK    4  A    between atoms: C_4  and  C_6
REMARK    5  A    between atoms: C_4  and  N_75
REMARK    6  A    between atoms: N_10  and  C_11
REMARK    7  A    between atoms: C_17  and  C_18
REMARK    8  A    between atoms: C_17  and  N_75
REMARK    9  A    between atoms: C_18  and  C_19
REMARK   10  A    between atoms: C_25  and  C_26
REMARK   11  A    between atoms: C_25  and  N_75
REMARK   12  A    between atoms: C_30  and  C_38
REMARK                            x       y       z     vdW  Elec       q    Type
REMARK                         _______ _______ _______ _____ _____    ______ ____
ROOT
ATOM      1  N   UNL     1      -0.735   3.201   1.457  0.00  0.00    +0.389 N 
ATOM      2  H   UNL     1      -1.098   3.717   2.267  0.00  0.00    -0.080 HD
ENDROOT
BRANCH   1   3
ATOM      3  C   UNL     1      -0.534   1.787   1.838  0.00  0.00    +0.003 C 
BRANCH   3   4
ATOM      4  C   UNL     1       0.162   1.740   3.174  0.00  0.00    +0.138 A 
ATOM      5  N   UNL     1       1.206   2.445   3.538  0.00  0.00    -0.115 NA
ATOM      6  N   UNL     1       1.501   2.123   4.749  0.00  0.00    -0.023 NA
ATOM      7  N   UNL     1       0.678   1.225   5.166  0.00  0.00    -0.044 NA
ATOM      8  N   UNL     1      -0.163   0.962   4.223  0.00  0.00    -0.228 N 
BRANCH   8   9
ATOM      9  C   UNL     1      -1.264  -0.002   4.283  0.00  0.00    +0.111 C 
ATOM     10  C   UNL     1      -2.223   0.390   5.409  0.00  0.00    +0.027 C 
ATOM     11  C   UNL     1      -3.374  -0.617   5.472  0.00  0.00    +0.002 C 
ATOM     12  C   UNL     1      -2.814  -2.015   5.742  0.00  0.00    +0.000 C 
ATOM     13  C   UNL     1      -1.856  -2.406   4.615  0.00  0.00    +0.002 C 
ATOM     14  C   UNL     1      -0.705  -1.400   4.552  0.00  0.00    +0.027 C 
ENDBRANCH   8   9
ENDBRANCH   3   4
BRANCH   3  15
ATOM     15  C   UNL     1       0.319   1.066   0.793  0.00  0.00    -0.008 C 
BRANCH  15  17
ATOM     16  C   UNL     1       1.168  -1.161   0.045  0.00  0.00    +0.004 C 
ATOM     17  C   UNL     1       0.426  -0.416   1.156  0.00  0.00    -0.005 C 
ENDBRANCH  15  17
ENDBRANCH   3  15
ENDBRANCH   1   3
BRANCH   1  18
ATOM     18  C   UNL     1       0.552   3.800   1.044  0.00  0.00    -0.073 C 
BRANCH  18  19
ATOM     19  C   UNL     1       0.403   5.323   1.033  0.00  0.00    +0.016 C 
BRANCH  19  20
ATOM     20  C   UNL     1       1.701   5.951   0.595  0.00  0.00    -0.049 A 
ATOM     21  C   UNL     1       2.658   6.287   1.534  0.00  0.00    +0.003 A 
ATOM     22  C   UNL     1       3.851   6.859   1.132  0.00  0.00    +0.000 A 
ATOM     23  C   UNL     1       4.082   7.104  -0.209  0.00  0.00    +0.000 A 
ATOM     24  C   UNL     1       3.123   6.772  -1.147  0.00  0.00    +0.000 A 
ATOM     25  C   UNL     1       1.933   6.196  -0.746  0.00  0.00    +0.003 A 
ENDBRANCH  19  20
ENDBRANCH  18  19
ENDBRANCH   1  18
BRANCH   1  26
ATOM     26  C   UNL     1      -1.713   3.292   0.352  0.00  0.00    -0.037 C 
BRANCH  26  27
ATOM     27  C   UNL     1      -3.099   3.130   0.920  0.00  0.00    +0.001 A 
ATOM     28  C   UNL     1      -3.813   4.225   1.282  0.00  0.00    +0.017 A 
ATOM     29  C   UNL     1      -5.157   4.033   1.830  0.00  0.00    -0.001 A 
ATOM     30  C   UNL     1      -5.942   5.124   2.220  0.00  0.00    +0.013 A 
ATOM     31  C   UNL     1      -7.192   4.911   2.728  0.00  0.00    -0.050 A 
ATOM     32  C   UNL     1      -7.691   3.623   2.861  0.00  0.00    +0.005 A 
ATOM     33  C   UNL     1      -6.936   2.534   2.483  0.00  0.00    +0.026 A 
ATOM     34  C   UNL     1      -5.660   2.725   1.963  0.00  0.00    +0.049 A 
ATOM     35  N   UNL     1      -4.883   1.654   1.577  0.00  0.00    -0.322 N 
ATOM     36  H   UNL     1      -5.231   0.753   1.669  0.00  0.00    +0.169 HD
ATOM     37  C   UNL     1      -3.652   1.840   1.069  0.00  0.00    +0.251 A 
ATOM     38  O   UNL     1      -2.994   0.870   0.733  0.00  0.00    -0.268 OA
ATOM     39  C   UNL     1      -8.037   6.086   3.148  0.00  0.00    +0.044 C 
ENDBRANCH  26  27
ENDBRANCH   1  26
TORSDOF 10
