REMARK  Name = ZINC13495811
REMARK  14 active torsions:
REMARK  status: ('A' for Active; 'I' for Inactive)
REMARK    1  A    between atoms: C_1  and  C_2
REMARK    2  A    between atoms: C_2  and  C_3
REMARK    3  A    between atoms: C_3  and  C_5
REMARK    4  A    between atoms: C_3  and  N_73
REMARK    5  A    between atoms: N_9  and  C_10
REMARK    6  A    between atoms: C_10  and  C_11
REMARK    7  A    between atoms: C_14  and  O_17
REMARK    8  A    between atoms: O_17  and  C_18
REMARK    9  A    between atoms: C_19  and  C_20
REMARK   10  A    between atoms: C_19  and  N_73
REMARK   11  A    between atoms: C_20  and  C_21
REMARK   12  A    between atoms: C_27  and  C_28
REMARK   13  A    between atoms: C_27  and  N_73
REMARK   14  A    between atoms: C_34  and  C_40
REMARK                            x       y       z     vdW  Elec       q    Type
REMARK                         _______ _______ _______ _____ _____    ______ ____
ROOT
ATOM      1  N   UNL     1       1.486  -3.178   5.340  0.00  0.00    +0.389 N 
ATOM      2  H   UNL     1       1.895  -2.236   5.323  0.00  0.00    -0.080 HD
ENDROOT
BRANCH   1   3
ATOM      3  C   UNL     1       1.661  -3.752   6.691  0.00  0.00    +0.003 C 
BRANCH   3   4
ATOM      4  C   UNL     1       0.840  -5.007   6.842  0.00  0.00    +0.138 A 
ATOM      5  N   UNL     1      -0.446  -5.131   6.622  0.00  0.00    -0.115 NA
ATOM      6  N   UNL     1      -0.774  -6.355   6.859  0.00  0.00    -0.023 NA
ATOM      7  N   UNL     1       0.269  -7.012   7.232  0.00  0.00    -0.044 NA
ATOM      8  N   UNL     1       1.284  -6.215   7.234  0.00  0.00    -0.226 N 
BRANCH   8   9
ATOM      9  C   UNL     1       2.660  -6.561   7.596  0.00  0.00    +0.182 C 
BRANCH   9  10
ATOM     10  C   UNL     1       2.862  -6.340   9.073  0.00  0.00    -0.026 A 
ATOM     11  C   UNL     1       3.300  -5.112   9.534  0.00  0.00    +0.009 A 
ATOM     12  C   UNL     1       3.480  -4.905  10.888  0.00  0.00    +0.046 A 
ATOM     13  C   UNL     1       3.232  -5.934  11.785  0.00  0.00    +0.120 A 
ATOM     14  C   UNL     1       2.798  -7.167  11.320  0.00  0.00    +0.046 A 
ATOM     15  C   UNL     1       2.614  -7.367   9.965  0.00  0.00    +0.009 A 
BRANCH  13  16
ATOM     16  O   UNL     1       3.413  -5.734  13.117  0.00  0.00    -0.495 OA
ATOM     17  C   UNL     1       3.862  -4.440  13.524  0.00  0.00    +0.277 C 
ENDBRANCH  13  16
ENDBRANCH   9  10
ENDBRANCH   8   9
ENDBRANCH   3   4
BRANCH   3  19
ATOM     18  C   UNL     1       2.104  -1.482   7.635  0.00  0.00    +0.002 C 
ATOM     19  C   UNL     1       1.211  -2.720   7.727  0.00  0.00    -0.011 C 
ENDBRANCH   3  19
ENDBRANCH   1   3
BRANCH   1  20
ATOM     20  C   UNL     1       2.178  -4.019   4.341  0.00  0.00    -0.073 C 
BRANCH  20  21
ATOM     21  C   UNL     1       3.686  -3.801   4.473  0.00  0.00    +0.016 C 
BRANCH  21  22
ATOM     22  C   UNL     1       4.402  -4.561   3.386  0.00  0.00    -0.049 A 
ATOM     23  C   UNL     1       4.810  -5.863   3.607  0.00  0.00    +0.003 A 
ATOM     24  C   UNL     1       5.461  -6.562   2.608  0.00  0.00    +0.000 A 
ATOM     25  C   UNL     1       5.714  -5.955   1.392  0.00  0.00    +0.000 A 
ATOM     26  C   UNL     1       5.311  -4.651   1.173  0.00  0.00    +0.000 A 
ATOM     27  C   UNL     1       4.654  -3.954   2.170  0.00  0.00    +0.003 A 
ENDBRANCH  21  22
ENDBRANCH  20  21
ENDBRANCH   1  20
BRANCH   1  28
ATOM     28  C   UNL     1       0.048  -3.084   5.013  0.00  0.00    -0.037 C 
BRANCH  28  29
ATOM     29  C   UNL     1      -0.119  -2.177   3.822  0.00  0.00    +0.001 A 
ATOM     30  C   UNL     1      -0.210  -2.707   2.577  0.00  0.00    +0.017 A 
ATOM     31  C   UNL     1      -0.372  -1.798   1.440  0.00  0.00    -0.001 A 
ATOM     32  C   UNL     1      -0.471  -2.286   0.133  0.00  0.00    +0.010 A 
ATOM     33  C   UNL     1      -0.621  -1.412  -0.906  0.00  0.00    +0.001 A 
ATOM     34  C   UNL     1      -0.684  -0.044  -0.675  0.00  0.00    +0.005 A 
ATOM     35  C   UNL     1      -0.583   0.459   0.604  0.00  0.00    -0.026 A 
ATOM     36  C   UNL     1      -0.429  -0.412   1.677  0.00  0.00    +0.052 A 
ATOM     37  N   UNL     1      -0.331   0.063   2.968  0.00  0.00    -0.322 N 
ATOM     38  H   UNL     1      -0.370   1.018   3.130  0.00  0.00    +0.169 HD
ATOM     39  C   UNL     1      -0.182  -0.779   4.005  0.00  0.00    +0.251 A 
ATOM     40  O   UNL     1      -0.099  -0.324   5.133  0.00  0.00    -0.268 OA
ATOM     41  C   UNL     1      -0.646   1.946   0.839  0.00  0.00    +0.046 C 
ENDBRANCH  28  29
ENDBRANCH   1  28
TORSDOF 11
