REMARK  Name = ZINC04981480
REMARK  5 active torsions:
REMARK  status: ('A' for Active; 'I' for Inactive)
REMARK    1  A    between atoms: C_4  and  O_30
REMARK    2  A    between atoms: C_5  and  C_7
REMARK    3  A    between atoms: N_8  and  N_9
REMARK    4  A    between atoms: C_10  and  C_12
REMARK    5  A    between atoms: C_14  and  C_18
REMARK                            x       y       z     vdW  Elec       q    Type
REMARK                         _______ _______ _______ _____ _____    ______ ____
ROOT
ATOM      1  C   UNL     1       3.619  -6.309  -0.068  0.00  0.00    +0.122 A 
ATOM      2  C   UNL     1       4.742  -7.115  -0.078  0.00  0.00    +0.062 A 
ATOM      3  C   UNL     1       4.251  -8.434  -0.083  0.00  0.00    +0.094 A 
ATOM      4  N   UNL     1       2.935  -8.369  -0.076  0.00  0.00    -0.173 NA
ATOM      5  N   UNL     1       2.540  -7.147  -0.062  0.00  0.00    -0.272 N 
ATOM      6  H   UNL     1       1.613  -6.862  -0.052  0.00  0.00    +0.189 HD
ENDROOT
BRANCH   3   7
ATOM      7  C   UNL     1       5.066  -9.672  -0.094  0.00  0.00    +0.010 A 
ATOM      8  C   UNL     1       6.452  -9.609  -0.095  0.00  0.00    +0.011 A 
ATOM      9  C   UNL     1       7.243 -10.755  -0.106  0.00  0.00    +0.005 A 
ATOM     10  C   UNL     1       6.671 -11.992  -0.116  0.00  0.00    -0.039 A 
ATOM     11  C   UNL     1       5.282 -12.077  -0.114  0.00  0.00    -0.011 A 
ATOM     12  C   UNL     1       4.449 -10.945  -0.097  0.00  0.00    -0.008 A 
ATOM     13  C   UNL     1       3.062 -11.149  -0.090  0.00  0.00    +0.009 A 
ATOM     14  C   UNL     1       2.584 -12.428  -0.095  0.00  0.00    +0.001 A 
ATOM     15  C   UNL     1       3.430 -13.539  -0.106  0.00  0.00    +0.004 A 
ATOM     16  C   UNL     1       4.781 -13.375  -0.125  0.00  0.00    -0.039 A 
ATOM     17  C   UNL     1       5.962 -14.315  -0.135  0.00  0.00    +0.040 C 
ATOM     18  C   UNL     1       7.208 -13.403  -0.129  0.00  0.00    +0.040 C 
ENDBRANCH   3   7
BRANCH   1  20
ATOM     19  N   UNL     1       2.412  -4.186  -0.045  0.00  0.00    -0.202 N 
ATOM     20  C   UNL     1       3.592  -4.838  -0.060  0.00  0.00    +0.281 C 
ATOM     21  O   UNL     1       4.634  -4.210  -0.066  0.00  0.00    -0.267 OA
ATOM     22  H   UNL     1       1.581  -4.686  -0.039  0.00  0.00    +0.178 HD
BRANCH  19  24
ATOM     23  C   UNL     1       1.250  -2.157  -0.022  0.00  0.00    +0.142 C 
ATOM     24  N   UNL     1       2.386  -2.785  -0.036  0.00  0.00    -0.187 NA
BRANCH  23  29
ATOM     25  C   UNL     1      -0.017   1.375   0.010  0.00  0.00    +0.001 A 
ATOM     26  C   UNL     1       1.169   2.089   0.002  0.00  0.00    +0.004 A 
ATOM     27  C   UNL     1       2.383   1.428  -0.013  0.00  0.00    +0.046 A 
ATOM     28  C   UNL     1       2.420   0.044  -0.021  0.00  0.00    +0.125 A 
ATOM     29  C   UNL     1       1.222  -0.684  -0.013  0.00  0.00    +0.036 A 
ATOM     30  C   UNL     1       0.002  -0.004   0.002  0.00  0.00    +0.013 A 
BRANCH  28  31
ATOM     31  O   UNL     1       3.613  -0.606  -0.036  0.00  0.00    -0.506 OA
ATOM     32  H   UNL     1       3.967  -0.799   0.843  0.00  0.00    +0.292 HD
ENDBRANCH  28  31
ENDBRANCH  23  29
ENDBRANCH  19  24
ENDBRANCH   1  20
TORSDOF 5
