REMARK  Name = ZINC39596009
REMARK  8 active torsions:
REMARK  status: ('A' for Active; 'I' for Inactive)
REMARK    1  A    between atoms: C_1  and  C_2
REMARK    2  A    between atoms: C_5  and  C_9
REMARK    3  A    between atoms: C_13  and  C_22
REMARK    4  A    between atoms: N_24  and  C_25
REMARK    5  A    between atoms: C_25  and  C_26
REMARK    6  A    between atoms: C_26  and  C_28
REMARK    7  A    between atoms: C_26  and  O_29
REMARK    8  A    between atoms: O_29  and  C_30
REMARK                            x       y       z     vdW  Elec       q    Type
REMARK                         _______ _______ _______ _____ _____    ______ ____
ROOT
ATOM      1  C   UNL     1      -1.150  -4.707  -0.849  0.00  0.00    +0.247 C 
ATOM      2  O   UNL     1      -1.468  -5.397  -1.798  0.00  0.00    -0.270 OA
ATOM      3  N   UNL     1      -0.808  -5.285   0.320  0.00  0.00    -0.296 N 
ATOM      4  C   UNL     1      -0.519  -4.619   1.612  0.00  0.00    +0.121 C 
ATOM      5  C   UNL     1      -1.161  -5.537   2.676  0.00  0.00    +0.100 C 
ATOM      6  C   UNL     1      -1.234  -6.920   2.009  0.00  0.00    -0.004 C 
ATOM      7  C   UNL     1      -0.643  -6.730   0.605  0.00  0.00    +0.115 C 
ATOM      8  C   UNL     1      -2.685  -7.382   1.906  0.00  0.00    -0.010 C 
ATOM      9  C   UNL     1      -2.727  -8.784   1.291  0.00  0.00    -0.082 C 
ATOM     10  N   UNL     1      -1.956  -9.710   2.129  0.00  0.00    +0.379 N 
ATOM     11  C   UNL     1      -0.544  -9.312   2.148  0.00  0.00    -0.082 C 
ATOM     12  C   UNL     1      -0.409  -7.932   2.798  0.00  0.00    -0.010 C 
ATOM     13  H   UNL     1      -2.322  -9.694   3.070  0.00  0.00    -0.086 HD
ATOM     14  H   UNL     1      -2.036 -10.644   1.756  0.00  0.00    -0.086 HD
ENDROOT
BRANCH   1  19
ATOM     15  C   UNL     1      -1.094   1.028  -1.345  0.00  0.00    +0.047 C 
ATOM     16  C   UNL     1      -1.109  -0.474  -1.216  0.00  0.00    -0.015 A 
ATOM     17  C   UNL     1      -0.367  -1.087  -0.222  0.00  0.00    +0.007 A 
ATOM     18  C   UNL     1      -0.376  -2.461  -0.098  0.00  0.00    +0.013 A 
ATOM     19  C   UNL     1      -1.137  -3.234  -0.977  0.00  0.00    +0.040 A 
ATOM     20  C   UNL     1      -1.884  -2.611  -1.977  0.00  0.00    +0.051 A 
ATOM     21  C   UNL     1      -1.871  -1.234  -2.088  0.00  0.00    +0.127 A 
ATOM     22  F   UNL     1      -2.599  -0.628  -3.052  0.00  0.00    -0.205 F 
ENDBRANCH   1  19
BRANCH   5  23
ATOM     23  C   UNL     1      -2.543  -5.047   3.026  0.00  0.00    +0.218 C 
ATOM     24  O   UNL     1      -3.208  -4.464   2.196  0.00  0.00    -0.275 OA
ATOM     25  N   UNL     1      -3.040  -5.256   4.261  0.00  0.00    -0.312 N 
ATOM     26  H   UNL     1      -2.508  -5.722   4.925  0.00  0.00    +0.149 HD
BRANCH  25  27
ATOM     27  C   UNL     1      -4.383  -4.780   4.601  0.00  0.00    +0.148 C 
BRANCH  27  28
ATOM     28  C   UNL     1      -4.701  -5.144   6.053  0.00  0.00    +0.187 C 
ATOM     29  C   UNL     1      -6.103  -4.647   6.408  0.00  0.00    +0.053 C 
BRANCH  28  30
ATOM     30  O   UNL     1      -4.644  -6.563   6.212  0.00  0.00    -0.488 OA
BRANCH  30  31
ATOM     31  C   UNL     1      -4.376  -7.035   7.458  0.00  0.00    +0.121 A 
ATOM     32  C   UNL     1      -4.187  -8.394   7.661  0.00  0.00    +0.048 A 
ATOM     33  C   UNL     1      -3.915  -8.871   8.928  0.00  0.00    +0.042 A 
ATOM     34  C   UNL     1      -3.832  -7.994   9.996  0.00  0.00    +0.124 A 
ATOM     35  C   UNL     1      -4.021  -6.637   9.796  0.00  0.00    +0.042 A 
ATOM     36  C   UNL     1      -4.287  -6.156   8.528  0.00  0.00    +0.048 A 
ATOM     37  F   UNL     1      -3.566  -8.463  11.235  0.00  0.00    -0.205 F 
ENDBRANCH  30  31
ENDBRANCH  28  30
ENDBRANCH  27  28
ENDBRANCH  25  27
ENDBRANCH   5  23
TORSDOF 6
