REMARK  Name = ZINC40170582
REMARK  9 active torsions:
REMARK  status: ('A' for Active; 'I' for Inactive)
REMARK    1  A    between atoms: C_1  and  C_2
REMARK    2  A    between atoms: C_4  and  C_30
REMARK    3  A    between atoms: C_8  and  C_29
REMARK    4  A    between atoms: C_12  and  S_15
REMARK    5  A    between atoms: S_15  and  C_16
REMARK    6  A    between atoms: C_16  and  C_18
REMARK    7  A    between atoms: C_16  and  C_19
REMARK    8  A    between atoms: N_21  and  C_22
REMARK    9  A    between atoms: C_25  and  O_28
REMARK                            x       y       z     vdW  Elec       q    Type
REMARK                         _______ _______ _______ _____ _____    ______ ____
ROOT
ATOM      1  C   UNL     1      -0.023   1.509  -0.009  0.00  0.00    +0.044 C 
ATOM      2  C   UNL     1       0.002   0.004  -0.011  0.00  0.00    -0.050 A 
ATOM      3  C   UNL     1      -0.043  -0.693  -1.206  0.00  0.00    +0.008 A 
ATOM      4  C   UNL     1       0.027  -2.074  -1.221  0.00  0.00    -0.026 A 
ATOM      5  C   UNL     1       0.218  -2.780  -0.045  0.00  0.00    +0.061 A 
ATOM      6  C   UNL     1       0.081  -2.080   1.177  0.00  0.00    +0.002 A 
ATOM      7  C   UNL     1       0.031  -0.685   1.182  0.00  0.00    +0.013 A 
ATOM      8  C   UNL     1      -0.074  -2.843   2.419  0.00  0.00    -0.038 A 
ATOM      9  C   UNL     1      -0.017  -4.193   2.372  0.00  0.00    +0.052 A 
ATOM     10  C   UNL     1       0.271  -4.849   1.157  0.00  0.00    +0.162 A 
ATOM     11  N   UNL     1       0.514  -4.130   0.000  0.00  0.00    -0.270 N 
ATOM     12  C   UNL     1       1.093  -5.037  -0.836  0.00  0.00    +0.197 A 
ATOM     13  N   UNL     1       0.853  -6.235  -0.340  0.00  0.00    -0.122 NA
ATOM     14  N   UNL     1       0.331  -6.126   0.826  0.00  0.00    -0.129 NA
ATOM     15  C   UNL     1      -0.296  -2.150   3.739  0.00  0.00    +0.044 C 
ATOM     16  C   UNL     1      -0.193  -2.773  -2.539  0.00  0.00    +0.046 C 
ENDROOT
BRANCH  12  17
ATOM     17  S   UNL     1       2.053  -4.718  -2.279  0.00  0.00    -0.073 S 
BRANCH  17  18
ATOM     18  C   UNL     1       2.493  -6.370  -2.886  0.00  0.00    +0.137 C 
ATOM     19  C   UNL     1       1.226  -7.109  -3.320  0.00  0.00    +0.029 C 
BRANCH  18  20
ATOM     20  C   UNL     1       3.427  -6.240  -4.062  0.00  0.00    +0.230 C 
ATOM     21  O   UNL     1       3.482  -5.198  -4.681  0.00  0.00    -0.274 OA
ATOM     22  N   UNL     1       4.200  -7.282  -4.427  0.00  0.00    -0.285 N 
ATOM     23  H   UNL     1       4.205  -8.092  -3.894  0.00  0.00    +0.155 HD
BRANCH  22  24
ATOM     24  C   UNL     1       4.995  -7.195  -5.577  0.00  0.00    +0.034 A 
ATOM     25  C   UNL     1       5.194  -8.317  -6.371  0.00  0.00    +0.027 A 
ATOM     26  C   UNL     1       5.978  -8.230  -7.504  0.00  0.00    +0.047 A 
ATOM     27  C   UNL     1       6.567  -7.023  -7.850  0.00  0.00    +0.117 A 
ATOM     28  C   UNL     1       6.369  -5.902  -7.058  0.00  0.00    +0.047 A 
ATOM     29  C   UNL     1       5.580  -5.985  -5.928  0.00  0.00    +0.027 A 
BRANCH  27  30
ATOM     30  O   UNL     1       7.339  -6.939  -8.966  0.00  0.00    -0.507 OA
ATOM     31  H   UNL     1       6.849  -6.703  -9.767  0.00  0.00    +0.292 HD
ENDBRANCH  27  30
ENDBRANCH  22  24
ENDBRANCH  18  20
ENDBRANCH  17  18
ENDBRANCH  12  17
TORSDOF 5
