REMARK  Name = ZINC15072056
REMARK  8 active torsions:
REMARK  status: ('A' for Active; 'I' for Inactive)
REMARK    1  A    between atoms: C_1  and  C_2
REMARK    2  A    between atoms: C_4  and  C_7
REMARK    3  A    between atoms: C_7  and  C_9
REMARK    4  A    between atoms: C_7  and  N_10
REMARK    5  A    between atoms: N_10  and  C_11
REMARK    6  A    between atoms: N_14  and  C_17
REMARK    7  A    between atoms: C_20  and  N_23
REMARK    8  A    between atoms: C_24  and  C_26
REMARK                            x       y       z     vdW  Elec       q    Type
REMARK                         _______ _______ _______ _____ _____    ______ ____
ROOT
ATOM      1  C   UNL     1      -8.746  -5.555   0.518  0.00  0.00    -0.068 C 
ATOM      2  C   UNL     1      -8.518  -4.570  -0.632  0.00  0.00    +0.003 C 
ATOM      3  C   UNL     1      -7.213  -3.807  -0.393  0.00  0.00    +0.103 C 
ATOM      4  N   UNL     1      -6.097  -4.757  -0.310  0.00  0.00    -0.330 N 
ATOM      5  C   UNL     1      -6.271  -5.683   0.817  0.00  0.00    +0.103 C 
ATOM      6  C   UNL     1      -7.547  -6.502   0.613  0.00  0.00    +0.003 C 
ENDROOT
BRANCH   4   7
ATOM      7  C   UNL     1      -4.873  -4.085  -0.223  0.00  0.00    +0.030 A 
ATOM      8  C   UNL     1      -3.689  -4.808  -0.135  0.00  0.00    +0.025 A 
ATOM      9  C   UNL     1      -2.481  -4.145  -0.050  0.00  0.00    +0.025 A 
ATOM     10  C   UNL     1      -2.449  -2.757  -0.052  0.00  0.00    +0.034 A 
ATOM     11  C   UNL     1      -3.632  -2.035  -0.134  0.00  0.00    +0.025 A 
ATOM     12  C   UNL     1      -4.840  -2.697  -0.225  0.00  0.00    +0.025 A 
BRANCH  10  13
ATOM     13  N   UNL     1      -1.223  -2.084   0.035  0.00  0.00    -0.281 N 
ATOM     14  C   UNL     1      -0.128  -2.600  -0.559  0.00  0.00    +0.251 C 
ATOM     15  O   UNL     1      -0.186  -3.688  -1.100  0.00  0.00    -0.270 OA
ATOM     16  H   UNL     1      -1.154  -1.136   0.587  0.00  0.00    +0.155 HD
BRANCH  14  17
ATOM     17  C   UNL     1       1.141  -1.845  -0.551  0.00  0.00    +0.072 A 
ATOM     18  C   UNL     1       1.210  -0.596   0.070  0.00  0.00    +0.016 A 
ATOM     19  C   UNL     1       2.398   0.103   0.074  0.00  0.00    +0.001 A 
ATOM     20  C   UNL     1       3.522  -0.428  -0.536  0.00  0.00    +0.003 A 
ATOM     21  C   UNL     1       3.463  -1.663  -1.154  0.00  0.00    +0.039 A 
ATOM     22  C   UNL     1       2.279  -2.377  -1.166  0.00  0.00    +0.135 A 
ATOM     23  F   UNL     1       2.222  -3.587  -1.765  0.00  0.00    -0.205 F 
ENDBRANCH  14  17
ENDBRANCH  10  13
ENDBRANCH   4   7
BRANCH   1  24
ATOM     24  N   UNL     1      -9.967  -6.332   0.264  0.00  0.00    +0.387 N 
ATOM     25  H   UNL     1      -9.700  -7.229  -0.313  0.00  0.00    -0.085 HD
ATOM     26  H   UNL     1     -10.663  -5.713  -0.321  0.00  0.00    -0.085 HD
BRANCH  24  27
ATOM     27  C   UNL     1     -10.607  -6.732   1.524  0.00  0.00    -0.003 C 
ATOM     28  C   UNL     1     -11.539  -7.918   1.268  0.00  0.00    -0.006 C 
BRANCH  27  32
ATOM     29  C   UNL     1     -13.031  -3.560   4.620  0.00  0.00    +0.087 C 
ATOM     30  C   UNL     1     -12.447  -4.219   3.397  0.00  0.00    +0.122 A 
ATOM     31  N   UNL     1     -11.732  -5.370   3.370  0.00  0.00    -0.218 NA
ATOM     32  C   UNL     1     -11.405  -5.576   2.071  0.00  0.00    +0.137 A 
ATOM     33  N   UNL     1     -11.916  -4.593   1.381  0.00  0.00    -0.159 NA
ATOM     34  N   UNL     1     -12.535  -3.787   2.169  0.00  0.00    -0.263 N 
ATOM     35  H   UNL     1     -13.032  -2.894   1.762  0.00  0.00    +0.190 HD
ENDBRANCH  27  32
ENDBRANCH  24  27
ENDBRANCH   1  24
TORSDOF 6
