REMARK  Name = ZINC00690229
REMARK  9 active torsions:
REMARK  status: ('A' for Active; 'I' for Inactive)
REMARK    1  A    between atoms: C_1  and  C_2
REMARK    2  A    between atoms: C_7  and  C_9
REMARK    3  A    between atoms: C_7  and  C_10
REMARK    4  A    between atoms: C_13  and  C_15
REMARK    5  A    between atoms: C_15  and  C_16
REMARK    6  A    between atoms: C_22  and  C_24
REMARK    7  A    between atoms: C_24  and  N_25
REMARK    8  A    between atoms: N_25  and  C_26
REMARK    9  A    between atoms: C_29  and  C_31
REMARK                            x       y       z     vdW  Elec       q    Type
REMARK                         _______ _______ _______ _____ _____    ______ ____
ROOT
ATOM      1  C   UNL     1       1.402  -3.467  -4.580  0.00  0.00    +0.059 A 
ATOM      2  C   UNL     1       1.317  -3.203  -5.907  0.00  0.00    +0.072 A 
ATOM      3  S   UNL     1       1.496  -4.846  -6.585  0.00  0.00    -0.060 S 
ATOM      4  C   UNL     1       1.656  -5.680  -5.132  0.00  0.00    +0.165 A 
ATOM      5  N   UNL     1       1.577  -4.727  -4.229  0.00  0.00    -0.229 NA
ATOM      6  N   UNL     1       1.833  -7.045  -4.935  0.00  0.00    -0.263 N 
ATOM      7  C   UNL     1       1.896  -7.876  -5.994  0.00  0.00    +0.236 C 
ATOM      8  O   UNL     1       1.798  -7.434  -7.119  0.00  0.00    -0.274 OA
ATOM      9  H   UNL     1       1.912  -7.399  -4.035  0.00  0.00    +0.157 HD
ENDROOT
BRANCH   1  10
ATOM     10  C   UNL     1       1.305  -2.369  -3.552  0.00  0.00    +0.152 C 
BRANCH  10  22
ATOM     11  C   UNL     1      -0.019   1.532   0.011  0.00  0.00    +0.013 C 
ATOM     12  C   UNL     1       0.002  -0.004   0.002  0.00  0.00    -0.014 C 
ATOM     13  C   UNL     1      -1.426  -0.614  -0.023  0.00  0.00    +0.030 C 
ATOM     14  C   UNL     1      -1.088  -2.044  -0.513  0.00  0.00    +0.077 C 
ATOM     15  C   UNL     1      -0.480  -2.795   0.669  0.00  0.00    +0.029 C 
ATOM     16  C   UNL     1       0.727  -2.106   1.280  0.00  0.00    -0.033 C 
ATOM     17  C   UNL     1       0.726  -0.590   1.213  0.00  0.00    +0.014 C 
ATOM     18  C   UNL     1       0.765  -2.497   2.779  0.00  0.00    +0.011 C 
ATOM     19  C   UNL     1       2.014  -2.662   0.655  0.00  0.00    +0.011 C 
ATOM     20  N   UNL     1      -0.054  -1.854  -1.550  0.00  0.00    -0.298 N 
ATOM     21  C   UNL     1       0.625  -0.576  -1.291  0.00  0.00    +0.114 C 
ATOM     22  C   UNL     1       0.214  -2.699  -2.566  0.00  0.00    +0.222 C 
ATOM     23  O   UNL     1      -0.422  -3.725  -2.686  0.00  0.00    -0.275 OA
ENDBRANCH  10  22
ENDBRANCH   1  10
BRANCH   7  24
ATOM     24  C   UNL     1       2.089  -9.355  -5.780  0.00  0.00    +0.204 C 
BRANCH  24  25
ATOM     25  N   UNL     1       2.123 -10.036  -7.077  0.00  0.00    -0.289 N 
ATOM     26  C   UNL     1       0.982 -10.493  -7.629  0.00  0.00    +0.219 C 
ATOM     27  O   UNL     1      -0.074 -10.341  -7.052  0.00  0.00    -0.275 OA
BRANCH  26  28
ATOM     28  C   UNL     1       1.018 -11.193  -8.963  0.00  0.00    +0.075 C 
ATOM     29  C   UNL     1       1.587 -10.245 -10.021  0.00  0.00    +0.013 C 
ATOM     30  C   UNL     1       1.623 -10.956 -11.376  0.00  0.00    +0.001 C 
ATOM     31  C   UNL     1       0.205 -11.371 -11.772  0.00  0.00    +0.000 C 
ATOM     32  C   UNL     1      -0.364 -12.318 -10.714  0.00  0.00    +0.001 C 
ATOM     33  C   UNL     1      -0.400 -11.608  -9.360  0.00  0.00    +0.013 C 
ENDBRANCH  26  28
BRANCH  25  34
ATOM     34  C   UNL     1       3.399 -10.220  -7.774  0.00  0.00    +0.077 C 
ATOM     35  C   UNL     1       4.678  -9.864  -7.012  0.00  0.00    +0.024 C 
ATOM     36  C   UNL     1       4.187  -8.963  -8.147  0.00  0.00    +0.024 C 
ENDBRANCH  25  34
ENDBRANCH  24  25
ENDBRANCH   7  24
TORSDOF 6
