REMARK  Name = ZINC16292761
REMARK  11 active torsions:
REMARK  status: ('A' for Active; 'I' for Inactive)
REMARK    1  A    between atoms: C_1  and  C_2
REMARK    2  A    between atoms: C_5  and  N_8
REMARK    3  A    between atoms: C_11  and  C_16
REMARK    4  A    between atoms: C_13  and  C_15
REMARK    5  A    between atoms: C_16  and  C_17
REMARK    6  A    between atoms: C_16  and  C_27
REMARK    7  A    between atoms: C_19  and  N_24
REMARK    8  A    between atoms: C_22  and  O_23
REMARK    9  A    between atoms: C_29  and  C_41
REMARK   10  A    between atoms: N_31  and  C_34
REMARK   11  A    between atoms: C_37  and  C_40
REMARK                            x       y       z     vdW  Elec       q    Type
REMARK                         _______ _______ _______ _____ _____    ______ ____
ROOT
ATOM      1  C   UNL     1      -1.061  -7.120   1.146  0.00  0.00    +0.058 C 
ENDROOT
BRANCH   1   5
ATOM      2  N   UNL     1      -0.038  -4.138  -0.030  0.00  0.00    -0.160 N 
ATOM      3  C   UNL     1       0.092  -4.897   1.078  0.00  0.00    +0.249 C 
ATOM      4  O   UNL     1       0.171  -4.518   2.227  0.00  0.00    -0.273 OA
ATOM      5  C   UNL     1       0.116  -6.327   0.574  0.00  0.00    +0.131 C 
ATOM      6  C   UNL     1      -0.018  -6.177  -0.927  0.00  0.00    +0.047 C 
ATOM      7  N   UNL     1      -0.104  -4.928  -1.174  0.00  0.00    -0.181 NA
ATOM      8  C   UNL     1      -0.051  -7.293  -1.939  0.00  0.00    +0.063 C 
BRANCH   2  13
ATOM      9  C   UNL     1      -0.304   1.529  -0.025  0.00  0.00    +0.044 C 
ATOM     10  C   UNL     1      -0.233   0.024  -0.027  0.00  0.00    -0.050 A 
ATOM     11  C   UNL     1      -0.189  -0.663  -1.226  0.00  0.00    +0.005 A 
ATOM     12  C   UNL     1      -0.124  -2.043  -1.230  0.00  0.00    +0.026 A 
ATOM     13  C   UNL     1      -0.103  -2.740  -0.029  0.00  0.00    +0.060 A 
ATOM     14  C   UNL     1      -0.148  -2.046   1.173  0.00  0.00    +0.026 A 
ATOM     15  C   UNL     1      -0.207  -0.666   1.171  0.00  0.00    +0.005 A 
ENDBRANCH   2  13
ENDBRANCH   1   5
BRANCH   1  16
ATOM     16  C   UNL     1      -1.016  -7.067   2.675  0.00  0.00    +0.131 C 
ATOM     17  C   UNL     1      -2.033  -8.018   3.271  0.00  0.00    +0.047 C 
ATOM     18  N   UNL     1      -1.387  -8.876   3.960  0.00  0.00    -0.181 NA
ATOM     19  N   UNL     1      -0.012  -8.669   3.942  0.00  0.00    -0.160 N 
ATOM     20  C   UNL     1       0.311  -7.592   3.189  0.00  0.00    +0.249 C 
ATOM     21  O   UNL     1       1.417  -7.144   2.970  0.00  0.00    -0.273 OA
ATOM     22  C   UNL     1      -3.527  -7.960   3.086  0.00  0.00    +0.063 C 
BRANCH  19  23
ATOM     23  C   UNL     1       0.918  -9.469   4.616  0.00  0.00    +0.060 A 
ATOM     24  C   UNL     1       2.274  -9.176   4.540  0.00  0.00    +0.026 A 
ATOM     25  C   UNL     1       3.188  -9.967   5.207  0.00  0.00    +0.005 A 
ATOM     26  C   UNL     1       2.756 -11.051   5.949  0.00  0.00    -0.050 A 
ATOM     27  C   UNL     1       1.407 -11.346   6.026  0.00  0.00    +0.005 A 
ATOM     28  C   UNL     1       0.487 -10.555   5.367  0.00  0.00    +0.026 A 
ATOM     29  C   UNL     1       3.757 -11.913   6.675  0.00  0.00    +0.044 C 
ENDBRANCH  19  23
ENDBRANCH   1  16
BRANCH   1  30
ATOM     30  C   UNL     1      -0.970  -8.554   0.691  0.00  0.00    +0.001 A 
ATOM     31  C   UNL     1       0.134  -9.316   1.024  0.00  0.00    +0.040 A 
ATOM     32  C   UNL     1       0.218 -10.632   0.606  0.00  0.00    +0.127 A 
ATOM     33  C   UNL     1      -0.801 -11.187  -0.146  0.00  0.00    +0.036 A 
ATOM     34  C   UNL     1      -1.906 -10.429  -0.481  0.00  0.00    +0.048 A 
ATOM     35  C   UNL     1      -1.996  -9.111  -0.058  0.00  0.00    +0.120 A 
BRANCH  32  36
ATOM     36  N   UNL     1       1.401 -11.446   0.964  0.00  0.00    +0.056 N 
ATOM     37  O   UNL     1       2.292 -10.961   1.620  0.00  0.00    -0.126 OA
ATOM     38  O   UNL     1       1.476 -12.596   0.599  0.00  0.00    -0.126 OA
ENDBRANCH  32  36
BRANCH  35  39
ATOM     39  O   UNL     1      -3.084  -8.364  -0.383  0.00  0.00    -0.506 OA
ATOM     40  H   UNL     1      -2.999  -7.887  -1.220  0.00  0.00    +0.292 HD
ENDBRANCH  35  39
ENDBRANCH   1  30
TORSDOF 7
