REMARK  Name = ZINC58171160
REMARK  6 active torsions:
REMARK  status: ('A' for Active; 'I' for Inactive)
REMARK    1  A    between atoms: C_1  and  C_2
REMARK    2  A    between atoms: C_2  and  C_4
REMARK    3  A    between atoms: C_2  and  O_22
REMARK    4  A    between atoms: N_10  and  C_12
REMARK    5  A    between atoms: C_12  and  C_13
REMARK    6  A    between atoms: O_22  and  C_23
REMARK                            x       y       z     vdW  Elec       q    Type
REMARK                         _______ _______ _______ _____ _____    ______ ____
ROOT
ATOM      1  C   UNL     1       0.693  -0.727   1.265  0.00  0.00    +0.259 C 
ATOM      2  O   UNL     1      -0.004  -1.180   2.148  0.00  0.00    -0.271 OA
ATOM      3  N   UNL     1       2.030  -0.670   1.424  0.00  0.00    -0.266 N 
ATOM      4  C   UNL     1       2.615  -1.135   2.611  0.00  0.00    +0.147 A 
ATOM      5  C   UNL     1       1.931  -1.686   3.706  0.00  0.00    +0.065 A 
ATOM      6  C   UNL     1       2.848  -2.009   4.647  0.00  0.00    +0.110 A 
ATOM      7  N   UNL     1       4.066  -1.677   4.170  0.00  0.00    -0.264 N 
ATOM      8  N   UNL     1       3.897  -1.136   2.889  0.00  0.00    -0.156 NA
ATOM      9  H   UNL     1       2.588  -0.308   0.718  0.00  0.00    +0.156 HD
ENDROOT
BRANCH   1  11
ATOM     10  C   UNL     1       0.290   1.280  -0.134  0.00  0.00    +0.062 C 
ATOM     11  C   UNL     1       0.064  -0.228  -0.010  0.00  0.00    +0.256 C 
BRANCH  11  12
ATOM     12  O   UNL     1      -1.339  -0.499   0.012  0.00  0.00    -0.480 OA
BRANCH  12  13
ATOM     13  C   UNL     1      -1.966  -0.607  -1.189  0.00  0.00    +0.122 A 
ATOM     14  C   UNL     1      -1.270  -0.349  -2.361  0.00  0.00    +0.047 A 
ATOM     15  C   UNL     1      -1.909  -0.459  -3.581  0.00  0.00    +0.023 A 
ATOM     16  C   UNL     1      -3.242  -0.826  -3.634  0.00  0.00    +0.041 A 
ATOM     17  C   UNL     1      -3.938  -1.083  -2.466  0.00  0.00    +0.023 A 
ATOM     18  C   UNL     1      -3.300  -0.981  -1.244  0.00  0.00    +0.047 A 
ATOM     19 CL   UNL     1      -4.043  -0.964  -5.168  0.00  0.00    -0.084 Cl
ENDBRANCH  12  13
ENDBRANCH  11  12
ENDBRANCH   1  11
BRANCH   7  20
ATOM     20  C   UNL     1       5.341  -1.857   4.867  0.00  0.00    +0.200 C 
BRANCH  20  21
ATOM     21  C   UNL     1       6.278  -2.660   4.001  0.00  0.00    +0.081 A 
ATOM     22  C   UNL     1       7.522  -2.286   3.629  0.00  0.00    +0.117 A 
ATOM     23  N   UNL     1       8.030  -3.291   2.852  0.00  0.00    -0.306 N 
ATOM     24  C   UNL     1       9.227  -3.451   2.215  0.00  0.00    +0.092 A 
ATOM     25  C   UNL     1       9.480  -4.565   1.497  0.00  0.00    +0.018 A 
ATOM     26  C   UNL     1       8.512  -5.578   1.396  0.00  0.00    +0.005 A 
ATOM     27  C   UNL     1       7.316  -5.432   2.026  0.00  0.00    +0.047 A 
ATOM     28  C   UNL     1       7.067  -4.263   2.772  0.00  0.00    +0.138 A 
ATOM     29  N   UNL     1       6.019  -3.861   3.478  0.00  0.00    -0.231 NA
ENDBRANCH  20  21
ENDBRANCH   7  20
TORSDOF 5
