REMARK  Name = ZINC03263163
REMARK  10 active torsions:
REMARK  status: ('A' for Active; 'I' for Inactive)
REMARK    1  A    between atoms: C_1  and  C_2
REMARK    2  A    between atoms: C_2  and  O_3
REMARK    3  A    between atoms: O_3  and  C_4
REMARK    4  A    between atoms: C_4  and  C_6
REMARK    5  A    between atoms: C_7  and  C_31
REMARK    6  A    between atoms: C_10  and  N_11
REMARK    7  A    between atoms: C_12  and  C_14
REMARK    8  A    between atoms: C_14  and  S_15
REMARK    9  A    between atoms: S_15  and  C_16
REMARK   10  A    between atoms: C_19  and  C_21
REMARK                            x       y       z     vdW  Elec       q    Type
REMARK                         _______ _______ _______ _____ _____    ______ ____
ROOT
ATOM      1  N   UNL     1      -3.041  -2.526   2.495  0.00  0.00    -0.279 N 
ATOM      2  C   UNL     1      -3.819  -2.871   3.540  0.00  0.00    +0.228 C 
ATOM      3  O   UNL     1      -4.920  -3.342   3.348  0.00  0.00    -0.275 OA
ATOM      4  H   UNL     1      -2.161  -2.150   2.649  0.00  0.00    +0.155 HD
ENDROOT
BRANCH   1   9
ATOM      5  C   UNL     1      -2.841  -2.416   0.016  0.00  0.00    +0.095 A 
ATOM      6  C   UNL     1      -3.552  -2.716  -1.214  0.00  0.00    +0.005 A 
ATOM      7  C   UNL     1      -4.792  -3.249  -1.056  0.00  0.00    +0.056 A 
ATOM      8  S   UNL     1      -4.977  -3.336   0.712  0.00  0.00    -0.080 S 
ATOM      9  C   UNL     1      -3.499  -2.710   1.200  0.00  0.00    +0.086 A 
BRANCH   6  10
ATOM     10  C   UNL     1      -2.966  -2.457  -2.551  0.00  0.00    -0.017 A 
ATOM     11  C   UNL     1      -2.407  -1.214  -2.841  0.00  0.00    +0.008 A 
ATOM     12  C   UNL     1      -1.862  -0.979  -4.087  0.00  0.00    +0.001 A 
ATOM     13  C   UNL     1      -1.871  -1.975  -5.047  0.00  0.00    +0.000 A 
ATOM     14  C   UNL     1      -2.425  -3.211  -4.765  0.00  0.00    +0.001 A 
ATOM     15  C   UNL     1      -2.967  -3.459  -3.521  0.00  0.00    +0.008 A 
ENDBRANCH   6  10
BRANCH   5  16
ATOM     16  C   UNL     1      -1.497  -1.838   0.006  0.00  0.00    +0.342 C 
ATOM     17  O   UNL     1      -0.522  -2.566  -0.007  0.00  0.00    -0.245 OA
BRANCH  16  18
ATOM     18  O   UNL     1      -1.339  -0.499   0.012  0.00  0.00    -0.461 OA
BRANCH  18  20
ATOM     19  C   UNL     1      -0.019   1.526   0.010  0.00  0.00    +0.048 C 
ATOM     20  C   UNL     1       0.002  -0.004   0.002  0.00  0.00    +0.229 C 
ENDBRANCH  18  20
ENDBRANCH  16  18
ENDBRANCH   5  16
ENDBRANCH   1   9
BRANCH   2  21
ATOM     21  C   UNL     1      -3.321  -2.671   4.948  0.00  0.00    +0.175 C 
BRANCH  21  22
ATOM     22  S   UNL     1      -4.587  -3.227   6.122  0.00  0.00    -0.056 S 
BRANCH  22  23
ATOM     23  C   UNL     1      -3.863  -2.931   7.701  0.00  0.00    +0.278 A 
ATOM     24  N   UNL     1      -2.678  -2.418   7.928  0.00  0.00    -0.101 NA
ATOM     25  N   UNL     1      -2.477  -2.346   9.196  0.00  0.00    -0.106 NA
ATOM     26  C   UNL     1      -3.526  -2.810   9.831  0.00  0.00    +0.251 A 
ATOM     27  O   UNL     1      -4.429  -3.186   8.898  0.00  0.00    -0.411 OA
BRANCH  26  28
ATOM     28  C   UNL     1      -3.693  -2.901  11.294  0.00  0.00    +0.063 A 
ATOM     29  C   UNL     1      -4.774  -3.386  11.960  0.00  0.00    +0.097 A 
ATOM     30  N   UNL     1      -4.560  -3.307  13.305  0.00  0.00    -0.360 N 
ATOM     31  H   UNL     1      -5.189  -3.593  13.985  0.00  0.00    +0.165 HD
ATOM     32  C   UNL     1      -3.319  -2.761  13.559  0.00  0.00    +0.047 A 
ATOM     33  C   UNL     1      -2.718  -2.488  12.319  0.00  0.00    +0.012 A 
ATOM     34  C   UNL     1      -1.441  -1.932  12.270  0.00  0.00    +0.011 A 
ATOM     35  C   UNL     1      -0.773  -1.655  13.442  0.00  0.00    +0.001 A 
ATOM     36  C   UNL     1      -1.364  -1.927  14.667  0.00  0.00    +0.002 A 
ATOM     37  C   UNL     1      -2.629  -2.470  14.731  0.00  0.00    +0.026 A 
ENDBRANCH  26  28
ENDBRANCH  22  23
ENDBRANCH  21  22
ENDBRANCH   2  21
TORSDOF 9
