REMARK  Name = ZINC27668051
REMARK  9 active torsions:
REMARK  status: ('A' for Active; 'I' for Inactive)
REMARK    1  A    between atoms: C_1  and  O_2
REMARK    2  A    between atoms: O_2  and  C_3
REMARK    3  A    between atoms: C_6  and  C_9
REMARK    4  A    between atoms: C_9  and  C_11
REMARK    5  A    between atoms: C_9  and  N_26
REMARK    6  A    between atoms: C_11  and  N_12
REMARK    7  A    between atoms: C_13  and  C_15
REMARK    8  A    between atoms: C_15  and  C_16
REMARK    9  A    between atoms: C_16  and  C_17
REMARK                            x       y       z     vdW  Elec       q    Type
REMARK                         _______ _______ _______ _____ _____    ______ ____
ROOT
ATOM      1  C   UNL     1      -2.486   0.987   0.002  0.00  0.00    -0.020 C 
ENDROOT
BRANCH   1   2
ATOM      2  N   UNL     1      -3.383   1.794  -0.836  0.00  0.00    +0.385 N 
ATOM      3  C   UNL     1      -4.770   1.325  -0.726  0.00  0.00    -0.078 C 
ATOM      4  C   UNL     1      -5.694   2.274  -1.493  0.00  0.00    -0.019 C 
ATOM      5  C   UNL     1      -5.265   2.317  -2.963  0.00  0.00    -0.004 C 
ATOM      6  C   UNL     1      -3.803   2.762  -3.047  0.00  0.00    -0.019 C 
ATOM      7  C   UNL     1      -2.934   1.799  -2.234  0.00  0.00    -0.078 C 
ATOM      8  H   UNL     1      -3.349   2.831  -0.469  0.00  0.00    -0.081 HD
ENDBRANCH   1   2
BRANCH   1  12
ATOM      9  C   UNL     1       1.493   2.518  -0.292  0.00  0.00    +0.120 A 
ATOM     10  C   UNL     1       1.276   1.149  -0.264  0.00  0.00    +0.046 A 
ATOM     11  C   UNL     1      -0.011   0.656  -0.165  0.00  0.00    +0.005 A 
ATOM     12  C   UNL     1      -1.083   1.527  -0.099  0.00  0.00    -0.059 A 
ATOM     13  C   UNL     1      -0.869   2.893  -0.121  0.00  0.00    +0.005 A 
ATOM     14  C   UNL     1       0.416   3.391  -0.220  0.00  0.00    +0.046 A 
BRANCH   9  16
ATOM     15  C   UNL     1       2.906   4.427  -0.413  0.00  0.00    +0.277 C 
ATOM     16  O   UNL     1       2.758   3.005  -0.390  0.00  0.00    -0.495 OA
ENDBRANCH   9  16
ENDBRANCH   1  12
BRANCH   1  17
ATOM     17  C   UNL     1      -2.954   1.051   1.458  0.00  0.00    +0.093 C 
BRANCH  17  18
ATOM     18  N   UNL     1      -2.103   0.189   2.282  0.00  0.00    -0.317 N 
ATOM     19  C   UNL     1      -2.379   0.023   3.591  0.00  0.00    +0.213 C 
ATOM     20  O   UNL     1      -3.330   0.589   4.086  0.00  0.00    -0.276 OA
ATOM     21  H   UNL     1      -1.240  -0.324   1.832  0.00  0.00    +0.149 HD
BRANCH  19  22
ATOM     22  C   UNL     1      -1.504  -0.864   4.439  0.00  0.00    +0.105 C 
BRANCH  22  23
ATOM     23  C   UNL     1      -2.032  -0.878   5.875  0.00  0.00    +0.105 C 
BRANCH  23  24
ATOM     24  C   UNL     1      -1.157  -1.766   6.722  0.00  0.00    +0.197 A 
ATOM     25  N   UNL     1      -0.104  -1.369   7.371  0.00  0.00    -0.213 NA
ATOM     26  C   UNL     1       0.433  -2.432   8.027  0.00  0.00    +0.110 A 
ATOM     27  C   UNL     1       1.542  -2.594   8.861  0.00  0.00    +0.031 A 
ATOM     28  C   UNL     1       1.832  -3.837   9.377  0.00  0.00    +0.002 A 
ATOM     29  C   UNL     1       1.030  -4.928   9.075  0.00  0.00    +0.004 A 
ATOM     30  C   UNL     1      -0.068  -4.783   8.253  0.00  0.00    +0.048 A 
ATOM     31  C   UNL     1      -0.375  -3.538   7.724  0.00  0.00    +0.155 A 
ATOM     32  O   UNL     1      -1.352  -3.080   6.910  0.00  0.00    -0.440 OA
ENDBRANCH  23  24
ENDBRANCH  22  23
ENDBRANCH  19  22
ENDBRANCH  17  18
ENDBRANCH   1  17
TORSDOF 8
