REMARK  Name = ZINC23635464
REMARK  7 active torsions:
REMARK  status: ('A' for Active; 'I' for Inactive)
REMARK    1  A    between atoms: C_1  and  C_2
REMARK    2  A    between atoms: N_11  and  C_15
REMARK    3  A    between atoms: C_15  and  C_16
REMARK    4  A    between atoms: C_16  and  O_18
REMARK    5  A    between atoms: O_18  and  C_19
REMARK    6  A    between atoms: C_19  and  C_20
REMARK    7  A    between atoms: C_23  and  C_25
REMARK                            x       y       z     vdW  Elec       q    Type
REMARK                         _______ _______ _______ _____ _____    ______ ____
ROOT
ATOM      1  C   UNL     1      -3.260  -1.886   2.395  0.00  0.00    +0.326 C 
ATOM      2  O   UNL     1      -2.352  -2.222   1.671  0.00  0.00    -0.249 OA
ENDROOT
BRANCH   1   3
ATOM      3  C   UNL     1      -3.301  -0.488   2.955  0.00  0.00    +0.238 C 
BRANCH   3  13
ATOM      4  C   UNL     1      -1.536   3.561   2.539  0.00  0.00    +0.010 C 
ATOM      5  C   UNL     1      -0.790   3.101   1.286  0.00  0.00    +0.018 C 
ATOM      6  C   UNL     1      -1.527   3.600   0.040  0.00  0.00    +0.006 C 
ATOM      7  C   UNL     1      -0.790   3.122  -1.213  0.00  0.00    +0.000 C 
ATOM      8  C   UNL     1      -0.753   1.593  -1.233  0.00  0.00    +0.003 C 
ATOM      9  C   UNL     1      -0.013   1.086   0.008  0.00  0.00    +0.035 C 
ATOM     10  C   UNL     1      -0.726   1.577   1.263  0.00  0.00    +0.115 C 
ATOM     11  C   UNL     1      -2.117   0.991   1.342  0.00  0.00    +0.247 C 
ATOM     12  O   UNL     1      -3.023   1.142   0.552  0.00  0.00    -0.273 OA
ATOM     13  N   UNL     1      -2.136   0.263   2.478  0.00  0.00    -0.213 N 
ATOM     14  C   UNL     1      -0.960   0.312   3.115  0.00  0.00    +0.310 C 
ATOM     15  O   UNL     1      -0.734  -0.264   4.161  0.00  0.00    -0.252 OA
ATOM     16  N   UNL     1      -0.056   1.072   2.468  0.00  0.00    -0.285 N 
ATOM     17  H   UNL     1       0.989   1.346   2.672  0.00  0.00    +0.151 HD
ENDBRANCH   3  13
ENDBRANCH   1   3
BRANCH   1  18
ATOM     18  O   UNL     1      -4.233  -2.760   2.699  0.00  0.00    -0.457 OA
BRANCH  18  19
ATOM     19  C   UNL     1      -4.129  -4.089   2.124  0.00  0.00    +0.288 C 
BRANCH  19  20
ATOM     20  C   UNL     1      -5.301  -4.923   2.574  0.00  0.00    +0.086 A 
ATOM     21  C   UNL     1      -6.240  -4.390   3.399  0.00  0.00    +0.074 A 
ATOM     22  S   UNL     1      -7.345  -5.784   3.586  0.00  0.00    -0.075 S 
ATOM     23  C   UNL     1      -6.434  -6.924   2.554  0.00  0.00    +0.109 A 
ATOM     24  N   UNL     1      -5.413  -6.168   2.173  0.00  0.00    -0.241 NA
BRANCH  23  25
ATOM     25  C   UNL     1      -6.736  -8.332   2.217  0.00  0.00    +0.007 A 
ATOM     26  C   UNL     1      -5.883  -9.049   1.377  0.00  0.00    +0.013 A 
ATOM     27  C   UNL     1      -6.167 -10.363   1.069  0.00  0.00    +0.039 A 
ATOM     28  C   UNL     1      -7.303 -10.968   1.584  0.00  0.00    +0.123 A 
ATOM     29  C   UNL     1      -8.156 -10.258   2.414  0.00  0.00    +0.039 A 
ATOM     30  C   UNL     1      -7.879  -8.945   2.732  0.00  0.00    +0.013 A 
ATOM     31  F   UNL     1      -7.580 -12.254   1.275  0.00  0.00    -0.205 F 
ENDBRANCH  23  25
ENDBRANCH  19  20
ENDBRANCH  18  19
ENDBRANCH   1  18
TORSDOF 6
