REMARK  Name = ZINC02654827
REMARK  13 active torsions:
REMARK  status: ('A' for Active; 'I' for Inactive)
REMARK    1  A    between atoms: C_1  and  C_2
REMARK    2  A    between atoms: C_2  and  C_4
REMARK    3  A    between atoms: C_2  and  O_18
REMARK    4  A    between atoms: N_6  and  C_7
REMARK    5  A    between atoms: C_9  and  N_15
REMARK    6  A    between atoms: C_12  and  O_13
REMARK    7  A    between atoms: O_13  and  C_14
REMARK    8  A    between atoms: O_18  and  C_19
REMARK    9  A    between atoms: C_19  and  C_21
REMARK   10  A    between atoms: C_24  and  S_27
REMARK   11  A    between atoms: S_27  and  N_30
REMARK   12  A    between atoms: N_30  and  C_31
REMARK   13  A    between atoms: C_31  and  C_32
REMARK                            x       y       z     vdW  Elec       q    Type
REMARK                         _______ _______ _______ _____ _____    ______ ____
ROOT
ATOM      1  C   UNL     1      -6.786  -3.085  -0.994  0.00  0.00    +0.340 C 
ATOM      2  O   UNL     1      -7.760  -2.563  -1.500  0.00  0.00    -0.245 OA
ENDROOT
BRANCH   1   3
ATOM      3  C   UNL     1      -6.564  -4.538  -1.144  0.00  0.00    +0.059 A 
ATOM      4  C   UNL     1      -5.443  -5.139  -0.569  0.00  0.00    +0.017 A 
ATOM      5  C   UNL     1      -5.245  -6.497  -0.709  0.00  0.00    +0.029 A 
ATOM      6  C   UNL     1      -6.149  -7.261  -1.426  0.00  0.00    +0.105 A 
ATOM      7  C   UNL     1      -7.260  -6.671  -2.003  0.00  0.00    +0.029 A 
ATOM      8  C   UNL     1      -7.473  -5.315  -1.866  0.00  0.00    +0.017 A 
BRANCH   6   9
ATOM      9  S   UNL     1      -5.885  -8.994  -1.606  0.00  0.00    +0.059 S 
ATOM     10  O   UNL     1      -5.066  -9.395  -0.515  0.00  0.00    -0.153 OA
ATOM     11  O   UNL     1      -7.157  -9.575  -1.857  0.00  0.00    -0.153 OA
BRANCH   9  12
ATOM     12  N   UNL     1      -4.985  -9.213  -2.978  0.00  0.00    -0.183 NA
ATOM     13  H   UNL     1      -5.364  -9.682  -3.737  0.00  0.00    +0.148 HD
BRANCH  12  14
ATOM     14  C   UNL     1      -3.615  -8.696  -3.047  0.00  0.00    +0.180 C 
BRANCH  14  15
ATOM     15  C   UNL     1      -2.898  -9.326  -4.213  0.00  0.00    +0.120 A 
ATOM     16  C   UNL     1      -2.863  -8.843  -5.468  0.00  0.00    +0.046 A 
ATOM     17  C   UNL     1      -2.084  -9.743  -6.231  0.00  0.00    +0.041 A 
ATOM     18  C   UNL     1      -1.691 -10.722  -5.397  0.00  0.00    +0.195 A 
ATOM     19  O   UNL     1      -2.182 -10.461  -4.175  0.00  0.00    -0.466 OA
ENDBRANCH  14  15
ENDBRANCH  12  14
ENDBRANCH   9  12
ENDBRANCH   6   9
ENDBRANCH   1   3
BRANCH   1  20
ATOM     20  O   UNL     1      -5.908  -2.338  -0.296  0.00  0.00    -0.449 OA
BRANCH  20  22
ATOM     21  C   UNL     1      -7.042  -0.658   1.053  0.00  0.00    +0.062 C 
ATOM     22  C   UNL     1      -6.189  -0.918  -0.190  0.00  0.00    +0.259 C 
BRANCH  22  23
ATOM     23  C   UNL     1      -4.893  -0.156  -0.078  0.00  0.00    +0.258 C 
ATOM     24  O   UNL     1      -3.837  -0.752  -0.087  0.00  0.00    -0.271 OA
ATOM     25  N   UNL     1      -4.908   1.187   0.032  0.00  0.00    -0.279 N 
ATOM     26  H   UNL     1      -5.752   1.657   0.120  0.00  0.00    +0.155 HD
BRANCH  25  27
ATOM     27  C   UNL     1      -3.705   1.904   0.019  0.00  0.00    +0.078 A 
ATOM     28  C   UNL     1      -2.582   1.369  -0.596  0.00  0.00    +0.059 A 
ATOM     29  C   UNL     1      -1.397   2.079  -0.608  0.00  0.00    +0.128 A 
ATOM     30  C   UNL     1      -1.324   3.320  -0.002  0.00  0.00    +0.036 A 
ATOM     31  C   UNL     1      -2.439   3.862   0.609  0.00  0.00    +0.050 A 
ATOM     32  C   UNL     1      -3.632   3.157   0.625  0.00  0.00    +0.141 A 
BRANCH  29  33
ATOM     33  N   UNL     1      -0.200   1.506  -1.264  0.00  0.00    +0.056 N 
ATOM     34  O   UNL     1      -0.261   0.411  -1.794  0.00  0.00    -0.126 OA
ATOM     35  O   UNL     1       0.845   2.133  -1.280  0.00  0.00    -0.126 OA
ENDBRANCH  29  33
BRANCH  32  36
ATOM     36  O   UNL     1      -4.729   3.686   1.230  0.00  0.00    -0.493 OA
ATOM     37  C   UNL     1      -4.580   4.974   1.829  0.00  0.00    +0.277 C 
ENDBRANCH  32  36
ENDBRANCH  25  27
ENDBRANCH  22  23
ENDBRANCH  20  22
ENDBRANCH   1  20
TORSDOF 11
