REMARK  Name = ZINC21560740
REMARK  9 active torsions:
REMARK  status: ('A' for Active; 'I' for Inactive)
REMARK    1  A    between atoms: C_1  and  C_2
REMARK    2  A    between atoms: C_7  and  C_9
REMARK    3  A    between atoms: C_7  and  C_10
REMARK    4  A    between atoms: N_13  and  C_17
REMARK    5  A    between atoms: C_17  and  C_18
REMARK    6  A    between atoms: N_20  and  C_21
REMARK    7  A    between atoms: C_21  and  C_22
REMARK    8  A    between atoms: C_22  and  C_23
REMARK    9  A    between atoms: C_23  and  N_24
REMARK                            x       y       z     vdW  Elec       q    Type
REMARK                         _______ _______ _______ _____ _____    ______ ____
ROOT
ATOM      1  C   UNL     1      -4.972  -3.399  -2.310  0.00  0.00    +0.231 C 
ATOM      2  O   UNL     1      -4.651  -2.256  -2.558  0.00  0.00    -0.274 OA
ATOM      3  N   UNL     1      -6.127  -3.895  -2.795  0.00  0.00    -0.314 N 
ATOM      4  H   UNL     1      -6.383  -4.809  -2.596  0.00  0.00    +0.149 HD
ENDROOT
BRANCH   1   5
ATOM      5  C   UNL     1      -4.079  -4.264  -1.458  0.00  0.00    +0.213 C 
BRANCH   5  17
ATOM      6  C   UNL     1      -0.159   1.471  -0.048  0.00  0.00    +0.007 C 
ATOM      7  C   UNL     1      -0.085  -0.057  -0.027  0.00  0.00    -0.011 C 
ATOM      8  C   UNL     1      -1.501  -0.636   0.015  0.00  0.00    +0.038 C 
ATOM      9  C   UNL     1      -1.428  -2.159   0.057  0.00  0.00    +0.113 C 
ATOM     10  C   UNL     1      -0.642  -2.627   1.276  0.00  0.00    +0.041 C 
ATOM     11  C   UNL     1       0.772  -2.041   1.230  0.00  0.00    -0.032 C 
ATOM     12  C   UNL     1       0.688  -0.513   1.212  0.00  0.00    +0.009 C 
ATOM     13  C   UNL     1       1.553  -2.495   2.465  0.00  0.00    +0.011 C 
ATOM     14  C   UNL     1       1.485  -2.527  -0.033  0.00  0.00    +0.011 C 
ATOM     15  C   UNL     1      -2.817  -2.754   0.064  0.00  0.00    +0.247 C 
ATOM     16  O   UNL     1      -3.679  -2.595   0.901  0.00  0.00    -0.273 OA
ATOM     17  N   UNL     1      -2.895  -3.499  -1.058  0.00  0.00    -0.215 N 
ATOM     18  C   UNL     1      -1.756  -3.453  -1.761  0.00  0.00    +0.310 C 
ATOM     19  O   UNL     1      -1.585  -4.042  -2.810  0.00  0.00    -0.252 OA
ATOM     20  N   UNL     1      -0.823  -2.679  -1.176  0.00  0.00    -0.285 N 
ATOM     21  H   UNL     1       0.073  -2.500  -1.504  0.00  0.00    +0.151 HD
ENDBRANCH   5  17
ENDBRANCH   1   5
BRANCH   3  22
ATOM     22  C   UNL     1      -6.995  -3.054  -3.623  0.00  0.00    +0.106 C 
BRANCH  22  23
ATOM     23  C   UNL     1      -8.232  -3.853  -4.040  0.00  0.00    +0.038 C 
BRANCH  23  24
ATOM     24  C   UNL     1      -9.138  -2.975  -4.905  0.00  0.00    +0.119 C 
BRANCH  24  25
ATOM     25  N   UNL     1     -10.322  -3.740  -5.305  0.00  0.00    -0.224 N 
ATOM     26  C   UNL     1     -10.399  -4.490  -6.425  0.00  0.00    +0.246 C 
ATOM     27  O   UNL     1      -9.536  -4.653  -7.261  0.00  0.00    -0.273 OA
ATOM     28  C   UNL     1     -11.786  -5.080  -6.415  0.00  0.00    +0.113 C 
ATOM     29  C   UNL     1     -11.732  -6.614  -6.399  0.00  0.00    +0.035 C 
ATOM     30  C   UNL     1     -12.954  -7.040  -7.253  0.00  0.00    +0.003 C 
ATOM     31  C   UNL     1     -12.983  -5.968  -8.372  0.00  0.00    +0.003 C 
ATOM     32  C   UNL     1     -12.578  -4.661  -7.655  0.00  0.00    +0.035 C 
ATOM     33  N   UNL     1     -12.396  -4.559  -5.190  0.00  0.00    -0.285 N 
ATOM     34  C   UNL     1     -11.461  -3.787  -4.601  0.00  0.00    +0.309 C 
ATOM     35  O   UNL     1     -11.633  -3.197  -3.553  0.00  0.00    -0.252 OA
ATOM     36  H   UNL     1     -13.293  -4.737  -4.865  0.00  0.00    +0.151 HD
ENDBRANCH  24  25
ENDBRANCH  23  24
ENDBRANCH  22  23
ENDBRANCH   3  22
TORSDOF 6
