REMARK  Name = ZINC01129728
REMARK  8 active torsions:
REMARK  status: ('A' for Active; 'I' for Inactive)
REMARK    1  A    between atoms: C_1  and  C_2
REMARK    2  A    between atoms: C_5  and  C_23
REMARK    3  A    between atoms: C_7  and  C_8
REMARK    4  A    between atoms: C_8  and  C_10
REMARK    5  A    between atoms: C_10  and  C_11
REMARK    6  A    between atoms: C_11  and  O_22
REMARK    7  A    between atoms: C_23  and  C_24
REMARK    8  A    between atoms: C_23  and  C_25
REMARK                            x       y       z     vdW  Elec       q    Type
REMARK                         _______ _______ _______ _____ _____    ______ ____
ROOT
ATOM      1  C   UNL     1       0.719  -0.006  -0.517  0.00  0.00    +0.175 C 
ATOM      2  C   UNL     1       1.299   1.384  -0.652  0.00  0.00    +0.016 A 
ATOM      3  C   UNL     1       2.589   1.865  -0.644  0.00  0.00    +0.028 A 
ATOM      4  C   UNL     1       2.821   3.222  -0.794  0.00  0.00    +0.041 A 
ATOM      5  C   UNL     1       1.753   4.089  -0.950  0.00  0.00    +0.022 A 
ATOM      6  C   UNL     1       0.460   3.608  -0.958  0.00  0.00    +0.025 A 
ATOM      7  C   UNL     1       0.219   2.244  -0.808  0.00  0.00    +0.040 A 
ATOM      8  N   UNL     1      -0.977   1.526  -0.783  0.00  0.00    -0.282 N 
ATOM      9  C   UNL     1      -0.776   0.208  -0.617  0.00  0.00    +0.254 C 
ATOM     10  O   UNL     1      -1.632  -0.650  -0.559  0.00  0.00    -0.272 OA
ATOM     11 CL   UNL     1       4.445   3.834  -0.784  0.00  0.00    -0.084 Cl
ATOM     12  H   UNL     1      -1.853   1.931  -0.878  0.00  0.00    +0.155 HD
ENDROOT
BRANCH   1  13
ATOM     13  O   UNL     1       1.061  -0.569   0.751  0.00  0.00    -0.374 OA
ATOM     14  H   UNL     1       0.665  -1.436   0.915  0.00  0.00    +0.211 HD
ENDBRANCH   1  13
BRANCH   1  15
ATOM     15  C   UNL     1       1.209  -0.907  -1.652  0.00  0.00    +0.129 C 
BRANCH  15  16
ATOM     16  C   UNL     1       0.455  -2.211  -1.620  0.00  0.00    +0.167 C 
ATOM     17  O   UNL     1      -0.391  -2.401  -0.773  0.00  0.00    -0.292 OA
BRANCH  16  24
ATOM     18  C   UNL     1      -0.804  -4.805  -1.379  0.00  0.00    +0.044 C 
ATOM     19  C   UNL     1       0.144  -4.512  -2.513  0.00  0.00    -0.040 A 
ATOM     20  C   UNL     1       0.417  -5.482  -3.454  0.00  0.00    +0.004 A 
ATOM     21  C   UNL     1       1.291  -5.217  -4.493  0.00  0.00    +0.004 A 
ATOM     22  C   UNL     1       1.895  -3.976  -4.600  0.00  0.00    -0.044 A 
ATOM     23  C   UNL     1       1.628  -2.993  -3.670  0.00  0.00    +0.015 A 
ATOM     24  C   UNL     1       0.745  -3.254  -2.617  0.00  0.00    +0.021 A 
BRANCH  22  25
ATOM     25  C   UNL     1       2.845  -3.697  -5.736  0.00  0.00    +0.013 C 
ATOM     26  C   UNL     1       4.020  -4.676  -5.669  0.00  0.00    +0.012 C 
ATOM     27  C   UNL     1       2.113  -3.869  -7.068  0.00  0.00    +0.012 C 
ENDBRANCH  22  25
ENDBRANCH  16  24
ENDBRANCH  15  16
ENDBRANCH   1  15
TORSDOF 5
