REMARK  Name = ZINC64609372
REMARK  8 active torsions:
REMARK  status: ('A' for Active; 'I' for Inactive)
REMARK    1  A    between atoms: C_1  and  C_2
REMARK    2  A    between atoms: C_7  and  N_8
REMARK    3  A    between atoms: C_9  and  C_11
REMARK    4  A    between atoms: C_11  and  C_12
REMARK    5  A    between atoms: C_11  and  N_13
REMARK    6  A    between atoms: N_13  and  C_14
REMARK    7  A    between atoms: N_20  and  C_25
REMARK    8  A    between atoms: N_23  and  C_24
REMARK                            x       y       z     vdW  Elec       q    Type
REMARK                         _______ _______ _______ _____ _____    ______ ____
ROOT
ATOM      1  C   UNL     1      -0.169   0.055   4.882  0.00  0.00    +0.154 C 
ATOM      2  C   UNL     1       1.058   0.951   5.063  0.00  0.00    +0.038 C 
ENDROOT
BRANCH   1   4
ATOM      3  N   UNL     1       0.025  -0.013   2.417  0.00  0.00    -0.284 N 
ATOM      4  C   UNL     1      -0.057  -0.692   3.578  0.00  0.00    +0.237 C 
ATOM      5  O   UNL     1      -0.040  -1.905   3.574  0.00  0.00    -0.273 OA
ATOM      6  H   UNL     1       0.077   0.955   2.424  0.00  0.00    +0.155 HD
BRANCH   3  13
ATOM      7  C   UNL     1      -1.266   1.182   0.182  0.00  0.00    +0.045 C 
ATOM      8  C   UNL     1      -0.585  -0.159   0.085  0.00  0.00    -0.029 A 
ATOM      9  C   UNL     1      -0.570  -0.841  -1.117  0.00  0.00    +0.008 A 
ATOM     10  C   UNL     1       0.055  -2.070  -1.208  0.00  0.00    +0.039 A 
ATOM     11  C   UNL     1       0.668  -2.623  -0.095  0.00  0.00    +0.125 A 
ATOM     12  C   UNL     1       0.656  -1.944   1.110  0.00  0.00    +0.062 A 
ATOM     13  C   UNL     1       0.034  -0.706   1.201  0.00  0.00    +0.039 A 
ATOM     14  F   UNL     1       1.278  -3.825  -0.187  0.00  0.00    -0.205 F 
ENDBRANCH   3  13
ENDBRANCH   1   4
BRANCH   1  15
ATOM     15  N   UNL     1      -0.242  -0.902   5.989  0.00  0.00    -0.333 N 
ATOM     16  H   UNL     1       0.134  -1.790   5.888  0.00  0.00    +0.147 HD
BRANCH  15  17
ATOM     17  C   UNL     1      -0.855  -0.534   7.192  0.00  0.00    +0.030 A 
ATOM     18  C   UNL     1      -1.399   0.738   7.333  0.00  0.00    +0.025 A 
ATOM     19  C   UNL     1      -2.005   1.106   8.518  0.00  0.00    +0.030 A 
ATOM     20  C   UNL     1      -2.072   0.206   9.570  0.00  0.00    +0.070 A 
ATOM     21  C   UNL     1      -1.527  -1.072   9.431  0.00  0.00    +0.071 A 
ATOM     22  C   UNL     1      -0.924  -1.441   8.239  0.00  0.00    +0.051 A 
ATOM     23  N   UNL     1      -1.745  -1.736  10.636  0.00  0.00    -0.295 N 
ATOM     24  C   UNL     1      -2.393  -0.901  11.470  0.00  0.00    +0.330 A 
ATOM     25  O   UNL     1      -2.735  -1.172  12.607  0.00  0.00    -0.246 OA
ATOM     26  N   UNL     1      -2.605   0.278  10.858  0.00  0.00    -0.295 N 
ATOM     27  C   UNL     1      -3.280   1.440  11.442  0.00  0.00    +0.154 C 
ATOM     28  C   UNL     1      -1.339  -3.110  10.943  0.00  0.00    +0.154 C 
ENDBRANCH  15  17
ENDBRANCH   1  15
TORSDOF 4
