REMARK  Name = ZINC49121561
REMARK  3 active torsions:
REMARK  status: ('A' for Active; 'I' for Inactive)
REMARK    1  A    between atoms: C_1  and  C_2
REMARK    2  A    between atoms: C_2  and  C_3
REMARK    3  A    between atoms: C_9  and  N_11
REMARK                            x       y       z     vdW  Elec       q    Type
REMARK                         _______ _______ _______ _____ _____    ______ ____
ROOT
ATOM      1  N   UNL     1      -0.750  -2.444   1.369  0.00  0.00    -0.309 N 
ATOM      2  C   UNL     1      -1.419  -3.247   0.459  0.00  0.00    +0.073 A 
ATOM      3  C   UNL     1      -1.048  -3.884  -0.716  0.00  0.00    +0.028 A 
ATOM      4  C   UNL     1      -1.973  -4.632  -1.414  0.00  0.00    +0.005 A 
ATOM      5  C   UNL     1      -3.275  -4.752  -0.950  0.00  0.00    +0.040 A 
ATOM      6  C   UNL     1      -3.662  -4.125   0.216  0.00  0.00    +0.151 A 
ATOM      7  C   UNL     1      -2.735  -3.364   0.935  0.00  0.00    +0.126 A 
ATOM      8  N   UNL     1      -2.809  -2.645   2.087  0.00  0.00    -0.212 NA
ATOM      9  C   UNL     1      -1.643  -2.109   2.346  0.00  0.00    +0.194 A 
ATOM     10  N   UNL     1      -1.359  -1.319   3.441  0.00  0.00    -0.329 N 
ATOM     11  F   UNL     1      -4.931  -4.245   0.661  0.00  0.00    -0.203 F 
ATOM     12  H   UNL     1      -0.468  -0.957   3.560  0.00  0.00    +0.145 HD
ATOM     13  H   UNL     1      -2.052  -1.127   4.093  0.00  0.00    +0.145 HD
ENDROOT
BRANCH   1  19
ATOM     14  C   UNL     1       0.742  -0.511   1.242  0.00  0.00    +0.012 C 
ATOM     15  C   UNL     1       2.210  -0.086   1.169  0.00  0.00    +0.005 C 
ATOM     16  C   UNL     1       2.950  -0.593   2.408  0.00  0.00    +0.000 C 
ATOM     17  C   UNL     1       2.863  -2.119   2.465  0.00  0.00    +0.002 C 
ATOM     18  C   UNL     1       1.395  -2.544   2.538  0.00  0.00    +0.025 C 
ATOM     19  C   UNL     1       0.655  -2.037   1.299  0.00  0.00    +0.094 C 
BRANCH  14  21
ATOM     20  C   UNL     1      -0.019   1.526   0.010  0.00  0.00    +0.004 C 
ATOM     21  C   UNL     1       0.002  -0.004   0.002  0.00  0.00    +0.002 C 
ENDBRANCH  14  21
ENDBRANCH   1  19
TORSDOF 2
