REMARK  Name = ZINC54696198
REMARK  7 active torsions:
REMARK  status: ('A' for Active; 'I' for Inactive)
REMARK    1  A    between atoms: C_1  and  C_2
REMARK    2  A    between atoms: C_7  and  S_10
REMARK    3  A    between atoms: S_10  and  C_11
REMARK    4  A    between atoms: C_11  and  C_12
REMARK    5  A    between atoms: C_14  and  N_20
REMARK    6  A    between atoms: C_17  and  N_18
REMARK    7  A    between atoms: N_18  and  N_19
REMARK                            x       y       z     vdW  Elec       q    Type
REMARK                         _______ _______ _______ _____ _____    ______ ____
ROOT
ATOM      1  C   UNL     1       2.424  -5.071   3.635  0.00  0.00    -0.013 A 
ATOM      2  C   UNL     1       3.794  -5.240   3.598  0.00  0.00    +0.039 A 
ATOM      3  C   UNL     1       4.450  -5.819   4.668  0.00  0.00    +0.127 A 
ATOM      4  C   UNL     1       3.737  -6.232   5.779  0.00  0.00    +0.034 A 
ATOM      5  C   UNL     1       2.367  -6.066   5.823  0.00  0.00    +0.027 A 
ATOM      6  C   UNL     1       1.705  -5.479   4.752  0.00  0.00    +0.045 A 
ENDROOT
BRANCH   3   7
ATOM      7  N   UNL     1       5.918  -6.000   4.625  0.00  0.00    +0.056 N 
ATOM      8  O   UNL     1       6.543  -5.640   3.654  0.00  0.00    -0.126 OA
ATOM      9  O   UNL     1       6.493  -6.506   5.560  0.00  0.00    -0.126 OA
ENDBRANCH   3   7
BRANCH   6  10
ATOM     10  N   UNL     1       0.320  -5.304   4.795  0.00  0.00    -0.283 N 
ATOM     11  H   UNL     1      -0.141  -4.897   4.044  0.00  0.00    +0.166 HD
BRANCH  10  12
ATOM     12  N   UNL     1      -0.385  -5.705   5.894  0.00  0.00    -0.257 NA
ATOM     13  H   UNL     1      -0.027  -5.271   6.731  0.00  0.00    +0.140 HD
ATOM     14  H   UNL     1      -1.369  -5.516   5.780  0.00  0.00    +0.140 HD
ENDBRANCH  10  12
ENDBRANCH   6  10
BRANCH   1  15
ATOM     15  C   UNL     1       1.710  -4.439   2.468  0.00  0.00    +0.106 C 
BRANCH  15  16
ATOM     16  S   UNL     1       1.640  -2.642   2.703  0.00  0.00    -0.153 S 
BRANCH  16  22
ATOM     17  C   UNL     1      -0.019   1.526   0.010  0.00  0.00    +0.007 C 
ATOM     18  C   UNL     1       0.002  -0.004   0.002  0.00  0.00    -0.013 C 
ATOM     19  C   UNL     1      -1.433  -0.534   0.013  0.00  0.00    +0.003 C 
ATOM     20  C   UNL     1      -1.413  -2.063   0.004  0.00  0.00    +0.001 C 
ATOM     21  C   UNL     1      -0.673  -2.570   1.244  0.00  0.00    +0.014 C 
ATOM     22  C   UNL     1       0.763  -2.041   1.233  0.00  0.00    +0.047 C 
ATOM     23  C   UNL     1       0.742  -0.511   1.242  0.00  0.00    +0.017 C 
ENDBRANCH  16  22
ENDBRANCH  15  16
ENDBRANCH   1  15
TORSDOF 6
