REMARK  Name = ZINC36754215
REMARK  7 active torsions:
REMARK  status: ('A' for Active; 'I' for Inactive)
REMARK    1  A    between atoms: C_1  and  C_2
REMARK    2  A    between atoms: C_2  and  C_25
REMARK    3  A    between atoms: N_5  and  N_9
REMARK    4  A    between atoms: C_10  and  C_12
REMARK    5  A    between atoms: C_12  and  N_13
REMARK    6  A    between atoms: C_25  and  C_26
REMARK    7  A    between atoms: C_26  and  C_27
REMARK                            x       y       z     vdW  Elec       q    Type
REMARK                         _______ _______ _______ _____ _____    ______ ____
ROOT
ATOM      1  C   UNL     1      -0.019   1.526   0.010  0.00  0.00    +0.041 C 
ATOM      2  C   UNL     1       0.002  -0.004   0.002  0.00  0.00    +0.112 C 
ATOM      3  C   UNL     1       0.815  -0.520  -1.169  0.00  0.00    +0.263 C 
ATOM      4  O   UNL     1       0.595  -0.342  -2.348  0.00  0.00    -0.271 OA
ATOM      5  N   UNL     1       1.833  -1.217  -0.627  0.00  0.00    -0.137 N 
ATOM      6  C   UNL     1       1.777  -1.214   0.710  0.00  0.00    +0.326 C 
ATOM      7  O   UNL     1       2.586  -1.776   1.421  0.00  0.00    -0.251 OA
ATOM      8  N   UNL     1       0.724  -0.519   1.178  0.00  0.00    -0.284 N 
ATOM      9  H   UNL     1       0.487  -0.383   2.109  0.00  0.00    +0.151 HD
ENDROOT
BRANCH   5  10
ATOM     10  N   UNL     1       2.826  -1.867  -1.372  0.00  0.00    -0.222 N 
ATOM     11  C   UNL     1       4.063  -1.337  -1.451  0.00  0.00    +0.247 C 
ATOM     12  O   UNL     1       4.316  -0.299  -0.878  0.00  0.00    -0.273 OA
ATOM     13  H   UNL     1       2.623  -2.697  -1.830  0.00  0.00    +0.174 HD
BRANCH  11  14
ATOM     14  C   UNL     1       5.131  -2.036  -2.252  0.00  0.00    +0.202 C 
BRANCH  14  15
ATOM     15  N   UNL     1       6.376  -1.266  -2.181  0.00  0.00    -0.319 N 
ATOM     16  C   UNL     1       6.663  -0.218  -3.170  0.00  0.00    +0.106 C 
ATOM     17  C   UNL     1       8.123  -0.379  -3.613  0.00  0.00    +0.024 C 
ATOM     18  C   UNL     1       9.033  -0.148  -2.407  0.00  0.00    +0.039 C 
ATOM     19  C   UNL     1       8.596  -1.000  -1.245  0.00  0.00    -0.021 A 
ATOM     20  C   UNL     1       7.311  -1.513  -1.165  0.00  0.00    +0.069 A 
ATOM     21  C   UNL     1       6.934  -2.290  -0.073  0.00  0.00    +0.147 A 
ATOM     22  C   UNL     1       7.841  -2.548   0.938  0.00  0.00    +0.078 A 
ATOM     23  C   UNL     1       9.124  -2.033   0.860  0.00  0.00    +0.126 A 
ATOM     24  C   UNL     1       9.503  -1.268  -0.232  0.00  0.00    +0.044 A 
ATOM     25  F   UNL     1      10.013  -2.286   1.846  0.00  0.00    -0.205 F 
ATOM     26  F   UNL     1       5.682  -2.791  -0.000  0.00  0.00    -0.203 F 
ENDBRANCH  14  15
ENDBRANCH  11  14
ENDBRANCH   5  10
BRANCH   2  27
ATOM     27  C   UNL     1      -1.423  -0.560  -0.041  0.00  0.00    +0.040 C 
BRANCH  27  28
ATOM     28  C   UNL     1      -2.200  -0.066   1.182  0.00  0.00    +0.038 C 
BRANCH  28  29
ATOM     29  C   UNL     1      -3.603  -0.614   1.140  0.00  0.00    -0.047 A 
ATOM     30  C   UNL     1      -4.603   0.095   0.500  0.00  0.00    +0.003 A 
ATOM     31  C   UNL     1      -5.890  -0.407   0.461  0.00  0.00    +0.000 A 
ATOM     32  C   UNL     1      -6.178  -1.618   1.062  0.00  0.00    +0.000 A 
ATOM     33  C   UNL     1      -5.178  -2.328   1.701  0.00  0.00    +0.000 A 
ATOM     34  C   UNL     1      -3.889  -1.827   1.736  0.00  0.00    +0.003 A 
ENDBRANCH  28  29
ENDBRANCH  27  28
ENDBRANCH   2  27
TORSDOF 6
