REMARK  Name = ZINC39453456
REMARK  1 active torsions:
REMARK  status: ('A' for Active; 'I' for Inactive)
REMARK    1  A    between atoms: C_18  and  O_21
REMARK                            x       y       z     vdW  Elec       q    Type
REMARK                         _______ _______ _______ _____ _____    ______ ____
ROOT
ATOM      1  C   UNL     1      -0.017   1.388   0.010  0.00  0.00    +0.003 A 
ATOM      2  C   UNL     1       1.130   2.120   0.003  0.00  0.00    +0.028 A 
ATOM      3  C   UNL     1       2.374   1.464  -0.012  0.00  0.00    +0.073 A 
ATOM      4  C   UNL     1       2.391  -0.001  -0.021  0.00  0.00    +0.014 A 
ATOM      5  C   UNL     1       3.627  -0.665  -0.037  0.00  0.00    +0.026 A 
ATOM      6  C   UNL     1       4.778   0.110  -0.040  0.00  0.00    +0.068 A 
ATOM      7  C   UNL     1       4.687   1.527  -0.027  0.00  0.00    +0.100 A 
ATOM      8  N   UNL     1       3.520   2.144  -0.015  0.00  0.00    -0.245 NA
ATOM      9  C   UNL     1       5.942   2.299  -0.026  0.00  0.00    +0.084 A 
ATOM     10  C   UNL     1       7.155   1.640  -0.042  0.00  0.00    +0.122 A 
ATOM     11  N   UNL     1       7.215   0.250  -0.055  0.00  0.00    -0.237 N 
ATOM     12  C   UNL     1       6.110  -0.515  -0.055  0.00  0.00    +0.271 A 
ATOM     13  O   UNL     1       6.212  -1.728  -0.067  0.00  0.00    -0.266 OA
ATOM     14 BR   UNL     1       8.872  -0.572  -0.073  0.00  0.00    +0.058 Br
ATOM     15  C   UNL     1       8.358   2.382  -0.051  0.00  0.00    +0.186 C 
ATOM     16  O   UNL     1       9.424   1.801  -0.016  0.00  0.00    -0.290 OA
ATOM     17  C   UNL     1       8.331   3.888  -0.103  0.00  0.00    +0.132 C 
ATOM     18  C   UNL     1       7.054   4.396   0.575  0.00  0.00    +0.207 C 
ATOM     19  N   UNL     1       5.908   3.680  -0.006  0.00  0.00    -0.316 N 
ATOM     20  C   UNL     1       1.173  -0.701  -0.013  0.00  0.00    +0.023 A 
ATOM     21  C   UNL     1       0.002  -0.004   0.002  0.00  0.00    +0.015 A 
ATOM     22  I   UNL     1       1.156  -2.796  -0.025  0.00  0.00    -0.043 I 
ATOM     23  H   UNL     1       5.148   4.164  -0.365  0.00  0.00    +0.149 HD
ENDROOT
BRANCH  18  24
ATOM     24  O   UNL     1       7.120   4.144   1.980  0.00  0.00    -0.374 OA
ATOM     25  H   UNL     1       6.342   4.442   2.470  0.00  0.00    +0.212 HD
ENDBRANCH  18  24
TORSDOF 1
