REMARK  Name = ZINC63458481
REMARK  5 active torsions:
REMARK  status: ('A' for Active; 'I' for Inactive)
REMARK    1  A    between atoms: C_1  and  O_2
REMARK    2  A    between atoms: O_2  and  C_3
REMARK    3  A    between atoms: C_10  and  C_18
REMARK    4  A    between atoms: N_24  and  C_27
REMARK    5  A    between atoms: C_31  and  C_33
REMARK                            x       y       z     vdW  Elec       q    Type
REMARK                         _______ _______ _______ _____ _____    ______ ____
ROOT
ATOM      1  C   UNL     1       0.553  -3.788   5.265  0.00  0.00    +0.101 A 
ATOM      2  C   UNL     1       0.103  -4.054   6.571  0.00  0.00    +0.263 A 
ATOM      3  N   UNL     1      -1.190  -3.840   6.885  0.00  0.00    -0.274 N 
ATOM      4  H   UNL     1      -1.503  -4.023   7.785  0.00  0.00    +0.173 HD
ATOM      5  C   UNL     1      -2.050  -3.374   5.961  0.00  0.00    +0.337 A 
ATOM      6  O   UNL     1      -3.212  -3.187   6.264  0.00  0.00    -0.246 OA
ATOM      7  N   UNL     1      -1.642  -3.112   4.705  0.00  0.00    -0.229 N 
ATOM      8  C   UNL     1      -0.331  -3.311   4.344  0.00  0.00    +0.270 A 
ATOM      9  O   UNL     1       0.076  -3.042   3.085  0.00  0.00    -0.267 OA
ATOM     10  O   UNL     1       0.877  -4.476   7.412  0.00  0.00    -0.267 OA
ENDROOT
BRANCH   1  17
ATOM     11  C   UNL     1       0.394   0.907   2.430  0.00  0.00    +0.121 A 
ATOM     12  C   UNL     1       0.648   1.423   3.713  0.00  0.00    +0.047 A 
ATOM     13  C   UNL     1       1.273   0.706   4.672  0.00  0.00    +0.029 A 
ATOM     14  C   UNL     1       1.711  -0.663   4.391  0.00  0.00    +0.043 A 
ATOM     15  N   UNL     1       2.307  -1.563   5.139  0.00  0.00    -0.376 N 
ATOM     16  C   UNL     1       2.592  -2.733   4.315  0.00  0.00    +0.128 C 
ATOM     17  C   UNL     1       1.994  -4.020   4.892  0.00  0.00    +0.121 C 
ATOM     18  N   UNL     1       2.078  -5.070   3.864  0.00  0.00    -0.307 NA
ATOM     19  C   UNL     1       1.223  -4.812   2.703  0.00  0.00    +0.086 C 
ATOM     20  C   UNL     1       1.712  -3.558   1.954  0.00  0.00    +0.048 C 
ATOM     21  C   UNL     1       1.895  -2.470   2.990  0.00  0.00    -0.035 C 
ATOM     22  C   UNL     1       1.435  -1.214   3.040  0.00  0.00    +0.003 A 
ATOM     23  C   UNL     1       0.749  -0.350   2.072  0.00  0.00    +0.055 A 
ATOM     24  H   UNL     1       3.035  -5.224   3.582  0.00  0.00    +0.123 HD
ATOM     25  H   UNL     1       2.522  -1.467   6.080  0.00  0.00    +0.160 HD
BRANCH  11  27
ATOM     26  C   UNL     1      -0.594   3.013   1.939  0.00  0.00    +0.277 C 
ATOM     27  O   UNL     1      -0.236   1.694   1.520  0.00  0.00    -0.495 OA
ENDBRANCH  11  27
ENDBRANCH   1  17
BRANCH   7  28
ATOM     28  C   UNL     1      -2.558  -2.627   3.763  0.00  0.00    +0.055 A 
ATOM     29  C   UNL     1      -2.808  -1.265   3.672  0.00  0.00    +0.026 A 
ATOM     30  C   UNL     1      -3.712  -0.790   2.742  0.00  0.00    +0.003 A 
ATOM     31  C   UNL     1      -4.367  -1.671   1.901  0.00  0.00    +0.012 A 
ATOM     32  C   UNL     1      -4.120  -3.028   1.988  0.00  0.00    +0.057 A 
ATOM     33  C   UNL     1      -3.213  -3.509   2.913  0.00  0.00    +0.038 A 
BRANCH  32  34
ATOM     34  C   UNL     1      -4.838  -3.985   1.071  0.00  0.00    +0.417 C 
ATOM     35  F   UNL     1      -5.693  -3.268   0.227  0.00  0.00    -0.166 F 
ATOM     36  F   UNL     1      -3.901  -4.683   0.301  0.00  0.00    -0.166 F 
ATOM     37  F   UNL     1      -5.584  -4.891   1.832  0.00  0.00    -0.166 F 
ENDBRANCH  32  34
ENDBRANCH   7  28
TORSDOF 4
