REMARK  Name = ZINC59044944
REMARK  10 active torsions:
REMARK  status: ('A' for Active; 'I' for Inactive)
REMARK    1  A    between atoms: C_1  and  C_2
REMARK    2  A    between atoms: C_2  and  C_3
REMARK    3  A    between atoms: C_3  and  C_4
REMARK    4  A    between atoms: C_4  and  S_5
REMARK    5  A    between atoms: S_5  and  C_6
REMARK    6  A    between atoms: C_12  and  C_14
REMARK    7  A    between atoms: C_14  and  S_15
REMARK    8  A    between atoms: S_15  and  C_16
REMARK    9  A    between atoms: C_19  and  C_22
REMARK   10  A    between atoms: N_20  and  N_21
REMARK                            x       y       z     vdW  Elec       q    Type
REMARK                         _______ _______ _______ _____ _____    ______ ____
ROOT
ATOM      1  S   UNL     1       0.859 -11.687  -0.887  0.00  0.00    -0.075 S 
ENDROOT
BRANCH   1   2
ATOM      2  C   UNL     1       1.010 -13.374  -1.372  0.00  0.00    +0.209 A 
ATOM      3  N   UNL     1       1.482 -13.816  -2.516  0.00  0.00    -0.121 NA
ATOM      4  N   UNL     1       1.450 -15.101  -2.540  0.00  0.00    -0.127 NA
ATOM      5  C   UNL     1       0.956 -15.557  -1.412  0.00  0.00    +0.183 A 
ATOM      6  N   UNL     1       0.664 -14.465  -0.628  0.00  0.00    -0.224 N 
BRANCH   5   7
ATOM      7  C   UNL     1       0.755 -16.977  -1.052  0.00  0.00    +0.035 A 
ATOM      8  C   UNL     1      -0.459 -17.397  -0.507  0.00  0.00    +0.013 A 
ATOM      9  C   UNL     1      -0.640 -18.724  -0.173  0.00  0.00    +0.001 A 
ATOM     10  C   UNL     1       0.380 -19.637  -0.377  0.00  0.00    +0.001 A 
ATOM     11  C   UNL     1       1.586 -19.228  -0.916  0.00  0.00    +0.016 A 
ATOM     12  C   UNL     1       1.778 -17.904  -1.260  0.00  0.00    +0.029 A 
ATOM     13 BR   UNL     1       3.425 -17.348  -2.004  0.00  0.00    -0.050 Br
ENDBRANCH   5   7
BRANCH   6  14
ATOM     14  N   UNL     1       0.136 -14.472   0.632  0.00  0.00    -0.295 N 
ATOM     15  H   UNL     1      -0.870 -14.532   0.602  0.00  0.00    +0.163 HD
ATOM     16  H   UNL     1       0.527 -15.220   1.184  0.00  0.00    +0.163 HD
ENDBRANCH   6  14
ENDBRANCH   1   2
BRANCH   1  17
ATOM     17  C   UNL     1       1.486 -10.761  -2.315  0.00  0.00    +0.173 C 
BRANCH  17  24
ATOM     18  C   UNL     1       1.771  -4.372  -2.522  0.00  0.00    +0.160 A 
ATOM     19  N   UNL     1       1.333  -5.135  -1.531  0.00  0.00    -0.133 NA
ATOM     20  N   UNL     1       1.327  -6.394  -1.611  0.00  0.00    -0.125 NA
ATOM     21  C   UNL     1       1.758  -7.030  -2.688  0.00  0.00    +0.189 A 
ATOM     22  S   UNL     1       2.221  -5.635  -3.709  0.00  0.00    -0.024 S 
ATOM     23  N   UNL     1       1.827  -8.396  -2.953  0.00  0.00    -0.263 N 
ATOM     24  C   UNL     1       1.412  -9.284  -2.028  0.00  0.00    +0.229 C 
ATOM     25  O   UNL     1       0.978  -8.893  -0.964  0.00  0.00    -0.275 OA
ATOM     26  H   UNL     1       2.173  -8.708  -3.804  0.00  0.00    +0.157 HD
BRANCH  18  27
ATOM     27  S   UNL     1       1.876  -2.617  -2.639  0.00  0.00    -0.097 S 
BRANCH  27  28
ATOM     28  C   UNL     1       1.238  -2.032  -1.046  0.00  0.00    +0.076 C 
BRANCH  28  29
ATOM     29  C   UNL     1       1.273  -0.503  -1.013  0.00  0.00    +0.011 C 
BRANCH  29  31
ATOM     30  C   UNL     1       0.769   1.520   0.364  0.00  0.00    +0.004 C 
ATOM     31  C   UNL     1       0.734  -0.009   0.332  0.00  0.00    -0.003 C 
ENDBRANCH  29  31
ENDBRANCH  28  29
ENDBRANCH  27  28
ENDBRANCH  18  27
ENDBRANCH  17  24
ENDBRANCH   1  17
TORSDOF 9
