REMARK  Name = ZINC62001468
REMARK  2 active torsions:
REMARK  status: ('A' for Active; 'I' for Inactive)
REMARK    1  A    between atoms: C_4  and  N_7
REMARK    2  A    between atoms: C_8  and  C_10
REMARK                            x       y       z     vdW  Elec       q    Type
REMARK                         _______ _______ _______ _____ _____    ______ ____
ROOT
ATOM      1  C   UNL     1       4.849  -2.918  -0.060  0.00  0.00    +0.111 C 
ATOM      2  C   UNL     1       5.680  -2.636  -1.341  0.00  0.00    +0.034 C 
ATOM      3  C   UNL     1       6.454  -3.965  -1.514  0.00  0.00    +0.059 C 
ATOM      4  C   UNL     1       6.775  -4.173  -3.002  0.00  0.00    +0.020 C 
ATOM      5  C   UNL     1       5.961  -5.418  -3.422  0.00  0.00    +0.017 C 
ATOM      6  C   UNL     1       4.823  -5.457  -2.373  0.00  0.00    +0.086 C 
ATOM      7  N   UNL     1       5.492  -5.021  -1.101  0.00  0.00    -0.282 NA
ATOM      8  C   UNL     1       4.512  -4.412  -0.188  0.00  0.00    +0.137 C 
ATOM      9  C   UNL     1       4.524  -5.082   1.159  0.00  0.00    +0.004 A 
ATOM     10  C   UNL     1       5.495  -5.256   2.119  0.00  0.00    +0.008 A 
ATOM     11  C   UNL     1       5.200  -5.934   3.288  0.00  0.00    +0.000 A 
ATOM     12  C   UNL     1       3.926  -6.435   3.490  0.00  0.00    +0.002 A 
ATOM     13  C   UNL     1       2.950  -6.263   2.531  0.00  0.00    +0.023 A 
ATOM     14  C   UNL     1       3.240  -5.581   1.351  0.00  0.00    +0.039 A 
ATOM     15  N   UNL     1       2.436  -5.282   0.249  0.00  0.00    -0.283 N 
ATOM     16  C   UNL     1       3.106  -4.599  -0.698  0.00  0.00    +0.243 C 
ATOM     17  O   UNL     1       2.663  -4.209  -1.757  0.00  0.00    -0.273 OA
ATOM     18  H   UNL     1       1.503  -5.538   0.174  0.00  0.00    +0.155 HD
ENDROOT
BRANCH   1  20
ATOM     19  N   UNL     1       3.032  -1.733   1.129  0.00  0.00    -0.285 N 
ATOM     20  C   UNL     1       3.592  -2.087  -0.045  0.00  0.00    +0.223 C 
ATOM     21  O   UNL     1       3.084  -1.737  -1.089  0.00  0.00    -0.275 OA
ATOM     22  H   UNL     1       3.471  -1.960   1.964  0.00  0.00    +0.155 HD
BRANCH  19  26
ATOM     23  C   UNL     1      -0.584   0.336   1.173  0.00  0.00    +0.000 A 
ATOM     24  C   UNL     1      -0.306  -0.590   2.162  0.00  0.00    +0.002 A 
ATOM     25  C   UNL     1       0.891  -1.277   2.150  0.00  0.00    +0.023 A 
ATOM     26  C   UNL     1       1.817  -1.038   1.143  0.00  0.00    +0.033 A 
ATOM     27  C   UNL     1       1.536  -0.108   0.151  0.00  0.00    +0.023 A 
ATOM     28  C   UNL     1       0.337   0.576   0.169  0.00  0.00    +0.002 A 
ENDBRANCH  19  26
ENDBRANCH   1  20
TORSDOF 2
