REMARK  Name = ZINC63541306
REMARK  9 active torsions:
REMARK  status: ('A' for Active; 'I' for Inactive)
REMARK    1  A    between atoms: C_1  and  C_2
REMARK    2  A    between atoms: C_2  and  C_3
REMARK    3  A    between atoms: C_3  and  C_5
REMARK    4  A    between atoms: C_3  and  S_14
REMARK    5  A    between atoms: N_7  and  C_8
REMARK    6  A    between atoms: S_14  and  C_15
REMARK    7  A    between atoms: N_26  and  C_27
REMARK    8  A    between atoms: C_27  and  C_28
REMARK    9  A    between atoms: C_28  and  C_29
REMARK                            x       y       z     vdW  Elec       q    Type
REMARK                         _______ _______ _______ _____ _____    ______ ____
ROOT
ATOM      1  C   UNL     1       0.365   1.871  -1.131  0.00  0.00    +0.224 C 
ATOM      2  N   UNL     1       1.787   2.071  -0.829  0.00  0.00    -0.300 N 
ATOM      3  C   UNL     1       2.399   1.237   0.091  0.00  0.00    +0.151 A 
ATOM      4  C   UNL     1       1.614   0.693   1.124  0.00  0.00    +0.165 A 
ATOM      5  N   UNL     1       2.173  -0.089   2.036  0.00  0.00    -0.246 NA
ATOM      6  C   UNL     1       3.462  -0.363   1.959  0.00  0.00    +0.131 A 
ATOM      7  C   UNL     1       4.233   0.161   0.932  0.00  0.00    +0.132 A 
ATOM      8  N   UNL     1       3.689   0.949   0.020  0.00  0.00    -0.237 NA
ATOM      9  C   UNL     1       0.170   1.003   1.151  0.00  0.00    +0.270 C 
ATOM     10  O   UNL     1      -0.508   0.687   2.109  0.00  0.00    -0.268 OA
ATOM     11  N   UNL     1      -0.385   1.638   0.104  0.00  0.00    -0.268 N 
ATOM     12  H   UNL     1       2.289   2.776  -1.267  0.00  0.00    +0.150 HD
ENDROOT
BRANCH   1  13
ATOM     13  S   UNL     1       0.180   0.436  -2.225  0.00  0.00    -0.106 S 
BRANCH  13  14
ATOM     14  C   UNL     1       0.844  -0.945  -1.255  0.00  0.00    +0.135 C 
BRANCH  14  15
ATOM     15  C   UNL     1       0.220  -0.941   0.117  0.00  0.00    +0.226 C 
ATOM     16  O   UNL     1      -0.661  -0.150   0.380  0.00  0.00    -0.275 OA
ATOM     17  N   UNL     1       0.640  -1.816   1.052  0.00  0.00    -0.312 N 
ATOM     18  H   UNL     1       1.345  -2.449   0.841  0.00  0.00    +0.149 HD
BRANCH  17  19
ATOM     19  C   UNL     1       0.034  -1.812   2.385  0.00  0.00    +0.073 C 
ATOM     20  C   UNL     1       0.732  -0.767   3.259  0.00  0.00    +0.022 C 
ATOM     21  C   UNL     1       0.098  -0.763   4.652  0.00  0.00    +0.002 C 
ATOM     22  C   UNL     1       0.254  -2.146   5.287  0.00  0.00    +0.000 C 
ATOM     23  C   UNL     1      -0.444  -3.190   4.413  0.00  0.00    +0.002 C 
ATOM     24  C   UNL     1       0.189  -3.195   3.020  0.00  0.00    +0.022 C 
ENDBRANCH  17  19
ENDBRANCH  14  15
BRANCH  14  26
ATOM     25  C   UNL     1       3.019  -1.096  -2.473  0.00  0.00    +0.005 C 
ATOM     26  C   UNL     1       2.361  -0.795  -1.126  0.00  0.00    +0.020 C 
ENDBRANCH  14  26
ENDBRANCH  13  14
ENDBRANCH   1  13
BRANCH  11  27
ATOM     27  C   UNL     1      -1.771   2.103   0.203  0.00  0.00    +0.115 C 
BRANCH  27  28
ATOM     28  C   UNL     1      -2.715   1.001  -0.281  0.00  0.00    +0.052 C 
BRANCH  28  29
ATOM     29  C   UNL     1      -4.140   1.480  -0.179  0.00  0.00    -0.040 C 
ATOM     30  C   UNL     1      -4.882   2.041  -1.161  0.00  0.00    -0.001 A 
ATOM     31  C   UNL     1      -4.595   2.362  -2.564  0.00  0.00    +0.010 A 
ATOM     32  C   UNL     1      -5.561   2.935  -3.317  0.00  0.00    +0.001 A 
ATOM     33  C   UNL     1      -6.827   3.229  -2.792  0.00  0.00    +0.002 A 
ATOM     34  C   UNL     1      -7.166   2.964  -1.513  0.00  0.00    +0.026 A 
ATOM     35  C   UNL     1      -6.227   2.362  -0.631  0.00  0.00    +0.043 A 
ATOM     36  N   UNL     1      -6.313   2.013   0.630  0.00  0.00    -0.380 N 
ATOM     37  C   UNL     1      -5.033   1.425   1.041  0.00  0.00    +0.144 C 
ATOM     38  H   UNL     1      -7.093   2.121   1.195  0.00  0.00    +0.160 HD
ENDBRANCH  28  29
ENDBRANCH  27  28
ENDBRANCH  11  27
TORSDOF 8
