REMARK  Name = ZINC07047484
REMARK  6 active torsions:
REMARK  status: ('A' for Active; 'I' for Inactive)
REMARK    1  A    between atoms: C_1  and  C_2
REMARK    2  A    between atoms: C_10  and  C_11
REMARK    3  A    between atoms: C_11  and  O_13
REMARK    4  A    between atoms: O_13  and  C_14
REMARK    5  A    between atoms: C_14  and  C_15
REMARK    6  A    between atoms: C_17  and  C_20
REMARK                            x       y       z     vdW  Elec       q    Type
REMARK                         _______ _______ _______ _____ _____    ______ ____
ROOT
ATOM      1  C   UNL     1      -1.319   4.778   0.038  0.00  0.00    +0.376 C 
ATOM      2  O   UNL     1      -0.773   5.864   0.038  0.00  0.00    -0.241 OA
ENDROOT
BRANCH   1  12
ATOM      3  C   UNL     1       1.789   4.680   0.009  0.00  0.00    +0.048 C 
ATOM      4  C   UNL     1       0.844   3.506   0.012  0.00  0.00    +0.010 A 
ATOM      5  C   UNL     1       1.203   2.088   0.002  0.00  0.00    +0.024 A 
ATOM      6  C   UNL     1       2.413   1.390  -0.014  0.00  0.00    +0.012 A 
ATOM      7  C   UNL     1       2.406   0.024  -0.021  0.00  0.00    +0.001 A 
ATOM      8  C   UNL     1       1.206  -0.674  -0.013  0.00  0.00    +0.004 A 
ATOM      9  C   UNL     1       0.002  -0.004   0.002  0.00  0.00    +0.047 A 
ATOM     10  C   UNL     1      -0.017   1.386   0.010  0.00  0.00    +0.136 A 
ATOM     11  O   UNL     1      -1.011   2.295   0.019  0.00  0.00    -0.448 OA
ATOM     12  C   UNL     1      -0.514   3.550   0.025  0.00  0.00    +0.216 A 
ENDBRANCH   1  12
BRANCH   1  13
ATOM     13  O   UNL     1      -2.666   4.701   0.051  0.00  0.00    -0.449 OA
BRANCH  13  14
ATOM     14  C   UNL     1      -3.398   5.955   0.063  0.00  0.00    +0.331 C 
BRANCH  14  15
ATOM     15  C   UNL     1      -4.878   5.672   0.076  0.00  0.00    +0.265 A 
ATOM     16  N   UNL     1      -5.631   5.522   1.136  0.00  0.00    -0.188 NA
ATOM     17  C   UNL     1      -6.879   5.288   0.665  0.00  0.00    +0.209 A 
ATOM     18  N   UNL     1      -6.808   5.310  -0.643  0.00  0.00    -0.055 NA
ATOM     19  O   UNL     1      -5.668   5.534  -0.993  0.00  0.00    -0.334 OA
BRANCH  17  20
ATOM     20  C   UNL     1      -8.092   5.051   1.474  0.00  0.00    +0.060 A 
ATOM     21  C   UNL     1      -9.375   4.815   1.057  0.00  0.00    +0.019 A 
ATOM     22  C   UNL     1     -10.354   4.617   2.005  0.00  0.00    +0.008 A 
ATOM     23  C   UNL     1     -10.021   4.671   3.321  0.00  0.00    +0.046 A 
ATOM     24  S   UNL     1      -8.269   5.005   3.251  0.00  0.00    -0.093 S 
ENDBRANCH  17  20
ENDBRANCH  14  15
ENDBRANCH  13  14
ENDBRANCH   1  13
TORSDOF 5
