REMARK  Name = ZINC05863419
REMARK  7 active torsions:
REMARK  status: ('A' for Active; 'I' for Inactive)
REMARK    1  A    between atoms: C_1  and  C_2
REMARK    2  A    between atoms: C_12  and  C_14
REMARK    3  A    between atoms: C_14  and  C_16
REMARK    4  A    between atoms: C_14  and  S_17
REMARK    5  A    between atoms: S_17  and  C_18
REMARK    6  A    between atoms: C_21  and  C_24
REMARK    7  A    between atoms: N_22  and  C_23
REMARK                            x       y       z     vdW  Elec       q    Type
REMARK                         _______ _______ _______ _____ _____    ______ ____
ROOT
ATOM      1  C   UNL     1       0.167   6.274   0.018  0.00  0.00    +0.137 C 
ATOM      2  C   UNL     1      -0.682   6.167   1.286  0.00  0.00    +0.029 C 
ENDROOT
BRANCH   1  13
ATOM      3  C   UNL     1       0.923  10.680   0.447  0.00  0.00    +0.029 C 
ATOM      4  C   UNL     1       0.454  10.025  -0.854  0.00  0.00    +0.083 C 
ATOM      5  C   UNL     1      -0.763  10.774  -1.423  0.00  0.00    +0.059 C 
ATOM      6  C   UNL     1      -1.871   9.745  -1.434  0.00  0.00    -0.024 A 
ATOM      7  C   UNL     1      -3.191   9.839  -1.833  0.00  0.00    +0.005 A 
ATOM      8  C   UNL     1      -4.023   8.739  -1.746  0.00  0.00    +0.000 A 
ATOM      9  C   UNL     1      -3.532   7.543  -1.257  0.00  0.00    +0.002 A 
ATOM     10  C   UNL     1      -2.216   7.444  -0.857  0.00  0.00    +0.024 A 
ATOM     11  C   UNL     1      -1.369   8.551  -0.943  0.00  0.00    +0.040 A 
ATOM     12  N   UNL     1      -0.019   8.663  -0.595  0.00  0.00    -0.267 N 
ATOM     13  C   UNL     1       0.734   7.666  -0.091  0.00  0.00    +0.233 C 
ATOM     14  O   UNL     1       1.869   7.889   0.275  0.00  0.00    -0.274 OA
ENDBRANCH   1  13
BRANCH   1  15
ATOM     15  S   UNL     1       1.521   5.075   0.095  0.00  0.00    -0.074 S 
BRANCH  15  16
ATOM     16  C   UNL     1       0.601   3.572   0.063  0.00  0.00    +0.192 A 
ATOM     17  N   UNL     1      -0.706   3.460  -0.001  0.00  0.00    -0.122 NA
ATOM     18  N   UNL     1      -1.045   2.221  -0.011  0.00  0.00    -0.125 NA
ATOM     19  C   UNL     1       0.028   1.462   0.054  0.00  0.00    +0.200 A 
ATOM     20  N   UNL     1       1.116   2.307   0.100  0.00  0.00    -0.303 N 
ATOM     21  C   UNL     1       2.529   1.927   0.173  0.00  0.00    +0.153 C 
BRANCH  19  22
ATOM     22  C   UNL     1       0.060  -0.008   0.068  0.00  0.00    +0.172 A 
ATOM     23  C   UNL     1      -1.000  -0.830   0.308  0.00  0.00    +0.053 A 
ATOM     24  C   UNL     1      -0.517  -2.150   0.222  0.00  0.00    +0.042 A 
ATOM     25  C   UNL     1       0.798  -2.073  -0.063  0.00  0.00    +0.196 A 
ATOM     26  O   UNL     1       1.143  -0.778  -0.161  0.00  0.00    -0.460 OA
ENDBRANCH  19  22
ENDBRANCH  15  16
ENDBRANCH   1  15
TORSDOF 4
