REMARK  Name = ZINC39302181
REMARK  5 active torsions:
REMARK  status: ('A' for Active; 'I' for Inactive)
REMARK    1  A    between atoms: N_11  and  C_12
REMARK    2  A    between atoms: C_12  and  C_13
REMARK    3  A    between atoms: C_13  and  N_14
REMARK    4  A    between atoms: C_15  and  C_17
REMARK    5  A    between atoms: C_23  and  C_25
REMARK                            x       y       z     vdW  Elec       q    Type
REMARK                         _______ _______ _______ _____ _____    ______ ____
ROOT
ATOM      1  C   UNL     1       8.942   0.300   2.513  0.00  0.00    +0.091 C 
ATOM      2  C   UNL     1       9.198   1.642   1.823  0.00  0.00    +0.040 C 
ATOM      3  C   UNL     1      10.620   2.071   2.038  0.00  0.00    -0.030 C 
ATOM      4  C   UNL     1      11.395   1.581   2.952  0.00  0.00    -0.030 C 
ATOM      5  C   UNL     1      10.983   0.507   3.917  0.00  0.00    +0.040 C 
ATOM      6  C   UNL     1       9.459   0.385   3.955  0.00  0.00    +0.091 C 
ENDROOT
BRANCH   6   7
ATOM      7  C   UNL     1       8.874   1.598   4.632  0.00  0.00    +0.220 C 
ATOM      8  O   UNL     1       9.156   2.708   4.236  0.00  0.00    -0.275 OA
ATOM      9  N   UNL     1       8.039   1.448   5.679  0.00  0.00    -0.298 N 
ATOM     10  C   UNL     1       7.791   0.118   6.254  0.00  0.00    +0.126 C 
ATOM     11  C   UNL     1       8.108   0.166   7.754  0.00  0.00    +0.125 C 
ATOM     12  N   UNL     1       7.428   1.329   8.341  0.00  0.00    -0.314 N 
ATOM     13  C   UNL     1       7.676   2.659   7.766  0.00  0.00    +0.125 C 
ATOM     14  C   UNL     1       7.363   2.612   6.269  0.00  0.00    +0.126 C 
ATOM     15  C   UNL     1       6.566   1.175   9.420  0.00  0.00    +0.099 A 
ATOM     16  C   UNL     1       6.434  -0.072  10.024  0.00  0.00    +0.042 A 
ATOM     17  C   UNL     1       5.573  -0.212  11.097  0.00  0.00    +0.005 A 
ATOM     18  C   UNL     1       4.870   0.904  11.532  0.00  0.00    +0.018 A 
ATOM     19  C   UNL     1       5.049   2.111  10.886  0.00  0.00    +0.084 A 
ATOM     20  N   UNL     1       5.882   2.216   9.868  0.00  0.00    -0.350 N 
ATOM     21  H   UNL     1       5.993   3.076   9.434  0.00  0.00    +0.166 HD
ENDBRANCH   6   7
BRANCH   1  23
ATOM     22  N   UNL     1       6.791  -0.100   1.358  0.00  0.00    -0.313 N 
ATOM     23  C   UNL     1       7.463   0.009   2.522  0.00  0.00    +0.217 C 
ATOM     24  O   UNL     1       6.878  -0.127   3.575  0.00  0.00    -0.275 OA
ATOM     25  H   UNL     1       7.259   0.008   0.516  0.00  0.00    +0.149 HD
BRANCH  22  26
ATOM     26  C   UNL     1       5.354  -0.383   1.367  0.00  0.00    +0.126 C 
BRANCH  26  27
ATOM     27  C   UNL     1       4.840  -0.456  -0.073  0.00  0.00    +0.145 C 
BRANCH  27  38
ATOM     28  C   UNL     1      -0.020   1.583   0.009  0.00  0.00    +0.002 A 
ATOM     29  C   UNL     1       1.177   2.278   0.011  0.00  0.00    +0.002 A 
ATOM     30  C   UNL     1       2.378   1.597  -0.013  0.00  0.00    +0.028 A 
ATOM     31  C   UNL     1       2.385   0.211  -0.038  0.00  0.00    +0.070 A 
ATOM     32  C   UNL     1       1.178  -0.490  -0.040  0.00  0.00    +0.067 A 
ATOM     33  C   UNL     1      -0.023   0.202  -0.016  0.00  0.00    +0.028 A 
ATOM     34  N   UNL     1       1.500  -1.845  -0.067  0.00  0.00    -0.306 N 
ATOM     35  H   UNL     1       0.865  -2.579  -0.074  0.00  0.00    +0.170 HD
ATOM     36  C   UNL     1       2.841  -1.963  -0.081  0.00  0.00    +0.328 A 
ATOM     37  O   UNL     1       3.452  -3.015  -0.106  0.00  0.00    -0.247 OA
ATOM     38  N   UNL     1       3.403  -0.740  -0.065  0.00  0.00    -0.291 N 
ENDBRANCH  27  38
ENDBRANCH  26  27
ENDBRANCH  22  26
ENDBRANCH   1  23
TORSDOF 5
