REMARK  Name = ZINC48336055
REMARK  12 active torsions:
REMARK  status: ('A' for Active; 'I' for Inactive)
REMARK    1  A    between atoms: C_1  and  C_2
REMARK    2  A    between atoms: C_5  and  S_8
REMARK    3  A    between atoms: S_8  and  C_9
REMARK    4  A    between atoms: C_9  and  C_10
REMARK    5  A    between atoms: C_10  and  N_11
REMARK    6  A    between atoms: N_11  and  C_12
REMARK    7  A    between atoms: N_11  and  C_13
REMARK    8  A    between atoms: C_13  and  C_14
REMARK    9  A    between atoms: C_14  and  C_16
REMARK   10  A    between atoms: C_14  and  C_17
REMARK   11  A    between atoms: C_17  and  O_19
REMARK   12  A    between atoms: O_19  and  C_20
REMARK                            x       y       z     vdW  Elec       q    Type
REMARK                         _______ _______ _______ _____ _____    ______ ____
ROOT
ATOM      1  C   UNL     1       0.661  -6.852   2.305  0.00  0.00    -0.068 C 
ENDROOT
BRANCH   1   2
ATOM      2  N   UNL     1       0.183  -7.027   3.683  0.00  0.00    +0.379 N 
ATOM      3  C   UNL     1       1.252  -6.662   4.623  0.00  0.00    -0.096 C 
ATOM      4  H   UNL     1      -0.618  -6.435   3.839  0.00  0.00    -0.082 HD
BRANCH   2   5
ATOM      5  C   UNL     1      -0.196  -8.431   3.895  0.00  0.00    -0.065 C 
BRANCH   5   6
ATOM      6  C   UNL     1      -1.408  -8.768   3.024  0.00  0.00    +0.078 C 
ATOM      7  C   UNL     1      -2.611  -7.941   3.483  0.00  0.00    +0.017 C 
BRANCH   6   8
ATOM      8  C   UNL     1      -1.728 -10.235   3.154  0.00  0.00    +0.308 C 
ATOM      9  O   UNL     1      -1.055 -10.938   3.870  0.00  0.00    -0.251 OA
BRANCH   8  10
ATOM     10  O   UNL     1      -2.760 -10.759   2.475  0.00  0.00    -0.468 OA
ATOM     11  C   UNL     1      -3.005 -12.157   2.645  0.00  0.00    +0.280 C 
ENDBRANCH   8  10
ENDBRANCH   6   8
ENDBRANCH   5   6
ENDBRANCH   2   5
ENDBRANCH   1   2
BRANCH   1  12
ATOM     12  C   UNL     1       0.939  -5.370   2.047  0.00  0.00    +0.056 C 
BRANCH  12  13
ATOM     13  S   UNL     1       1.529  -5.153   0.345  0.00  0.00    -0.127 S 
BRANCH  13  18
ATOM     14  C   UNL     1       2.455   0.793  -0.133  0.00  0.00    +0.044 C 
ATOM     15  C   UNL     1       2.224  -0.692  -0.013  0.00  0.00    -0.050 A 
ATOM     16  C   UNL     1       2.475  -1.518  -1.094  0.00  0.00    +0.004 A 
ATOM     17  C   UNL     1       2.264  -2.878  -0.988  0.00  0.00    +0.015 A 
ATOM     18  C   UNL     1       1.800  -3.417   0.206  0.00  0.00    +0.008 A 
ATOM     19  C   UNL     1       1.550  -2.584   1.290  0.00  0.00    +0.015 A 
ATOM     20  C   UNL     1       1.768  -1.225   1.178  0.00  0.00    +0.004 A 
ENDBRANCH  13  18
ENDBRANCH  12  13
ENDBRANCH   1  12
TORSDOF 8
