REMARK  Name = ZINC35778370
REMARK  14 active torsions:
REMARK  status: ('A' for Active; 'I' for Inactive)
REMARK    1  A    between atoms: C_1  and  C_2
REMARK    2  A    between atoms: C_2  and  C_3
REMARK    3  A    between atoms: C_2  and  C_4
REMARK    4  A    between atoms: C_4  and  C_6
REMARK    5  A    between atoms: C_4  and  O_36
REMARK    6  A    between atoms: C_6  and  N_7
REMARK    7  A    between atoms: N_7  and  C_8
REMARK    8  A    between atoms: N_7  and  C_29
REMARK    9  A    between atoms: C_8  and  C_9
REMARK   10  A    between atoms: C_10  and  C_23
REMARK   11  A    between atoms: N_12  and  C_22
REMARK   12  A    between atoms: C_13  and  O_14
REMARK   13  A    between atoms: O_14  and  C_15
REMARK   14  A    between atoms: C_29  and  C_30
REMARK                            x       y       z     vdW  Elec       q    Type
REMARK                         _______ _______ _______ _____ _____    ______ ____
ROOT
ATOM      1  C   UNL     1      -2.376  -3.738   1.964  0.00  0.00    +0.025 A 
ATOM      2  C   UNL     1      -0.978  -3.836   2.095  0.00  0.00    +0.098 A 
ATOM      3  N   UNL     1      -0.696  -3.990   3.371  0.00  0.00    -0.168 NA
ATOM      4  N   UNL     1      -1.898  -3.996   4.089  0.00  0.00    -0.235 N 
ATOM      5  C   UNL     1      -2.916  -3.834   3.205  0.00  0.00    +0.221 A 
ATOM      6  C   UNL     1      -2.033  -4.145   5.540  0.00  0.00    +0.176 C 
ENDROOT
BRANCH   2   7
ATOM      7  C   UNL     1       0.007  -3.775   0.986  0.00  0.00    +0.002 A 
ATOM      8  C   UNL     1       1.185  -3.046   1.137  0.00  0.00    +0.010 A 
ATOM      9  C   UNL     1       2.098  -2.993   0.103  0.00  0.00    +0.001 A 
ATOM     10  C   UNL     1       1.845  -3.662  -1.081  0.00  0.00    +0.000 A 
ATOM     11  C   UNL     1       0.677  -4.386  -1.236  0.00  0.00    +0.001 A 
ATOM     12  C   UNL     1      -0.240  -4.451  -0.207  0.00  0.00    +0.010 A 
ENDBRANCH   2   7
BRANCH   1  13
ATOM     13  C   UNL     1      -3.136  -3.553   0.676  0.00  0.00    -0.035 C 
BRANCH  13  14
ATOM     14  N   UNL     1      -3.451  -2.130   0.493  0.00  0.00    +0.386 N 
ATOM     15  H   UNL     1      -3.944  -1.787   1.304  0.00  0.00    -0.081 HD
BRANCH  14  16
ATOM     16  C   UNL     1      -2.205  -1.371   0.321  0.00  0.00    -0.046 C 
BRANCH  16  17
ATOM     17  C   UNL     1      -2.516   0.127   0.316  0.00  0.00    +0.101 C 
BRANCH  17  19
ATOM     18  C   UNL     1      -1.519   2.418   0.340  0.00  0.00    +0.010 C 
ATOM     19  C   UNL     1      -1.208   0.920   0.344  0.00  0.00    +0.010 C 
ATOM     20  C   UNL     1      -0.424   0.566   1.610  0.00  0.00    +0.010 C 
ENDBRANCH  17  19
BRANCH  17  21
ATOM     21  O   UNL     1      -3.248   0.457  -0.866  0.00  0.00    -0.393 OA
ATOM     22  H   UNL     1      -2.807   0.198  -1.687  0.00  0.00    +0.210 HD
ENDBRANCH  17  21
ENDBRANCH  16  17
ENDBRANCH  14  16
BRANCH  14  23
ATOM     23  C   UNL     1      -4.294  -1.964  -0.699  0.00  0.00    -0.046 C 
BRANCH  23  24
ATOM     24  C   UNL     1      -5.613  -2.713  -0.498  0.00  0.00    +0.102 C 
ATOM     25  C   UNL     1      -6.497  -2.562  -1.755  0.00  0.00    +0.032 C 
ATOM     26  C   UNL     1      -7.914  -2.393  -1.143  0.00  0.00    +0.030 C 
ATOM     27  C   UNL     1      -7.583  -1.611   0.153  0.00  0.00    +0.160 C 
ATOM     28  O   UNL     1      -6.329  -2.148   0.607  0.00  0.00    -0.378 OA
ENDBRANCH  23  24
ENDBRANCH  14  23
ENDBRANCH  13  14
ENDBRANCH   1  13
BRANCH   5  29
ATOM     29  O   UNL     1      -4.238  -3.780   3.509  0.00  0.00    -0.438 OA
BRANCH  29  30
ATOM     30  C   UNL     1      -4.924  -4.951   3.585  0.00  0.00    +0.131 A 
ATOM     31  C   UNL     1      -4.251  -6.159   3.465  0.00  0.00    +0.049 A 
ATOM     32  C   UNL     1      -4.949  -7.348   3.542  0.00  0.00    +0.042 A 
ATOM     33  C   UNL     1      -6.319  -7.336   3.738  0.00  0.00    +0.124 A 
ATOM     34  C   UNL     1      -6.992  -6.132   3.858  0.00  0.00    +0.042 A 
ATOM     35  C   UNL     1      -6.296  -4.941   3.788  0.00  0.00    +0.049 A 
ATOM     36  F   UNL     1      -7.001  -8.500   3.812  0.00  0.00    -0.205 F 
ENDBRANCH  29  30
ENDBRANCH   5  29
TORSDOF 11
