REMARK  Name = ZINC00870770
REMARK  13 active torsions:
REMARK  status: ('A' for Active; 'I' for Inactive)
REMARK    1  A    between atoms: C_1  and  C_2
REMARK    2  A    between atoms: C_3  and  C_32
REMARK    3  A    between atoms: C_4  and  C_25
REMARK    4  A    between atoms: C_10  and  C_15
REMARK    5  A    between atoms: C_18  and  O_23
REMARK    6  A    between atoms: C_19  and  O_21
REMARK    7  A    between atoms: O_21  and  C_22
REMARK    8  A    between atoms: O_23  and  C_24
REMARK    9  A    between atoms: C_28  and  O_31
REMARK   10  A    between atoms: C_32  and  O_34
REMARK   11  A    between atoms: O_34  and  C_35
REMARK   12  A    between atoms: C_35  and  C_36
REMARK   13  A    between atoms: C_35  and  C_37
REMARK                            x       y       z     vdW  Elec       q    Type
REMARK                         _______ _______ _______ _____ _____    ______ ____
ROOT
ATOM      1  C   UNL     1       5.519  -2.426  -3.968  0.00  0.00    +0.061 C 
ATOM      2  C   UNL     1       5.294  -1.871  -2.585  0.00  0.00    +0.016 C 
ATOM      3  C   UNL     1       5.961  -2.390  -1.540  0.00  0.00    +0.065 C 
ATOM      4  C   UNL     1       5.770  -1.858  -0.151  0.00  0.00    +0.092 C 
ATOM      5  C   UNL     1       4.500  -1.050  -0.051  0.00  0.00    +0.024 C 
ATOM      6  C   UNL     1       3.890  -0.585  -1.162  0.00  0.00    +0.016 C 
ATOM      7  N   UNL     1       4.412  -0.843  -2.401  0.00  0.00    -0.321 N 
ATOM      8  C   UNL     1       2.620   0.224  -1.070  0.00  0.00    +0.059 C 
ATOM      9  C   UNL     1       2.610   1.017   0.239  0.00  0.00    +0.032 C 
ATOM     10  C   UNL     1       2.728   0.030   1.406  0.00  0.00    +0.088 C 
ATOM     11  C   UNL     1       3.976  -0.791   1.227  0.00  0.00    +0.162 C 
ATOM     12  O   UNL     1       4.540  -1.240   2.206  0.00  0.00    -0.292 OA
ATOM     13  H   UNL     1       4.116  -0.213  -3.253  0.00  0.00    +0.152 HD
ENDROOT
BRANCH   9  14
ATOM     14  C   UNL     1       1.319   1.786   0.356  0.00  0.00    -0.040 A 
ATOM     15  C   UNL     1       0.112   1.111   0.366  0.00  0.00    +0.008 A 
ATOM     16  C   UNL     1      -1.075   1.812   0.467  0.00  0.00    +0.049 A 
ATOM     17  C   UNL     1      -1.056   3.194   0.569  0.00  0.00    +0.161 A 
ATOM     18  C   UNL     1       0.158   3.874   0.558  0.00  0.00    +0.162 A 
ATOM     19  C   UNL     1       1.344   3.165   0.451  0.00  0.00    +0.053 A 
BRANCH  18  20
ATOM     20  O   UNL     1       0.181   5.230   0.652  0.00  0.00    -0.491 OA
ATOM     21  C   UNL     1       1.464   5.860   0.635  0.00  0.00    +0.277 C 
ENDBRANCH  18  20
BRANCH  17  22
ATOM     22  O   UNL     1      -2.223   3.885   0.673  0.00  0.00    -0.491 OA
ATOM     23  C   UNL     1      -3.431   3.122   0.678  0.00  0.00    +0.277 C 
ENDBRANCH  17  22
ENDBRANCH   9  14
BRANCH   4  24
ATOM     24  C   UNL     1       6.943  -0.984   0.210  0.00  0.00    -0.035 A 
ATOM     25  C   UNL     1       7.210   0.152  -0.530  0.00  0.00    +0.008 A 
ATOM     26  C   UNL     1       8.282   0.959  -0.198  0.00  0.00    +0.046 A 
ATOM     27  C   UNL     1       9.096   0.621   0.874  0.00  0.00    +0.117 A 
ATOM     28  C   UNL     1       8.829  -0.522   1.612  0.00  0.00    +0.046 A 
ATOM     29  C   UNL     1       7.753  -1.322   1.279  0.00  0.00    +0.008 A 
BRANCH  27  30
ATOM     30  O   UNL     1      10.154   1.410   1.200  0.00  0.00    -0.507 OA
ATOM     31  H   UNL     1      10.799   1.141   2.049  0.00  0.00    +0.292 HD
ENDBRANCH  27  30
ENDBRANCH   4  24
BRANCH   3  32
ATOM     32  C   UNL     1       6.863  -3.459  -1.756  0.00  0.00    +0.338 C 
ATOM     33  O   UNL     1       6.950  -3.969  -2.857  0.00  0.00    -0.245 OA
BRANCH  32  34
ATOM     34  O   UNL     1       7.626  -3.914  -0.739  0.00  0.00    -0.459 OA
BRANCH  34  35
ATOM     35  C   UNL     1       8.514  -4.995  -1.028  0.00  0.00    +0.171 C 
ATOM     36  C   UNL     1       9.863  -4.439  -1.485  0.00  0.00    +0.052 C 
ATOM     37  C   UNL     1       8.711  -5.843   0.231  0.00  0.00    +0.052 C 
ENDBRANCH  34  35
ENDBRANCH  32  34
ENDBRANCH   3  32
TORSDOF 8
