REMARK  Name = ZINC36207128
REMARK  14 active torsions:
REMARK  status: ('A' for Active; 'I' for Inactive)
REMARK    1  A    between atoms: C_1  and  O_2
REMARK    2  A    between atoms: O_2  and  C_3
REMARK    3  A    between atoms: C_8  and  C_9
REMARK    4  A    between atoms: C_18  and  C_20
REMARK    5  A    between atoms: C_20  and  N_21
REMARK    6  A    between atoms: N_21  and  C_22
REMARK    7  A    between atoms: N_21  and  C_29
REMARK    8  A    between atoms: C_22  and  C_23
REMARK    9  A    between atoms: C_29  and  C_30
REMARK   10  A    between atoms: C_30  and  C_32
REMARK   11  A    between atoms: C_30  and  O_37
REMARK   12  A    between atoms: C_32  and  O_33
REMARK   13  A    between atoms: O_33  and  C_34
REMARK   14  A    between atoms: C_34  and  C_35
REMARK                            x       y       z     vdW  Elec       q    Type
REMARK                         _______ _______ _______ _____ _____    ______ ____
ROOT
ATOM      1  C   UNL     1       0.474  -2.124   1.618  0.00  0.00    +0.007 A 
ATOM      2  C   UNL     1       1.112  -2.967   2.464  0.00  0.00    +0.056 A 
ATOM      3  S   UNL     1      -0.210  -3.953   3.141  0.00  0.00    -0.076 S 
ATOM      4  C   UNL     1      -1.576  -3.217   2.281  0.00  0.00    +0.116 A 
ATOM      5  C   UNL     1      -0.976  -2.220   1.493  0.00  0.00    +0.080 A 
ATOM      6  C   UNL     1      -1.868  -1.450   0.682  0.00  0.00    +0.260 A 
ATOM      7  O   UNL     1      -1.441  -0.565  -0.040  0.00  0.00    -0.267 OA
ATOM      8  N   UNL     1      -3.187  -1.717   0.727  0.00  0.00    -0.312 N 
ATOM      9  H   UNL     1      -3.796  -1.199   0.179  0.00  0.00    +0.170 HD
ATOM     10  C   UNL     1      -3.680  -2.700   1.524  0.00  0.00    +0.094 A 
ATOM     11  N   UNL     1      -2.890  -3.426   2.268  0.00  0.00    -0.229 NA
ENDROOT
BRANCH   1  17
ATOM     12  C   UNL     1       1.040   0.246   1.074  0.00  0.00    +0.128 A 
ATOM     13  C   UNL     1       1.758   1.179   0.344  0.00  0.00    +0.046 A 
ATOM     14  C   UNL     1       2.659   0.761  -0.618  0.00  0.00    +0.004 A 
ATOM     15  C   UNL     1       2.849  -0.588  -0.858  0.00  0.00    +0.001 A 
ATOM     16  C   UNL     1       2.140  -1.528  -0.138  0.00  0.00    +0.012 A 
ATOM     17  C   UNL     1       1.234  -1.118   0.838  0.00  0.00    +0.025 A 
BRANCH  12  19
ATOM     18  C   UNL     1       0.010   2.065   2.207  0.00  0.00    +0.277 C 
ATOM     19  O   UNL     1       0.155   0.656   2.020  0.00  0.00    -0.495 OA
ENDBRANCH  12  19
ENDBRANCH   1  17
BRANCH  10  20
ATOM     20  C   UNL     1      -5.164  -2.963   1.542  0.00  0.00    -0.003 C 
BRANCH  20  21
ATOM     21  N   UNL     1      -5.439  -4.157   2.353  0.00  0.00    +0.389 N 
ATOM     22  H   UNL     1      -5.013  -4.051   3.262  0.00  0.00    -0.081 HD
BRANCH  21  23
ATOM     23  C   UNL     1      -4.883  -5.341   1.686  0.00  0.00    -0.042 C 
BRANCH  23  24
ATOM     24  C   UNL     1      -5.381  -5.398   0.265  0.00  0.00    -0.064 A 
ATOM     25  C   UNL     1      -6.606  -5.974  -0.015  0.00  0.00    +0.002 A 
ATOM     26  C   UNL     1      -7.063  -6.026  -1.319  0.00  0.00    +0.000 A 
ATOM     27  C   UNL     1      -6.296  -5.501  -2.342  0.00  0.00    +0.000 A 
ATOM     28  C   UNL     1      -5.072  -4.923  -2.061  0.00  0.00    +0.000 A 
ATOM     29  C   UNL     1      -4.616  -4.868  -0.757  0.00  0.00    +0.002 A 
ENDBRANCH  23  24
ENDBRANCH  21  23
BRANCH  21  30
ATOM     30  C   UNL     1      -6.891  -4.318   2.509  0.00  0.00    -0.044 C 
BRANCH  30  31
ATOM     31  C   UNL     1      -7.179  -5.159   3.755  0.00  0.00    +0.124 C 
BRANCH  31  32
ATOM     32  O   UNL     1      -6.581  -6.448   3.609  0.00  0.00    -0.391 OA
ATOM     33  H   UNL     1      -6.897  -6.944   2.842  0.00  0.00    +0.210 HD
ENDBRANCH  31  32
BRANCH  31  34
ATOM     34  C   UNL     1      -8.692  -5.315   3.925  0.00  0.00    +0.190 C 
BRANCH  34  35
ATOM     35  O   UNL     1      -8.965  -6.000   5.149  0.00  0.00    -0.365 OA
BRANCH  35  36
ATOM     36  C   UNL     1     -10.357  -6.199   5.406  0.00  0.00    +0.248 C 
BRANCH  36  37
ATOM     37  C   UNL     1     -10.523  -6.909   6.684  0.00  0.00    -0.077 C 
ATOM     38  C   UNL     1     -10.656  -7.476   7.704  0.00  0.00    +0.006 C 
ENDBRANCH  36  37
ENDBRANCH  35  36
ENDBRANCH  34  35
ENDBRANCH  31  34
ENDBRANCH  30  31
ENDBRANCH  21  30
ENDBRANCH  20  21
ENDBRANCH  10  20
TORSDOF 13
