REMARK  Name = ZINC36316106
REMARK  19 active torsions:
REMARK  status: ('A' for Active; 'I' for Inactive)
REMARK    1  A    between atoms: C_1  and  C_2
REMARK    2  A    between atoms: C_2  and  C_3
REMARK    3  A    between atoms: C_2  and  C_4
REMARK    4  A    between atoms: C_4  and  N_5
REMARK    5  A    between atoms: N_5  and  C_6
REMARK    6  A    between atoms: N_5  and  C_28
REMARK    7  A    between atoms: C_6  and  C_7
REMARK    8  A    between atoms: C_8  and  C_22
REMARK    9  A    between atoms: N_10  and  C_21
REMARK   10  A    between atoms: C_11  and  O_12
REMARK   11  A    between atoms: O_12  and  C_13
REMARK   12  A    between atoms: C_28  and  C_29
REMARK   13  A    between atoms: C_29  and  C_31
REMARK   14  A    between atoms: C_29  and  O_37
REMARK   15  A    between atoms: C_31  and  O_32
REMARK   16  A    between atoms: O_32  and  C_33
REMARK   17  A    between atoms: C_33  and  C_34
REMARK   18  A    between atoms: C_34  and  C_35
REMARK   19  A    between atoms: C_34  and  C_36
REMARK                            x       y       z     vdW  Elec       q    Type
REMARK                         _______ _______ _______ _____ _____    ______ ____
ROOT
ATOM      1  C   UNL     1      -2.987  -2.404  -1.452  0.00  0.00    +0.025 A 
ATOM      2  C   UNL     1      -4.027  -1.457  -1.388  0.00  0.00    +0.098 A 
ATOM      3  N   UNL     1      -4.745  -1.562  -2.486  0.00  0.00    -0.168 NA
ATOM      4  N   UNL     1      -4.189  -2.573  -3.279  0.00  0.00    -0.235 N 
ATOM      5  C   UNL     1      -3.107  -3.072  -2.628  0.00  0.00    +0.221 A 
ATOM      6  C   UNL     1      -4.684  -3.012  -4.587  0.00  0.00    +0.176 C 
ENDROOT
BRANCH   2   7
ATOM      7  C   UNL     1      -4.271  -0.506  -0.275  0.00  0.00    +0.002 A 
ATOM      8  C   UNL     1      -4.580   0.825  -0.548  0.00  0.00    +0.010 A 
ATOM      9  C   UNL     1      -4.806   1.706   0.490  0.00  0.00    +0.001 A 
ATOM     10  C   UNL     1      -4.725   1.269   1.800  0.00  0.00    +0.000 A 
ATOM     11  C   UNL     1      -4.417  -0.051   2.077  0.00  0.00    +0.001 A 
ATOM     12  C   UNL     1      -4.196  -0.941   1.046  0.00  0.00    +0.010 A 
ENDBRANCH   2   7
BRANCH   1  13
ATOM     13  C   UNL     1      -1.926  -2.630  -0.406  0.00  0.00    -0.035 C 
BRANCH  13  14
ATOM     14  N   UNL     1      -0.651  -2.070  -0.873  0.00  0.00    +0.384 N 
ATOM     15  H   UNL     1      -0.438  -2.435  -1.789  0.00  0.00    -0.081 HD
BRANCH  14  16
ATOM     16  C   UNL     1      -0.755  -0.606  -0.941  0.00  0.00    -0.075 C 
BRANCH  16  18
ATOM     17  C   UNL     1      -1.603   1.313  -2.298  0.00  0.00    +0.005 C 
ATOM     18  C   UNL     1      -1.395  -0.202  -2.271  0.00  0.00    -0.034 C 
ATOM     19  C   UNL     1      -0.476  -0.611  -3.424  0.00  0.00    +0.005 C 
ENDBRANCH  16  18
ENDBRANCH  14  16
BRANCH  14  20
ATOM     20  C   UNL     1       0.419  -2.441   0.063  0.00  0.00    -0.044 C 
BRANCH  20  21
ATOM     21  C   UNL     1       1.771  -2.018  -0.514  0.00  0.00    +0.124 C 
BRANCH  21  22
ATOM     22  O   UNL     1       2.020  -2.738  -1.722  0.00  0.00    -0.391 OA
ATOM     23  H   UNL     1       2.046  -3.698  -1.609  0.00  0.00    +0.210 HD
ENDBRANCH  21  22
BRANCH  21  24
ATOM     24  C   UNL     1       2.876  -2.323   0.499  0.00  0.00    +0.189 C 
BRANCH  24  25
ATOM     25  O   UNL     1       4.122  -1.823   0.011  0.00  0.00    -0.377 OA
BRANCH  25  26
ATOM     26  C   UNL     1       5.226  -2.057   0.887  0.00  0.00    +0.163 C 
BRANCH  26  27
ATOM     27  C   UNL     1       6.501  -1.482   0.266  0.00  0.00    +0.009 C 
ATOM     28  C   UNL     1       6.379   0.039   0.167  0.00  0.00    +0.009 C 
ATOM     29  C   UNL     1       7.702  -1.842   1.142  0.00  0.00    +0.009 C 
ENDBRANCH  26  27
ENDBRANCH  25  26
ENDBRANCH  24  25
ENDBRANCH  21  24
ENDBRANCH  20  21
ENDBRANCH  14  20
ENDBRANCH  13  14
ENDBRANCH   1  13
BRANCH   5  30
ATOM     30  O   UNL     1      -2.293  -4.064  -3.071  0.00  0.00    -0.435 OA
BRANCH  30  31
ATOM     31  C   UNL     1      -2.659  -5.350  -2.821  0.00  0.00    +0.166 A 
ATOM     32  C   UNL     1      -3.881  -5.620  -2.225  0.00  0.00    +0.052 A 
ATOM     33  C   UNL     1      -4.252  -6.927  -1.972  0.00  0.00    +0.042 A 
ATOM     34  C   UNL     1      -3.404  -7.967  -2.312  0.00  0.00    +0.126 A 
ATOM     35  C   UNL     1      -2.182  -7.701  -2.907  0.00  0.00    +0.080 A 
ATOM     36  C   UNL     1      -1.810  -6.394  -3.168  0.00  0.00    +0.168 A 
ATOM     37  F   UNL     1      -0.621  -6.133  -3.754  0.00  0.00    -0.202 F 
ATOM     38  F   UNL     1      -3.768  -9.244  -2.063  0.00  0.00    -0.205 F 
ENDBRANCH  30  31
ENDBRANCH   5  30
TORSDOF 14
