REMARK  Name = ZINC29509191
REMARK  3 active torsions:
REMARK  status: ('A' for Active; 'I' for Inactive)
REMARK    1  A    between atoms: C_8  and  C_19
REMARK    2  A    between atoms: C_12  and  C_14
REMARK    3  A    between atoms: N_21  and  C_22
REMARK                            x       y       z     vdW  Elec       q    Type
REMARK                         _______ _______ _______ _____ _____    ______ ____
ROOT
ATOM      1  C   UNL     1       2.045   1.909   2.333  0.00  0.00    +0.000 A 
ATOM      2  C   UNL     1       2.527   1.104   1.317  0.00  0.00    +0.000 A 
ATOM      3  C   UNL     1       1.670   0.659   0.332  0.00  0.00    +0.005 A 
ATOM      4  C   UNL     1       0.328   1.013   0.354  0.00  0.00    -0.027 A 
ATOM      5  C   UNL     1      -0.151   1.823   1.359  0.00  0.00    -0.040 A 
ATOM      6  C   UNL     1       0.713   2.265   2.352  0.00  0.00    +0.004 A 
ATOM      7  C   UNL     1      -1.586   2.274   1.429  0.00  0.00    +0.067 C 
ATOM      8  C   UNL     1      -2.487   1.354   0.607  0.00  0.00    +0.167 C 
ATOM      9  N   UNL     1      -1.856   1.158  -0.708  0.00  0.00    -0.279 N 
ATOM     10  C   UNL     1      -0.561   0.470  -0.738  0.00  0.00    +0.144 C 
ATOM     11  C   UNL     1      -2.444   1.593  -1.840  0.00  0.00    +0.283 C 
ATOM     12  O   UNL     1      -3.537   2.127  -1.791  0.00  0.00    -0.267 OA
ENDROOT
BRANCH  11  13
ATOM     13  C   UNL     1      -1.768   1.423  -3.130  0.00  0.00    +0.189 A 
ATOM     14  C   UNL     1      -2.184   1.931  -4.327  0.00  0.00    +0.054 A 
ATOM     15  C   UNL     1      -1.242   1.527  -5.286  0.00  0.00    +0.042 A 
ATOM     16  C   UNL     1      -0.307   0.794  -4.642  0.00  0.00    +0.196 A 
ATOM     17  O   UNL     1      -0.628   0.733  -3.343  0.00  0.00    -0.458 OA
ENDBRANCH  11  13
BRANCH   8  18
ATOM     18  C   UNL     1      -3.843   1.990   0.432  0.00  0.00    +0.238 C 
ATOM     19  O   UNL     1      -4.709   1.409  -0.186  0.00  0.00    -0.273 OA
ATOM     20  N   UNL     1      -4.091   3.203   0.963  0.00  0.00    -0.284 N 
ATOM     21  H   UNL     1      -3.333   3.696   1.588  0.00  0.00    +0.155 HD
BRANCH  20  22
ATOM     22  C   UNL     1      -5.315   3.837   0.718  0.00  0.00    +0.034 A 
ATOM     23  C   UNL     1      -5.369   5.218   0.585  0.00  0.00    +0.025 A 
ATOM     24  C   UNL     1      -6.577   5.840   0.339  0.00  0.00    +0.022 A 
ATOM     25  C   UNL     1      -7.735   5.089   0.234  0.00  0.00    +0.041 A 
ATOM     26  C   UNL     1      -7.685   3.713   0.371  0.00  0.00    +0.022 A 
ATOM     27  C   UNL     1      -6.479   3.086   0.612  0.00  0.00    +0.025 A 
ATOM     28 CL   UNL     1      -9.253   5.875  -0.068  0.00  0.00    -0.084 Cl
ENDBRANCH  20  22
ENDBRANCH   8  18
TORSDOF 3
