REMARK  Name = ZINC39674382
REMARK  10 active torsions:
REMARK  status: ('A' for Active; 'I' for Inactive)
REMARK    1  A    between atoms: C_1  and  C_2
REMARK    2  A    between atoms: C_4  and  C_9
REMARK    3  A    between atoms: C_5  and  C_8
REMARK    4  A    between atoms: C_9  and  C_11
REMARK    5  A    between atoms: C_9  and  N_12
REMARK    6  A    between atoms: C_13  and  C_15
REMARK    7  A    between atoms: C_26  and  C_28
REMARK    8  A    between atoms: C_32  and  N_34
REMARK    9  A    between atoms: N_34  and  C_35
REMARK   10  A    between atoms: N_34  and  C_36
REMARK                            x       y       z     vdW  Elec       q    Type
REMARK                         _______ _______ _______ _____ _____    ______ ____
ROOT
ATOM      1  C   UNL     1      -2.906  -0.585  -4.467  0.00  0.00    +0.100 C 
ATOM      2  C   UNL     1      -2.105   0.446  -5.295  0.00  0.00    +0.121 C 
ATOM      3  N   UNL     1      -2.595   0.273  -6.683  0.00  0.00    -0.296 N 
ATOM      4  C   UNL     1      -4.053   0.052  -6.535  0.00  0.00    +0.115 C 
ATOM      5  C   UNL     1      -4.184  -0.840  -5.284  0.00  0.00    -0.004 C 
ATOM      6  C   UNL     1      -4.267  -2.308  -5.689  0.00  0.00    -0.010 C 
ATOM      7  C   UNL     1      -5.574  -2.549  -6.451  0.00  0.00    -0.082 C 
ATOM      8  N   UNL     1      -6.713  -2.191  -5.598  0.00  0.00    +0.379 N 
ATOM      9  C   UNL     1      -6.675  -0.756  -5.288  0.00  0.00    -0.082 C 
ATOM     10  C   UNL     1      -5.415  -0.440  -4.478  0.00  0.00    -0.010 C 
ATOM     11  C   UNL     1      -1.876   0.308  -7.823  0.00  0.00    +0.247 C 
ATOM     12  O   UNL     1      -0.664   0.385  -7.775  0.00  0.00    -0.270 OA
ATOM     13  H   UNL     1      -7.573  -2.407  -6.079  0.00  0.00    -0.086 HD
ATOM     14  H   UNL     1      -6.668  -2.720  -4.739  0.00  0.00    -0.086 HD
ENDROOT
BRANCH  11  15
ATOM     15  C   UNL     1      -2.563   0.252  -9.131  0.00  0.00    +0.039 A 
ATOM     16  C   UNL     1      -3.912   0.596  -9.229  0.00  0.00    +0.013 A 
ATOM     17  C   UNL     1      -4.551   0.543 -10.451  0.00  0.00    +0.003 A 
ATOM     18  C   UNL     1      -3.859   0.150 -11.582  0.00  0.00    +0.023 A 
ATOM     19  C   UNL     1      -2.515  -0.194 -11.495  0.00  0.00    +0.030 A 
ATOM     20  C   UNL     1      -1.863  -0.138 -10.272  0.00  0.00    +0.036 A 
BRANCH  19  21
ATOM     21  N   UNL     1      -1.820  -0.591 -12.640  0.00  0.00    -0.336 N 
ATOM     22  C   UNL     1      -2.507  -0.644 -13.933  0.00  0.00    +0.129 C 
ATOM     23  C   UNL     1      -0.404  -0.954 -12.548  0.00  0.00    +0.129 C 
ENDBRANCH  19  21
ENDBRANCH  11  15
BRANCH   1  25
ATOM     24  N   UNL     1      -3.498  -0.843  -2.079  0.00  0.00    -0.309 N 
ATOM     25  C   UNL     1      -3.252  -0.016  -3.115  0.00  0.00    +0.219 C 
ATOM     26  O   UNL     1      -3.309   1.185  -2.959  0.00  0.00    -0.275 OA
ATOM     27  H   UNL     1      -3.453  -1.804  -2.205  0.00  0.00    +0.149 HD
BRANCH  24  28
ATOM     28  C   UNL     1      -3.834  -0.290  -0.765  0.00  0.00    +0.100 C 
ATOM     29  C   UNL     1      -2.548   0.039  -0.006  0.00  0.00    +0.033 C 
BRANCH  28  32
ATOM     30  C   UNL     1      -2.992  -2.888   1.055  0.00  0.00    +0.039 C 
ATOM     31  C   UNL     1      -4.300  -2.761   0.272  0.00  0.00    +0.154 C 
ATOM     32  C   UNL     1      -4.633  -1.302   0.016  0.00  0.00    -0.001 C 
ATOM     33  C   UNL     1      -5.798  -1.124   0.643  0.00  0.00    +0.063 C 
ATOM     34  N   UNL     1      -6.204  -2.268   1.235  0.00  0.00    -0.159 NA
ATOM     35  N   UNL     1      -5.439  -3.228   1.081  0.00  0.00    -0.180 NA
ATOM     36  C   UNL     1      -6.557   0.178   0.685  0.00  0.00    +0.067 C 
ENDBRANCH  28  32
ENDBRANCH  24  28
ENDBRANCH   1  25
TORSDOF 5
