REMARK  Name = ZINC11819593
REMARK  14 active torsions:
REMARK  status: ('A' for Active; 'I' for Inactive)
REMARK    1  A    between atoms: C_1  and  C_2
REMARK    2  A    between atoms: C_2  and  C_3
REMARK    3  A    between atoms: C_3  and  C_4
REMARK    4  A    between atoms: C_4  and  N_5
REMARK    5  A    between atoms: C_6  and  C_18
REMARK    6  A    between atoms: C_9  and  S_10
REMARK    7  A    between atoms: S_10  and  C_13
REMARK    8  A    between atoms: C_13  and  C_14
REMARK    9  A    between atoms: C_18  and  N_60
REMARK   10  A    between atoms: C_19  and  C_20
REMARK   11  A    between atoms: C_19  and  N_60
REMARK   12  A    between atoms: C_21  and  C_22
REMARK   13  A    between atoms: C_23  and  C_24
REMARK   14  A    between atoms: C_23  and  N_60
REMARK                            x       y       z     vdW  Elec       q    Type
REMARK                         _______ _______ _______ _____ _____    ______ ____
ROOT
ATOM      1  N   UNL     1      -1.951   4.172  -0.496  0.00  0.00    -0.315 N 
ATOM      2  C   UNL     1      -0.978   3.436  -1.117  0.00  0.00    +0.023 A 
ATOM      3  C   UNL     1      -0.143   4.312  -1.707  0.00  0.00    +0.133 A 
ATOM      4  N   UNL     1      -0.591   5.550  -1.449  0.00  0.00    -0.220 NA
ATOM      5  C   UNL     1      -1.671   5.474  -0.721  0.00  0.00    +0.251 A 
ENDROOT
BRANCH   5   6
ATOM      6  S   UNL     1      -2.614   6.843  -0.135  0.00  0.00    +0.030 S 
ATOM      7  O   UNL     1      -3.256   6.364   1.039  0.00  0.00    -0.166 OA
ATOM      8  O   UNL     1      -1.687   7.918  -0.066  0.00  0.00    -0.166 OA
BRANCH   6   9
ATOM      9  C   UNL     1      -3.839   7.156  -1.435  0.00  0.00    +0.179 C 
BRANCH   9  10
ATOM     10  C   UNL     1      -4.723   8.338  -1.029  0.00  0.00    +0.011 C 
ATOM     11  C   UNL     1      -5.941   7.933  -0.183  0.00  0.00    +0.005 C 
ATOM     12  C   UNL     1      -6.746   8.964  -0.991  0.00  0.00    +0.001 C 
ATOM     13  C   UNL     1      -5.720   8.764  -2.119  0.00  0.00    +0.005 C 
ENDBRANCH   9  10
ENDBRANCH   6   9
ENDBRANCH   5   6
BRANCH   1  14
ATOM     14  C   UNL     1      -3.082   3.646   0.271  0.00  0.00    +0.125 C 
BRANCH  14  15
ATOM     15  C   UNL     1      -2.679   3.502   1.740  0.00  0.00    +0.021 C 
BRANCH  15  17
ATOM     16  C   UNL     1      -3.458   2.808   4.011  0.00  0.00    +0.004 C 
ATOM     17  C   UNL     1      -3.861   2.952   2.542  0.00  0.00    -0.002 C 
ENDBRANCH  15  17
ENDBRANCH  14  15
ENDBRANCH   1  14
BRANCH   2  18
ATOM     18  C   UNL     1      -0.867   1.933  -1.142  0.00  0.00    -0.021 C 
BRANCH  18  19
ATOM     19  N   UNL     1      -0.174   1.488   0.085  0.00  0.00    +0.395 N 
ATOM     20  H   UNL     1      -0.572   1.984   0.891  0.00  0.00    -0.079 HD
BRANCH  19  21
ATOM     21  C   UNL     1      -0.365   0.035   0.274  0.00  0.00    +0.013 C 
BRANCH  21  22
ATOM     22  C   UNL     1       0.146  -0.342   1.603  0.00  0.00    -0.121 C 
ATOM     23  C   UNL     1       0.553  -0.643   2.662  0.00  0.00    -0.107 C 
ATOM     24  C   UNL     1       1.063  -1.020   3.990  0.00  0.00    +0.106 C 
ENDBRANCH  21  22
ENDBRANCH  19  21
BRANCH  19  25
ATOM     25  C   UNL     1       1.268   1.801  -0.007  0.00  0.00    -0.001 C 
BRANCH  25  26
ATOM     26  C   UNL     1       1.909   1.015  -1.121  0.00  0.00    +0.089 A 
ATOM     27  C   UNL     1       2.106   1.450  -2.378  0.00  0.00    +0.042 A 
ATOM     28  C   UNL     1       2.733   0.396  -3.082  0.00  0.00    +0.041 A 
ATOM     29  C   UNL     1       2.881  -0.620  -2.213  0.00  0.00    +0.195 A 
ATOM     30  O   UNL     1       2.385  -0.237  -1.025  0.00  0.00    -0.470 OA
ENDBRANCH  25  26
ENDBRANCH  19  25
ENDBRANCH  18  19
ENDBRANCH   2  18
TORSDOF 12
