REMARK  Name = ZINC32384635
REMARK  4 active torsions:
REMARK  status: ('A' for Active; 'I' for Inactive)
REMARK    1  A    between atoms: C_9  and  S_10
REMARK    2  A    between atoms: S_10  and  C_11
REMARK    3  A    between atoms: C_11  and  C_12
REMARK    4  A    between atoms: C_15  and  C_17
REMARK                            x       y       z     vdW  Elec       q    Type
REMARK                         _______ _______ _______ _____ _____    ______ ____
ROOT
ATOM      1  C   UNL     1       1.855   3.722   0.004  0.00  0.00    +0.090 A 
ATOM      2  C   UNL     1       1.915   4.517  -1.079  0.00  0.00    +0.221 A 
ATOM      3  O   UNL     1       2.019   5.787  -0.639  0.00  0.00    -0.443 OA
ATOM      4  C   UNL     1       2.030   5.754   0.705  0.00  0.00    +0.227 A 
ATOM      5  N   UNL     1       1.931   4.504   1.092  0.00  0.00    -0.213 NA
ENDROOT
BRANCH   4   6
ATOM      6  C   UNL     1       2.135   6.928   1.596  0.00  0.00    +0.037 A 
ATOM      7  C   UNL     1       2.129   6.759   2.982  0.00  0.00    +0.014 A 
ATOM      8  C   UNL     1       2.233   7.858   3.809  0.00  0.00    +0.021 A 
ATOM      9  C   UNL     1       2.333   9.128   3.267  0.00  0.00    +0.041 A 
ATOM     10  C   UNL     1       2.334   9.303   1.893  0.00  0.00    +0.021 A 
ATOM     11  C   UNL     1       2.236   8.211   1.056  0.00  0.00    +0.014 A 
ATOM     12 CL   UNL     1       2.457  10.507   4.314  0.00  0.00    -0.084 Cl
ENDBRANCH   4   6
BRANCH   1  13
ATOM     13  C   UNL     1       1.732   2.220  -0.003  0.00  0.00    +0.136 C 
BRANCH  13  14
ATOM     14  S   UNL     1      -0.022   1.758   0.012  0.00  0.00    -0.079 S 
BRANCH  14  23
ATOM     15  C   UNL     1      -2.812  -2.973   0.012  0.00  0.00    +0.005 A 
ATOM     16  C   UNL     1      -3.293  -1.651   0.024  0.00  0.00    +0.018 A 
ATOM     17  C   UNL     1      -2.435  -0.611   0.021  0.00  0.00    +0.095 A 
ATOM     18  N   UNL     1      -1.085  -0.827   0.013  0.00  0.00    -0.278 N 
ATOM     19  C   UNL     1      -0.584  -2.111  -0.004  0.00  0.00    +0.162 A 
ATOM     20  C   UNL     1      -1.472  -3.205  -0.001  0.00  0.00    +0.049 A 
ATOM     21  N   UNL     1       0.732  -2.010  -0.015  0.00  0.00    -0.129 NA
ATOM     22  N   UNL     1       1.071  -0.768  -0.012  0.00  0.00    -0.122 NA
ATOM     23  C   UNL     1       0.002  -0.004   0.002  0.00  0.00    +0.196 A 
ENDBRANCH  14  23
ENDBRANCH  13  14
ENDBRANCH   1  13
TORSDOF 4
