REMARK  Name = ZINC58201299
REMARK  6 active torsions:
REMARK  status: ('A' for Active; 'I' for Inactive)
REMARK    1  A    between atoms: C_4  and  S_24
REMARK    2  A    between atoms: C_5  and  N_7
REMARK    3  A    between atoms: C_8  and  C_10
REMARK    4  A    between atoms: C_10  and  C_11
REMARK    5  A    between atoms: C_11  and  N_12
REMARK    6  A    between atoms: S_24  and  C_25
REMARK                            x       y       z     vdW  Elec       q    Type
REMARK                         _______ _______ _______ _____ _____    ______ ____
ROOT
ATOM      1  N   UNL     1       0.711  -1.868   0.186  0.00  0.00    -0.285 N 
ATOM      2  C   UNL     1      -0.547  -2.334   0.056  0.00  0.00    +0.219 C 
ATOM      3  O   UNL     1      -1.471  -1.558  -0.072  0.00  0.00    -0.275 OA
ATOM      4  H   UNL     1       1.457  -2.487   0.213  0.00  0.00    +0.155 HD
ENDROOT
BRANCH   1   9
ATOM      5  C   UNL     1       0.245   1.688   1.008  0.00  0.00    +0.002 A 
ATOM      6  C   UNL     1       1.395   2.239   0.471  0.00  0.00    +0.001 A 
ATOM      7  C   UNL     1       2.322   1.433  -0.162  0.00  0.00    +0.017 A 
ATOM      8  C   UNL     1       2.100   0.066  -0.260  0.00  0.00    +0.036 A 
ATOM      9  C   UNL     1       0.941  -0.489   0.282  0.00  0.00    +0.047 A 
ATOM     10  C   UNL     1       0.017   0.328   0.915  0.00  0.00    +0.024 A 
BRANCH   8  11
ATOM     11  S   UNL     1       3.280  -0.965  -1.068  0.00  0.00    -0.059 S 
BRANCH  11  12
ATOM     12  C   UNL     1       4.404   0.173  -1.808  0.00  0.00    +0.163 A 
ATOM     13  N   UNL     1       4.344   1.495  -1.900  0.00  0.00    -0.135 NA
ATOM     14  N   UNL     1       5.248   2.163  -2.472  0.00  0.00    -0.149 NA
ATOM     15  C   UNL     1       6.306   1.594  -3.013  0.00  0.00    +0.182 A 
ATOM     16  S   UNL     1       5.958  -0.123  -2.646  0.00  0.00    -0.047 S 
ENDBRANCH  11  12
ENDBRANCH   8  11
ENDBRANCH   1   9
BRANCH   2  17
ATOM     17  C   UNL     1      -0.806  -3.818   0.070  0.00  0.00    +0.115 C 
BRANCH  17  18
ATOM     18  C   UNL     1      -2.305  -4.076  -0.094  0.00  0.00    +0.127 C 
BRANCH  18  19
ATOM     19  N   UNL     1      -2.557  -5.519  -0.080  0.00  0.00    -0.224 N 
ATOM     20  C   UNL     1      -2.555  -6.300  -1.181  0.00  0.00    +0.247 C 
ATOM     21  O   UNL     1      -2.354  -5.954  -2.325  0.00  0.00    -0.273 OA
ATOM     22  C   UNL     1      -2.858  -7.695  -0.686  0.00  0.00    +0.113 C 
ATOM     23  C   UNL     1      -1.699  -8.634  -1.002  0.00  0.00    +0.035 C 
ATOM     24  C   UNL     1      -2.012 -10.034  -0.466  0.00  0.00    +0.003 C 
ATOM     25  C   UNL     1      -3.299 -10.550  -1.113  0.00  0.00    +0.000 C 
ATOM     26  C   UNL     1      -4.457  -9.611  -0.769  0.00  0.00    +0.003 C 
ATOM     27  C   UNL     1      -4.153  -8.210  -1.306  0.00  0.00    +0.035 C 
ATOM     28  N   UNL     1      -3.010  -7.534   0.765  0.00  0.00    -0.285 N 
ATOM     29  C   UNL     1      -2.811  -6.228   1.026  0.00  0.00    +0.309 C 
ATOM     30  O   UNL     1      -2.861  -5.747   2.141  0.00  0.00    -0.252 OA
ATOM     31  H   UNL     1      -3.211  -8.232   1.409  0.00  0.00    +0.151 HD
ENDBRANCH  18  19
ENDBRANCH  17  18
ENDBRANCH   2  17
TORSDOF 6
