REMARK  Name = ZINC21786669
REMARK  9 active torsions:
REMARK  status: ('A' for Active; 'I' for Inactive)
REMARK    1  A    between atoms: C_1  and  C_2
REMARK    2  A    between atoms: C_2  and  O_3
REMARK    3  A    between atoms: O_3  and  C_4
REMARK    4  A    between atoms: C_7  and  C_10
REMARK    5  A    between atoms: C_12  and  C_15
REMARK    6  A    between atoms: N_17  and  C_18
REMARK    7  A    between atoms: C_19  and  C_26
REMARK    8  A    between atoms: N_28  and  C_29
REMARK    9  A    between atoms: C_29  and  C_30
REMARK                            x       y       z     vdW  Elec       q    Type
REMARK                         _______ _______ _______ _____ _____    ______ ____
ROOT
ATOM      1  C   UNL     1      -8.231   4.099  -2.917  0.00  0.00    +0.270 C 
ATOM      2  O   UNL     1      -9.306   4.256  -2.373  0.00  0.00    -0.268 OA
ATOM      3  N   UNL     1      -7.395   3.131  -2.492  0.00  0.00    -0.274 N 
ATOM      4  H   UNL     1      -6.422   2.989  -2.986  0.00  0.00    +0.156 HD
ENDROOT
BRANCH   3   5
ATOM      5  C   UNL     1      -7.760   2.316  -1.434  0.00  0.00    +0.085 A 
ATOM      6  C   UNL     1      -7.045   1.279  -0.859  0.00  0.00    +0.069 A 
ATOM      7  C   UNL     1      -7.660   0.572   0.263  0.00  0.00    -0.023 A 
ATOM      8  C   UNL     1      -8.881   1.013   0.615  0.00  0.00    -0.004 A 
ATOM      9  S   UNL     1      -9.223   2.344  -0.510  0.00  0.00    -0.077 S 
ATOM     10  C   UNL     1      -9.449   0.236   1.772  0.00  0.00    +0.043 C 
ATOM     11  C   UNL     1      -8.596  -1.050   1.835  0.00  0.00    +0.010 C 
ATOM     12  C   UNL     1      -7.276  -0.582   1.190  0.00  0.00    +0.037 C 
BRANCH   6  13
ATOM     13  C   UNL     1      -5.716   0.907  -1.355  0.00  0.00    +0.247 C 
ATOM     14  O   UNL     1      -5.606   0.070  -2.232  0.00  0.00    -0.270 OA
ATOM     15  N   UNL     1      -4.617   1.492  -0.839  0.00  0.00    -0.309 N 
ATOM     16  H   UNL     1      -4.716   2.248  -0.046  0.00  0.00    +0.149 HD
BRANCH  15  17
ATOM     17  C   UNL     1      -3.289   1.120  -1.334  0.00  0.00    +0.136 C 
BRANCH  17  18
ATOM     18  C   UNL     1      -2.223   1.924  -0.587  0.00  0.00    +0.135 C 
ATOM     19  C   UNL     1      -0.833   1.634  -1.185  0.00  0.00    +0.035 C 
ATOM     20  C   UNL     1      -0.013   1.086   0.008  0.00  0.00    +0.031 C 
ATOM     21  C   UNL     1      -0.810   1.621   1.224  0.00  0.00    +0.160 C 
ATOM     22  O   UNL     1      -2.186   1.524   0.793  0.00  0.00    -0.375 OA
ENDBRANCH  17  18
ENDBRANCH  15  17
ENDBRANCH   6  13
ENDBRANCH   3   5
BRANCH   1  25
ATOM     23  C   UNL     1      -7.805   6.507  -5.616  0.00  0.00    +0.168 A 
ATOM     24  C   UNL     1      -8.605   6.024  -4.617  0.00  0.00    +0.086 A 
ATOM     25  C   UNL     1      -7.840   4.972  -4.051  0.00  0.00    +0.169 A 
ATOM     26  N   UNL     1      -6.721   4.921  -4.732  0.00  0.00    -0.073 NA
ATOM     27  O   UNL     1      -6.686   5.762  -5.600  0.00  0.00    -0.354 OA
BRANCH  23  31
ATOM     28  C   UNL     1      -8.689   9.715  -8.258  0.00  0.00    +0.121 A 
ATOM     29  C   UNL     1      -7.481   9.039  -8.370  0.00  0.00    +0.046 A 
ATOM     30  C   UNL     1      -7.191   7.997  -7.515  0.00  0.00    +0.015 A 
ATOM     31  C   UNL     1      -8.113   7.623  -6.535  0.00  0.00    +0.020 A 
ATOM     32  C   UNL     1      -9.328   8.302  -6.430  0.00  0.00    +0.015 A 
ATOM     33  C   UNL     1      -9.609   9.346  -7.285  0.00  0.00    +0.046 A 
BRANCH  28  34
ATOM     34  O   UNL     1      -8.971  10.741  -9.102  0.00  0.00    -0.492 OA
BRANCH  34  36
ATOM     35  C   UNL     1     -10.370  12.514  -9.965  0.00  0.00    +0.048 C 
ATOM     36  C   UNL     1     -10.231  11.394  -8.931  0.00  0.00    +0.225 C 
ENDBRANCH  34  36
ENDBRANCH  28  34
ENDBRANCH  23  31
ENDBRANCH   1  25
TORSDOF 8
