REMARK  Name = ZINC04461285
REMARK  14 active torsions:
REMARK  status: ('A' for Active; 'I' for Inactive)
REMARK    1  A    between atoms: C_1  and  C_2
REMARK    2  A    between atoms: C_7  and  C_8
REMARK    3  A    between atoms: C_8  and  N_9
REMARK    4  A    between atoms: C_13  and  C_14
REMARK    5  A    between atoms: C_14  and  N_61
REMARK    6  A    between atoms: C_15  and  C_16
REMARK    7  A    between atoms: C_15  and  N_61
REMARK    8  A    between atoms: C_16  and  C_17
REMARK    9  A    between atoms: C_17  and  O_18
REMARK   10  A    between atoms: O_18  and  C_19
REMARK   11  A    between atoms: C_20  and  C_21
REMARK   12  A    between atoms: C_20  and  N_61
REMARK   13  A    between atoms: C_24  and  O_27
REMARK   14  A    between atoms: O_27  and  C_28
REMARK                            x       y       z     vdW  Elec       q    Type
REMARK                         _______ _______ _______ _____ _____    ______ ____
ROOT
ATOM      1  N   UNL     1       0.778   4.508   1.208  0.00  0.00    +0.386 N 
ATOM      2  H   UNL     1       1.632   4.147   1.647  0.00  0.00    -0.081 HD
ENDROOT
BRANCH   1   3
ATOM      3  C   UNL     1       0.807   5.986   1.245  0.00  0.00    -0.024 C 
BRANCH   3   8
ATOM      4  N   UNL     1       3.247   6.556   1.754  0.00  0.00    -0.348 N 
ATOM      5  C   UNL     1       4.334   7.008   1.066  0.00  0.00    +0.086 A 
ATOM      6  C   UNL     1       3.974   7.187  -0.221  0.00  0.00    +0.019 A 
ATOM      7  C   UNL     1       2.616   6.827  -0.333  0.00  0.00    +0.021 A 
ATOM      8  C   UNL     1       2.196   6.450   0.892  0.00  0.00    +0.003 A 
BRANCH   4   9
ATOM      9  C   UNL     1       3.214   6.236   3.183  0.00  0.00    +0.156 C 
BRANCH   9  16
ATOM     10  C   UNL     1       4.193   8.849   3.933  0.00  0.00    +0.044 C 
ATOM     11  C   UNL     1       5.065   7.634   4.122  0.00  0.00    -0.046 A 
ATOM     12  C   UNL     1       6.332   7.770   4.658  0.00  0.00    +0.004 A 
ATOM     13  C   UNL     1       7.134   6.657   4.828  0.00  0.00    +0.000 A 
ATOM     14  C   UNL     1       6.667   5.407   4.464  0.00  0.00    +0.000 A 
ATOM     15  C   UNL     1       5.399   5.271   3.932  0.00  0.00    +0.005 A 
ATOM     16  C   UNL     1       4.597   6.384   3.764  0.00  0.00    -0.025 A 
ENDBRANCH   9  16
ENDBRANCH   4   9
ENDBRANCH   3   8
ENDBRANCH   1   3
BRANCH   1  17
ATOM     17  C   UNL     1      -0.395   4.007   1.954  0.00  0.00    -0.076 C 
BRANCH  17  18
ATOM     18  C   UNL     1      -0.137   4.185   3.452  0.00  0.00    +0.009 C 
BRANCH  18  19
ATOM     19  C   UNL     1      -1.337   3.661   4.242  0.00  0.00    +0.157 C 
BRANCH  19  20
ATOM     20  O   UNL     1      -1.146   3.929   5.633  0.00  0.00    -0.383 OA
ATOM     21  C   UNL     1      -2.162   3.381   6.476  0.00  0.00    +0.193 C 
ENDBRANCH  19  20
ENDBRANCH  18  19
ENDBRANCH  17  18
ENDBRANCH   1  17
BRANCH   1  22
ATOM     22  C   UNL     1       0.722   4.040  -0.193  0.00  0.00    -0.042 C 
BRANCH  22  23
ATOM     23  C   UNL     1       0.915   2.545  -0.213  0.00  0.00    -0.064 A 
ATOM     24  C   UNL     1      -0.182   1.706  -0.143  0.00  0.00    +0.005 A 
ATOM     25  C   UNL     1      -0.007   0.336  -0.161  0.00  0.00    +0.046 A 
ATOM     26  C   UNL     1       1.270  -0.198  -0.251  0.00  0.00    +0.120 A 
ATOM     27  C   UNL     1       2.369   0.645  -0.321  0.00  0.00    +0.046 A 
ATOM     28  C   UNL     1       2.189   2.015  -0.303  0.00  0.00    +0.005 A 
BRANCH  26  29
ATOM     29  O   UNL     1       1.444  -1.546  -0.268  0.00  0.00    -0.495 OA
ATOM     30  C   UNL     1       2.787  -2.026  -0.362  0.00  0.00    +0.277 C 
ENDBRANCH  26  29
ENDBRANCH  22  23
ENDBRANCH   1  22
TORSDOF 11
