REMARK  Name = ZINC20289287
REMARK  9 active torsions:
REMARK  status: ('A' for Active; 'I' for Inactive)
REMARK    1  A    between atoms: C_1  and  C_2
REMARK    2  A    between atoms: C_2  and  C_4
REMARK    3  A    between atoms: C_2  and  N_25
REMARK    4  A    between atoms: C_4  and  C_6
REMARK    5  A    between atoms: C_4  and  N_11
REMARK    6  A    between atoms: N_14  and  C_17
REMARK    7  A    between atoms: C_20  and  O_23
REMARK    8  A    between atoms: O_23  and  C_24
REMARK    9  A    between atoms: C_26  and  C_28
REMARK                            x       y       z     vdW  Elec       q    Type
REMARK                         _______ _______ _______ _____ _____    ______ ____
ROOT
ATOM      1  C   UNL     1       0.657  -0.372   1.560  0.00  0.00    +0.114 C 
ENDROOT
BRANCH   1   2
ATOM      2  N   UNL     1      -0.087   0.104   2.734  0.00  0.00    -0.290 NA
ATOM      3  C   UNL     1       0.593  -0.281   3.979  0.00  0.00    +0.102 C 
ATOM      4  C   UNL     1      -0.179   0.283   5.174  0.00  0.00    +0.100 C 
ATOM      5  N   UNL     1      -1.551  -0.242   5.162  0.00  0.00    -0.391 NA
ATOM      6  C   UNL     1      -2.225   0.171   3.924  0.00  0.00    +0.100 C 
ATOM      7  C   UNL     1      -1.470  -0.394   2.719  0.00  0.00    +0.102 C 
ATOM      8  H   UNL     1      -1.526  -1.250   5.211  0.00  0.00    +0.126 HD
BRANCH   5   9
ATOM      9  C   UNL     1      -2.251   0.260   6.263  0.00  0.00    +0.014 A 
ATOM     10  C   UNL     1      -2.421   1.624   6.410  0.00  0.00    +0.025 A 
ATOM     11  C   UNL     1      -3.112   2.123   7.497  0.00  0.00    +0.047 A 
ATOM     12  C   UNL     1      -3.636   1.253   8.442  0.00  0.00    +0.120 A 
ATOM     13  C   UNL     1      -3.465  -0.116   8.293  0.00  0.00    +0.047 A 
ATOM     14  C   UNL     1      -2.777  -0.609   7.201  0.00  0.00    +0.025 A 
BRANCH  12  15
ATOM     15  O   UNL     1      -4.316   1.741   9.513  0.00  0.00    -0.495 OA
ATOM     16  C   UNL     1      -4.828   0.787  10.446  0.00  0.00    +0.277 C 
ENDBRANCH  12  15
ENDBRANCH   5   9
ENDBRANCH   1   2
BRANCH   1  17
ATOM     17  C   UNL     1       2.028   0.253   1.547  0.00  0.00    +0.009 A 
ATOM     18  C   UNL     1       3.204  -0.278   1.131  0.00  0.00    +0.013 A 
ATOM     19  C   UNL     1       4.351   0.489   1.212  0.00  0.00    +0.008 A 
ATOM     20  C   UNL     1       4.266   1.750   1.704  0.00  0.00    +0.045 A 
ATOM     21  S   UNL     1       2.524   1.888   2.067  0.00  0.00    -0.100 S 
ENDBRANCH   1  17
BRANCH   1  23
ATOM     22  C   UNL     1      -0.240   1.543   0.230  0.00  0.00    +0.030 C 
ATOM     23  C   UNL     1      -0.095   0.021   0.287  0.00  0.00    +0.092 C 
BRANCH  23  24
ATOM     24  N   UNL     1       0.653  -0.442  -0.884  0.00  0.00    -0.303 N 
ATOM     25  C   UNL     1       0.009  -0.676  -2.045  0.00  0.00    +0.299 C 
ATOM     26  O   UNL     1      -1.190  -0.504  -2.120  0.00  0.00    -0.265 OA
ATOM     27  H   UNL     1       1.611  -0.580  -0.825  0.00  0.00    +0.149 HD
BRANCH  25  28
ATOM     28  C   UNL     1       0.772  -1.149  -3.240  0.00  0.00    +0.301 C 
ATOM     29  O   UNL     1       1.946  -1.439  -3.135  0.00  0.00    -0.265 OA
ATOM     30  N   UNL     1       0.157  -1.254  -4.435  0.00  0.00    -0.294 N 
ATOM     31  C   UNL     1      -1.214  -0.756  -4.617  0.00  0.00    +0.108 C 
ATOM     32  C   UNL     1      -1.235   0.205  -5.809  0.00  0.00    +0.019 C 
ATOM     33  C   UNL     1      -0.654  -0.499  -7.037  0.00  0.00    +0.003 C 
ATOM     34  C   UNL     1       0.799  -0.894  -6.761  0.00  0.00    +0.019 C 
ATOM     35  C   UNL     1       0.845  -1.862  -5.581  0.00  0.00    +0.108 C 
ENDBRANCH  25  28
ENDBRANCH  23  24
ENDBRANCH   1  23
TORSDOF 7
