REMARK  Name = ZINC08749483
REMARK  15 active torsions:
REMARK  status: ('A' for Active; 'I' for Inactive)
REMARK    1  A    between atoms: C_1  and  C_2
REMARK    2  A    between atoms: C_4  and  C_46
REMARK    3  A    between atoms: C_5  and  N_9
REMARK    4  A    between atoms: C_6  and  C_8
REMARK    5  A    between atoms: C_10  and  C_12
REMARK    6  A    between atoms: C_12  and  N_18
REMARK    7  A    between atoms: C_17  and  N_90
REMARK    8  A    between atoms: N_18  and  C_19
REMARK    9  A    between atoms: C_19  and  C_20
REMARK   10  A    between atoms: C_25  and  C_27
REMARK   11  A    between atoms: C_27  and  C_28
REMARK   12  A    between atoms: C_30  and  C_35
REMARK   13  A    between atoms: C_32  and  C_33
REMARK   14  A    between atoms: C_32  and  C_34
REMARK   15  A    between atoms: C_36  and  C_45
REMARK                            x       y       z     vdW  Elec       q    Type
REMARK                         _______ _______ _______ _____ _____    ______ ____
ROOT
ATOM      1  N   UNL     1      -7.424   0.215  -1.169  0.00  0.00    -0.280 N 
ATOM      2  C   UNL     1      -7.179   0.917  -0.044  0.00  0.00    +0.217 C 
ATOM      3  O   UNL     1      -7.427   2.104  -0.004  0.00  0.00    -0.276 OA
ENDROOT
BRANCH   1   4
ATOM      4  C   UNL     1      -7.991   0.885  -2.342  0.00  0.00    +0.111 C 
ATOM      5  C   UNL     1      -9.216   1.702  -1.922  0.00  0.00    +0.017 C 
ATOM      6  C   UNL     1     -10.285   0.757  -1.365  0.00  0.00    -0.077 C 
ATOM      7  C   UNL     1      -9.505  -1.052  -2.775  0.00  0.00    -0.077 C 
ATOM      8  C   UNL     1      -8.414  -0.162  -3.375  0.00  0.00    +0.017 C 
ATOM      9  C   UNL     1     -11.776  -1.061  -1.939  0.00  0.00    -0.096 C 
ATOM     10  N   UNL     1     -10.666  -0.211  -2.415  0.00  0.00    +0.378 N 
ATOM     11  H   UNL     1     -10.974   0.305  -3.247  0.00  0.00    -0.082 HD
BRANCH   4  13
ATOM     12  N   UNL     1      -5.984   2.321  -2.175  0.00  0.00    -0.283 N 
ATOM     13  C   UNL     1      -6.958   1.801  -2.947  0.00  0.00    +0.241 C 
ATOM     14  O   UNL     1      -7.004   2.071  -4.128  0.00  0.00    -0.273 OA
ATOM     15  H   UNL     1      -5.910   2.058  -1.244  0.00  0.00    +0.155 HD
BRANCH  12  20
ATOM     16  C   UNL     1      -2.313   6.048  -4.370  0.00  0.00    +0.044 C 
ATOM     17  C   UNL     1      -3.287   5.058  -3.787  0.00  0.00    -0.050 A 
ATOM     18  C   UNL     1      -3.511   3.852  -4.425  0.00  0.00    +0.008 A 
ATOM     19  C   UNL     1      -4.404   2.943  -3.893  0.00  0.00    -0.029 A 
ATOM     20  C   UNL     1      -5.078   3.240  -2.716  0.00  0.00    +0.039 A 
ATOM     21  C   UNL     1      -4.854   4.454  -2.079  0.00  0.00    -0.029 A 
ATOM     22  C   UNL     1      -3.956   5.357  -2.614  0.00  0.00    +0.008 A 
ATOM     23  C   UNL     1      -5.587   4.783  -0.804  0.00  0.00    +0.045 C 
ATOM     24  C   UNL     1      -4.648   1.629  -4.590  0.00  0.00    +0.045 C 
ENDBRANCH  12  20
ENDBRANCH   4  13
ENDBRANCH   1   4
BRANCH   1  25
ATOM     25  C   UNL     1      -7.122  -1.217  -1.218  0.00  0.00    +0.183 C 
BRANCH  25  26
ATOM     26  C   UNL     1      -7.803  -1.914  -0.068  0.00  0.00    +0.122 A 
ATOM     27  C   UNL     1      -9.085  -2.321  -0.042  0.00  0.00    +0.046 A 
ATOM     28  C   UNL     1      -9.298  -2.923   1.219  0.00  0.00    +0.041 A 
ATOM     29  C   UNL     1      -8.136  -2.841   1.891  0.00  0.00    +0.195 A 
ATOM     30  O   UNL     1      -7.234  -2.229   1.107  0.00  0.00    -0.466 OA
ENDBRANCH  25  26
ENDBRANCH   1  25
BRANCH   2  31
ATOM     31  C   UNL     1      -6.599   0.227   1.163  0.00  0.00    +0.100 C 
BRANCH  31  32
ATOM     32  C   UNL     1      -6.224   1.272   2.216  0.00  0.00    +0.012 C 
ATOM     33  C   UNL     1      -4.780   1.278   2.722  0.00  0.00    +0.031 C 
ATOM     34  C   UNL     1      -5.905   0.771   3.627  0.00  0.00    -0.024 C 
ATOM     35  C   UNL     1      -5.985  -0.736   3.877  0.00  0.00    +0.012 C 
ATOM     36  C   UNL     1      -6.320   1.659   4.802  0.00  0.00    +0.012 C 
BRANCH  33  37
ATOM     37  C   UNL     1      -3.836   0.255   2.145  0.00  0.00    -0.016 A 
ATOM     38  C   UNL     1      -2.912  -0.448   2.819  0.00  0.00    +0.017 A 
ATOM     39  N   UNL     1      -2.245  -1.282   1.964  0.00  0.00    -0.358 N 
ATOM     40  H   UNL     1      -1.528  -1.884   2.218  0.00  0.00    +0.166 HD
ATOM     41  C   UNL     1      -2.744  -1.141   0.688  0.00  0.00    +0.047 A 
ATOM     42  C   UNL     1      -3.764  -0.173   0.746  0.00  0.00    +0.003 A 
ATOM     43  C   UNL     1      -4.461   0.174  -0.412  0.00  0.00    +0.010 A 
ATOM     44  C   UNL     1      -4.145  -0.425  -1.599  0.00  0.00    +0.001 A 
ATOM     45  C   UNL     1      -3.137  -1.376  -1.663  0.00  0.00    +0.002 A 
ATOM     46  C   UNL     1      -2.436  -1.734  -0.532  0.00  0.00    +0.026 A 
ATOM     47  C   UNL     1      -2.641  -0.328   4.297  0.00  0.00    +0.063 C 
ENDBRANCH  33  37
ENDBRANCH  31  32
ENDBRANCH   2  31
TORSDOF 8
