REMARK  Name = ZINC13064727
REMARK  13 active torsions:
REMARK  status: ('A' for Active; 'I' for Inactive)
REMARK    1  A    between atoms: C_1  and  C_2
REMARK    2  A    between atoms: C_2  and  C_3
REMARK    3  A    between atoms: C_3  and  C_5
REMARK    4  A    between atoms: C_3  and  N_73
REMARK    5  A    between atoms: N_9  and  C_10
REMARK    6  A    between atoms: C_10  and  C_11
REMARK    7  A    between atoms: C_11  and  C_12
REMARK    8  A    between atoms: C_18  and  C_19
REMARK    9  A    between atoms: C_18  and  N_73
REMARK   10  A    between atoms: C_23  and  C_32
REMARK   11  A    between atoms: C_24  and  C_31
REMARK   12  A    between atoms: C_33  and  C_34
REMARK   13  A    between atoms: C_33  and  N_73
REMARK                            x       y       z     vdW  Elec       q    Type
REMARK                         _______ _______ _______ _____ _____    ______ ____
ROOT
ATOM      1  N   UNL     1      -1.968  -0.530   1.170  0.00  0.00    +0.391 N 
ATOM      2  H   UNL     1      -1.678   0.411   1.460  0.00  0.00    -0.080 HD
ENDROOT
BRANCH   1   3
ATOM      3  C   UNL     1      -3.241  -0.869   1.841  0.00  0.00    +0.003 C 
BRANCH   3   4
ATOM      4  C   UNL     1      -3.220  -0.288   3.232  0.00  0.00    +0.138 A 
ATOM      5  N   UNL     1      -2.234  -0.353   4.093  0.00  0.00    -0.115 NA
ATOM      6  N   UNL     1      -2.599   0.263   5.164  0.00  0.00    -0.023 NA
ATOM      7  N   UNL     1      -3.796   0.713   5.011  0.00  0.00    -0.044 NA
ATOM      8  N   UNL     1      -4.213   0.394   3.833  0.00  0.00    -0.231 N 
BRANCH   8   9
ATOM      9  C   UNL     1      -5.522   0.713   3.257  0.00  0.00    +0.152 C 
BRANCH   9  10
ATOM     10  C   UNL     1      -6.509  -0.411   3.579  0.00  0.00    +0.058 C 
BRANCH  10  11
ATOM     11  C   UNL     1      -7.855  -0.082   2.987  0.00  0.00    -0.046 A 
ATOM     12  C   UNL     1      -8.783   0.624   3.729  0.00  0.00    +0.004 A 
ATOM     13  C   UNL     1     -10.016   0.929   3.184  0.00  0.00    +0.000 A 
ATOM     14  C   UNL     1     -10.325   0.520   1.900  0.00  0.00    +0.000 A 
ATOM     15  C   UNL     1      -9.399  -0.191   1.160  0.00  0.00    +0.000 A 
ATOM     16  C   UNL     1      -8.164  -0.492   1.703  0.00  0.00    +0.004 A 
ENDBRANCH  10  11
ENDBRANCH   9  10
ENDBRANCH   8   9
ENDBRANCH   3   4
BRANCH   3  18
ATOM     17  C   UNL     1      -3.558  -2.962   0.515  0.00  0.00    +0.002 C 
ATOM     18  C   UNL     1      -3.413  -2.387   1.925  0.00  0.00    -0.011 C 
ENDBRANCH   3  18
ENDBRANCH   1   3
BRANCH   1  19
ATOM     19  C   UNL     1      -2.152  -0.544  -0.297  0.00  0.00    -0.036 C 
BRANCH  19  20
ATOM     20  C   UNL     1      -2.814   0.745  -0.712  0.00  0.00    +0.001 A 
ATOM     21  C   UNL     1      -2.055   1.807  -1.077  0.00  0.00    +0.017 A 
ATOM     22  C   UNL     1      -2.728   3.044  -1.476  0.00  0.00    -0.001 A 
ATOM     23  C   UNL     1      -1.999   4.174  -1.862  0.00  0.00    +0.013 A 
ATOM     24  C   UNL     1      -2.658   5.313  -2.228  0.00  0.00    -0.047 A 
ATOM     25  C   UNL     1      -4.045   5.360  -2.220  0.00  0.00    -0.046 A 
ATOM     26  C   UNL     1      -4.784   4.260  -1.843  0.00  0.00    +0.030 A 
ATOM     27  C   UNL     1      -4.135   3.088  -1.466  0.00  0.00    +0.049 A 
ATOM     28  N   UNL     1      -4.850   1.973  -1.084  0.00  0.00    -0.322 N 
ATOM     29  H   UNL     1      -5.819   2.005  -1.077  0.00  0.00    +0.169 HD
ATOM     30  C   UNL     1      -4.222   0.841  -0.720  0.00  0.00    +0.251 A 
ATOM     31  O   UNL     1      -4.886  -0.127  -0.392  0.00  0.00    -0.268 OA
ATOM     32  C   UNL     1      -4.750   6.628  -2.628  0.00  0.00    +0.044 C 
ATOM     33  C   UNL     1      -1.871   6.529  -2.645  0.00  0.00    +0.044 C 
ENDBRANCH  19  20
ENDBRANCH   1  19
BRANCH   1  34
ATOM     34  C   UNL     1      -0.920  -1.497   1.557  0.00  0.00    -0.045 C 
BRANCH  34  35
ATOM     35  C   UNL     1       0.449  -0.887   1.245  0.00  0.00    +0.102 C 
ATOM     36  C   UNL     1       1.572  -1.902   1.551  0.00  0.00    +0.032 C 
ATOM     37  C   UNL     1       2.715  -1.035   2.126  0.00  0.00    +0.030 C 
ATOM     38  C   UNL     1       2.146   0.401   2.099  0.00  0.00    +0.160 C 
ATOM     39  O   UNL     1       0.712   0.231   2.120  0.00  0.00    -0.378 OA
ENDBRANCH  34  35
ENDBRANCH   1  34
TORSDOF 10
