REMARK  Name = ZINC02213861
REMARK  10 active torsions:
REMARK  status: ('A' for Active; 'I' for Inactive)
REMARK    1  A    between atoms: C_1  and  C_2
REMARK    2  A    between atoms: C_2  and  C_3
REMARK    3  A    between atoms: C_3  and  O_4
REMARK    4  A    between atoms: O_4  and  C_5
REMARK    5  A    between atoms: C_8  and  C_11
REMARK    6  A    between atoms: C_12  and  C_22
REMARK    7  A    between atoms: N_24  and  N_25
REMARK    8  A    between atoms: C_26  and  C_27
REMARK    9  A    between atoms: C_30  and  N_33
REMARK   10  A    between atoms: C_34  and  C_36
REMARK                            x       y       z     vdW  Elec       q    Type
REMARK                         _______ _______ _______ _____ _____    ______ ____
ROOT
ATOM      1  C   UNL     1      -0.531   5.424   0.125  0.00  0.00    +0.109 A 
ATOM      2  C   UNL     1       0.761   5.939   0.118  0.00  0.00    +0.177 A 
ATOM      3  N   UNL     1       1.621   4.907   0.104  0.00  0.00    -0.124 NA
ATOM      4  N   UNL     1       0.977   3.794   0.108  0.00  0.00    -0.058 NA
ATOM      5  N   UNL     1      -0.399   4.064   0.115  0.00  0.00    -0.187 N 
ATOM      6  C   UNL     1      -1.434   3.124   0.118  0.00  0.00    +0.241 A 
ATOM      7  C   UNL     1      -1.270   1.667   0.108  0.00  0.00    +0.206 A 
ATOM      8  N   UNL     1      -2.455   1.121   0.121  0.00  0.00    -0.032 NA
ATOM      9  O   UNL     1      -3.414   2.164   0.134  0.00  0.00    -0.239 OA
ATOM     10  N   UNL     1      -2.709   3.393   0.128  0.00  0.00    -0.027 NA
ATOM     11  N   UNL     1      -0.059   0.984   0.092  0.00  0.00    -0.337 N 
ATOM     12  H   UNL     1      -0.050   0.014   0.090  0.00  0.00    +0.144 HD
ATOM     13  H   UNL     1       0.776   1.478   0.080  0.00  0.00    +0.144 HD
ENDROOT
BRANCH   1  17
ATOM     14  C   UNL     1      -4.158   7.634   0.169  0.00  0.00    +0.121 A 
ATOM     15  C   UNL     1      -3.116   7.995   1.015  0.00  0.00    +0.046 A 
ATOM     16  C   UNL     1      -1.938   7.281   1.004  0.00  0.00    +0.013 A 
ATOM     17  C   UNL     1      -1.792   6.192   0.141  0.00  0.00    +0.003 A 
ATOM     18  C   UNL     1      -2.840   5.835  -0.712  0.00  0.00    +0.013 A 
ATOM     19  C   UNL     1      -4.016   6.552  -0.690  0.00  0.00    +0.046 A 
BRANCH  14  20
ATOM     20  O   UNL     1      -5.317   8.341   0.183  0.00  0.00    -0.492 OA
BRANCH  20  21
ATOM     21  C   UNL     1      -6.347   7.916  -0.712  0.00  0.00    +0.229 C 
BRANCH  21  23
ATOM     22  C   UNL     1      -8.669   8.371  -1.513  0.00  0.00    +0.007 C 
ATOM     23  C   UNL     1      -7.567   8.826  -0.555  0.00  0.00    +0.038 C 
ENDBRANCH  21  23
ENDBRANCH  20  21
ENDBRANCH  14  20
ENDBRANCH   1  17
BRANCH   2  24
ATOM     24  C   UNL     1       1.123   7.365   0.123  0.00  0.00    +0.286 C 
ATOM     25  O   UNL     1       0.251   8.213   0.135  0.00  0.00    -0.267 OA
ATOM     26  N   UNL     1       2.420   7.731   0.115  0.00  0.00    -0.202 N 
ATOM     27  H   UNL     1       3.115   7.054   0.105  0.00  0.00    +0.178 HD
BRANCH  26  28
ATOM     28  N   UNL     1       2.764   9.089   0.120  0.00  0.00    -0.187 NA
ATOM     29  C   UNL     1       4.013   9.442   0.112  0.00  0.00    +0.138 C 
BRANCH  29  30
ATOM     30  C   UNL     1       4.376  10.870   0.117  0.00  0.00    -0.005 A 
ATOM     31  C   UNL     1       3.376  11.847   0.125  0.00  0.00    +0.011 A 
ATOM     32  C   UNL     1       3.719  13.181   0.136  0.00  0.00    +0.024 A 
ATOM     33  C   UNL     1       5.057  13.557   0.127  0.00  0.00    +0.033 A 
ATOM     34  C   UNL     1       6.055  12.588   0.114  0.00  0.00    +0.024 A 
ATOM     35  C   UNL     1       5.720  11.252   0.108  0.00  0.00    +0.011 A 
BRANCH  33  36
ATOM     36  N   UNL     1       5.401  14.912   0.133  0.00  0.00    -0.286 N 
ATOM     37  C   UNL     1       4.636  15.803  -0.527  0.00  0.00    +0.214 C 
ATOM     38  O   UNL     1       3.605  15.444  -1.056  0.00  0.00    -0.276 OA
ATOM     39  C   UNL     1       5.062  17.247  -0.609  0.00  0.00    +0.109 C 
ATOM     40  H   UNL     1       6.190  15.210   0.612  0.00  0.00    +0.155 HD
ENDBRANCH  33  36
ENDBRANCH  29  30
ENDBRANCH  26  28
ENDBRANCH   2  24
TORSDOF 8
