REMARK  Name = ZINC36500368
REMARK  16 active torsions:
REMARK  status: ('A' for Active; 'I' for Inactive)
REMARK    1  A    between atoms: C_1  and  C_2
REMARK    2  A    between atoms: C_2  and  C_3
REMARK    3  A    between atoms: C_2  and  C_4
REMARK    4  A    between atoms: C_2  and  C_5
REMARK    5  A    between atoms: C_5  and  C_6
REMARK    6  A    between atoms: C_6  and  C_7
REMARK    7  A    between atoms: C_6  and  C_8
REMARK    8  A    between atoms: C_6  and  N_9
REMARK    9  A    between atoms: C_10  and  C_12
REMARK   10  A    between atoms: C_12  and  C_14
REMARK   11  A    between atoms: C_12  and  N_23
REMARK   12  A    between atoms: C_17  and  N_20
REMARK   13  A    between atoms: N_23  and  C_24
REMARK   14  A    between atoms: C_24  and  C_25
REMARK   15  A    between atoms: C_30  and  C_32
REMARK   16  A    between atoms: C_35  and  O_38
REMARK                            x       y       z     vdW  Elec       q    Type
REMARK                         _______ _______ _______ _____ _____    ______ ____
ROOT
ATOM      1  C   UNL     1       5.665  -1.182  -3.447  0.00  0.00    +0.193 C 
ENDROOT
BRANCH   1   2
ATOM      2  C   UNL     1       4.762  -0.671  -4.540  0.00  0.00    -0.018 A 
ATOM      3  C   UNL     1       4.566   0.689  -4.695  0.00  0.00    +0.008 A 
ATOM      4  C   UNL     1       3.738   1.158  -5.697  0.00  0.00    +0.033 A 
ATOM      5  C   UNL     1       3.107   0.268  -6.545  0.00  0.00    +0.126 A 
ATOM      6  C   UNL     1       3.304  -1.092  -6.391  0.00  0.00    +0.033 A 
ATOM      7  C   UNL     1       4.135  -1.561  -5.391  0.00  0.00    +0.008 A 
BRANCH   5   8
ATOM      8  N   UNL     1       2.219   0.770  -7.618  0.00  0.00    +0.056 N 
ATOM      9  O   UNL     1       2.046   1.959  -7.753  0.00  0.00    -0.126 OA
ATOM     10  O   UNL     1       1.667  -0.009  -8.360  0.00  0.00    -0.126 OA
ENDBRANCH   5   8
ENDBRANCH   1   2
BRANCH   1  12
ATOM     11  N   UNL     1       3.825  -2.228  -2.166  0.00  0.00    -0.308 N 
ATOM     12  C   UNL     1       4.866  -1.371  -2.183  0.00  0.00    +0.239 C 
ATOM     13  O   UNL     1       5.160  -0.754  -1.182  0.00  0.00    -0.273 OA
ATOM     14  H   UNL     1       3.590  -2.722  -2.967  0.00  0.00    +0.149 HD
BRANCH  11  15
ATOM     15  C   UNL     1       3.049  -2.412  -0.937  0.00  0.00    +0.030 C 
ATOM     16  C   UNL     1       2.599  -1.048  -0.409  0.00  0.00    +0.031 C 
ATOM     17  C   UNL     1       3.916  -3.105   0.115  0.00  0.00    +0.031 C 
BRANCH  15  18
ATOM     18  C   UNL     1       1.820  -3.274  -1.235  0.00  0.00    +0.031 C 
BRANCH  18  20
ATOM     19  C   UNL     1       1.798  -3.013  -3.719  0.00  0.00    +0.010 C 
ATOM     20  C   UNL     1       1.058  -2.682  -2.422  0.00  0.00    -0.036 C 
ATOM     21  C   UNL     1       0.962  -1.164  -2.261  0.00  0.00    +0.010 C 
ATOM     22  C   UNL     1      -0.350  -3.279  -2.472  0.00  0.00    +0.010 C 
ENDBRANCH  18  20
ENDBRANCH  15  18
ENDBRANCH  11  15
ENDBRANCH   1  12
BRANCH   1  23
ATOM     23  N   UNL     1       6.737  -0.214  -3.206  0.00  0.00    -0.275 N 
ATOM     24  C   UNL     1       7.681  -0.006  -4.146  0.00  0.00    +0.248 C 
ATOM     25  O   UNL     1       8.583   0.782  -3.938  0.00  0.00    -0.270 OA
BRANCH  24  26
ATOM     26  C   UNL     1       7.620  -0.737  -5.427  0.00  0.00    +0.037 A 
ATOM     27  C   UNL     1       6.585  -1.644  -5.668  0.00  0.00    +0.016 A 
ATOM     28  C   UNL     1       6.532  -2.323  -6.865  0.00  0.00    +0.046 A 
ATOM     29  C   UNL     1       7.506  -2.107  -7.833  0.00  0.00    +0.117 A 
ATOM     30  C   UNL     1       8.537  -1.205  -7.597  0.00  0.00    +0.046 A 
ATOM     31  C   UNL     1       8.594  -0.518  -6.405  0.00  0.00    +0.016 A 
BRANCH  29  32
ATOM     32  O   UNL     1       7.450  -2.778  -9.011  0.00  0.00    -0.507 OA
ATOM     33  H   UNL     1       6.945  -2.324  -9.699  0.00  0.00    +0.292 HD
ENDBRANCH  29  32
ENDBRANCH  24  26
BRANCH  23  34
ATOM     34  C   UNL     1       6.784   0.529  -1.945  0.00  0.00    +0.183 C 
BRANCH  34  35
ATOM     35  C   UNL     1       7.381  -0.342  -0.870  0.00  0.00    +0.122 A 
ATOM     36  C   UNL     1       8.673  -0.356  -0.495  0.00  0.00    +0.046 A 
ATOM     37  C   UNL     1       8.790  -1.315   0.536  0.00  0.00    +0.041 A 
ATOM     38  C   UNL     1       7.563  -1.830   0.731  0.00  0.00    +0.195 A 
ATOM     39  O   UNL     1       6.712  -1.233  -0.120  0.00  0.00    -0.466 OA
ENDBRANCH  34  35
ENDBRANCH  23  34
ENDBRANCH   1  23
TORSDOF 11
