REMARK  Name = ZINC01357576
REMARK  8 active torsions:
REMARK  status: ('A' for Active; 'I' for Inactive)
REMARK    1  A    between atoms: C_1  and  C_2
REMARK    2  A    between atoms: C_4  and  C_32
REMARK    3  A    between atoms: C_6  and  N_8
REMARK    4  A    between atoms: N_8  and  C_9
REMARK    5  A    between atoms: C_9  and  C_11
REMARK    6  A    between atoms: C_9  and  C_17
REMARK    7  A    between atoms: N_19  and  C_20
REMARK    8  A    between atoms: C_25  and  C_27
REMARK                            x       y       z     vdW  Elec       q    Type
REMARK                         _______ _______ _______ _____ _____    ______ ____
ROOT
ATOM      1  N   UNL     1       0.067  -2.696   2.333  0.00  0.00    -0.249 N 
ATOM      2  C   UNL     1       0.259  -4.029   2.382  0.00  0.00    +0.272 C 
ATOM      3  O   UNL     1       0.411  -4.583   3.454  0.00  0.00    -0.268 OA
ENDROOT
BRANCH   1   9
ATOM      4  C   UNL     1       2.299  -0.139  -1.223  0.00  0.00    +0.044 C 
ATOM      5  C   UNL     1       1.069  -0.795  -0.649  0.00  0.00    -0.048 A 
ATOM      6  C   UNL     1      -0.124  -0.752  -1.346  0.00  0.00    +0.006 A 
ATOM      7  C   UNL     1      -1.255  -1.353  -0.823  0.00  0.00    -0.048 A 
ATOM      8  C   UNL     1      -1.195  -1.998   0.396  0.00  0.00    +0.027 A 
ATOM      9  C   UNL     1       0.003  -2.044   1.098  0.00  0.00    +0.038 A 
ATOM     10  C   UNL     1       1.138  -1.443   0.568  0.00  0.00    +0.027 A 
ATOM     11  C   UNL     1      -2.554  -1.303  -1.585  0.00  0.00    +0.044 C 
ENDBRANCH   1   9
BRANCH   2  12
ATOM     12  C   UNL     1       0.285  -4.816   1.135  0.00  0.00    +0.157 A 
ATOM     13  C   UNL     1       0.403  -6.195   1.119  0.00  0.00    +0.101 A 
ATOM     14  S   UNL     1       0.377  -6.526  -0.527  0.00  0.00    +0.029 S 
ATOM     15  N   UNL     1       0.229  -5.023  -1.105  0.00  0.00    -0.110 NA
ATOM     16  N   UNL     1       0.193  -4.264  -0.068  0.00  0.00    -0.136 NA
ENDBRANCH   2  12
BRANCH   1  17
ATOM     17  C   UNL     1      -0.075  -1.931   3.574  0.00  0.00    +0.216 C 
BRANCH  17  18
ATOM     18  C   UNL     1      -1.259  -2.447   4.351  0.00  0.00    +0.071 A 
ATOM     19  C   UNL     1      -1.909  -1.613   5.240  0.00  0.00    +0.026 A 
ATOM     20  C   UNL     1      -2.998  -2.097   5.949  0.00  0.00    +0.003 A 
ATOM     21  C   UNL     1      -3.392  -3.410   5.736  0.00  0.00    +0.020 A 
ATOM     22  C   UNL     1      -2.693  -4.185   4.831  0.00  0.00    +0.111 A 
ATOM     23  N   UNL     1      -1.665  -3.688   4.170  0.00  0.00    -0.257 NA
ENDBRANCH  17  18
BRANCH  17  24
ATOM     24  C   UNL     1       1.174  -2.083   4.404  0.00  0.00    +0.240 C 
ATOM     25  O   UNL     1       2.093  -2.763   3.998  0.00  0.00    -0.273 OA
ATOM     26  N   UNL     1       1.271  -1.462   5.596  0.00  0.00    -0.311 N 
ATOM     27  H   UNL     1       0.537  -0.918   5.921  0.00  0.00    +0.149 HD
BRANCH  26  28
ATOM     28  C   UNL     1       2.486  -1.610   6.402  0.00  0.00    +0.073 C 
ATOM     29  C   UNL     1       2.373  -2.856   7.304  0.00  0.00    +0.022 C 
ATOM     30  C   UNL     1       3.062  -2.432   8.625  0.00  0.00    +0.002 C 
ATOM     31  C   UNL     1       2.625  -0.955   8.780  0.00  0.00    +0.002 C 
ATOM     32  C   UNL     1       2.646  -0.401   7.340  0.00  0.00    +0.022 C 
ENDBRANCH  26  28
ENDBRANCH  17  24
ENDBRANCH   1  17
TORSDOF 6
