REMARK  Name = ZINC11854934
REMARK  6 active torsions:
REMARK  status: ('A' for Active; 'I' for Inactive)
REMARK    1  A    between atoms: C_1  and  C_2
REMARK    2  A    between atoms: C_3  and  C_33
REMARK    3  A    between atoms: C_11  and  N_20
REMARK    4  A    between atoms: C_13  and  C_15
REMARK    5  A    between atoms: C_21  and  C_23
REMARK    6  A    between atoms: C_28  and  C_29
REMARK                            x       y       z     vdW  Elec       q    Type
REMARK                         _______ _______ _______ _____ _____    ______ ____
ROOT
ATOM      1  C   UNL     1       4.629   7.285  -0.040  0.00  0.00    +0.051 C 
ATOM      2  C   UNL     1       4.371   5.800  -0.036  0.00  0.00    +0.035 A 
ATOM      3  C   UNL     1       3.095   5.318  -0.021  0.00  0.00    +0.050 A 
ATOM      4  N   UNL     1       2.877   4.004  -0.024  0.00  0.00    -0.217 NA
ATOM      5  C   UNL     1       3.873   3.145  -0.031  0.00  0.00    +0.234 A 
ATOM      6  N   UNL     1       5.166   3.565  -0.046  0.00  0.00    -0.291 N 
ATOM      7  H   UNL     1       5.888   2.917  -0.054  0.00  0.00    +0.172 HD
ATOM      8  C   UNL     1       5.442   4.887  -0.049  0.00  0.00    +0.256 A 
ATOM      9  O   UNL     1       6.596   5.282  -0.062  0.00  0.00    -0.267 OA
ATOM     10  N   UNL     1       3.600   1.791  -0.028  0.00  0.00    -0.185 N 
ATOM     11  C   UNL     1       2.358   1.222  -0.014  0.00  0.00    +0.132 A 
ATOM     12  C   UNL     1       2.522  -0.126  -0.023  0.00  0.00    +0.074 A 
ATOM     13  C   UNL     1       3.908  -0.392  -0.038  0.00  0.00    +0.102 A 
ATOM     14  N   UNL     1       4.548   0.760  -0.037  0.00  0.00    -0.162 NA
ATOM     15  C   UNL     1       1.930   6.274  -0.008  0.00  0.00    +0.066 C 
ENDROOT
BRANCH  13  16
ATOM     16  C   UNL     1       4.533  -1.731  -0.052  0.00  0.00    +0.039 A 
ATOM     17  C   UNL     1       5.861  -2.063  -0.066  0.00  0.00    +0.018 A 
ATOM     18  C   UNL     1       6.211  -3.396  -0.077  0.00  0.00    +0.008 A 
ATOM     19  C   UNL     1       5.231  -4.337  -0.074  0.00  0.00    +0.046 A 
ATOM     20  S   UNL     1       3.753  -3.337  -0.046  0.00  0.00    -0.095 S 
ENDBRANCH  13  16
BRANCH  11  21
ATOM     21  N   UNL     1       1.143   1.901   0.001  0.00  0.00    -0.266 N 
ATOM     22  C   UNL     1      -0.014   1.212   0.009  0.00  0.00    +0.250 C 
ATOM     23  O   UNL     1       0.002  -0.004   0.002  0.00  0.00    -0.270 OA
ATOM     24  H   UNL     1       1.130   2.871   0.007  0.00  0.00    +0.157 HD
BRANCH  22  25
ATOM     25  C   UNL     1      -1.304   1.933   0.019  0.00  0.00    +0.049 A 
ATOM     26  C   UNL     1      -1.327   3.329   0.032  0.00  0.00    +0.013 A 
ATOM     27  C   UNL     1      -2.534   3.996   0.038  0.00  0.00    +0.001 A 
ATOM     28  C   UNL     1      -3.721   3.285   0.039  0.00  0.00    +0.001 A 
ATOM     29  C   UNL     1      -3.706   1.902   0.030  0.00  0.00    +0.013 A 
ATOM     30  C   UNL     1      -2.505   1.222   0.021  0.00  0.00    +0.067 A 
BRANCH  30  31
ATOM     31  C   UNL     1      -2.491  -0.285   0.012  0.00  0.00    +0.418 C 
ATOM     32  F   UNL     1      -3.805  -0.764   0.016  0.00  0.00    -0.166 F 
ATOM     33  F   UNL     1      -1.832  -0.739  -1.136  0.00  0.00    -0.166 F 
ATOM     34  F   UNL     1      -1.821  -0.751   1.149  0.00  0.00    -0.166 F 
ENDBRANCH  30  31
ENDBRANCH  22  25
ENDBRANCH  11  21
TORSDOF 4
