REMARK  Name = ZINC05877383
REMARK  11 active torsions:
REMARK  status: ('A' for Active; 'I' for Inactive)
REMARK    1  A    between atoms: C_1  and  C_2
REMARK    2  A    between atoms: C_2  and  C_3
REMARK    3  A    between atoms: C_6  and  O_25
REMARK    4  A    between atoms: C_7  and  N_9
REMARK    5  A    between atoms: N_10  and  C_11
REMARK    6  A    between atoms: C_14  and  S_17
REMARK    7  A    between atoms: S_17  and  N_20
REMARK    8  A    between atoms: N_20  and  C_21
REMARK    9  A    between atoms: N_20  and  C_23
REMARK   10  A    between atoms: C_21  and  C_22
REMARK   11  A    between atoms: C_23  and  C_24
REMARK                            x       y       z     vdW  Elec       q    Type
REMARK                         _______ _______ _______ _____ _____    ______ ____
ROOT
ATOM      1  C   UNL     1      -4.090  -1.494  -4.644  0.00  0.00    +0.086 A 
ATOM      2  C   UNL     1      -5.403  -1.972  -4.634  0.00  0.00    +0.031 A 
ATOM      3  C   UNL     1      -6.056  -2.208  -5.826  0.00  0.00    +0.030 A 
ATOM      4  C   UNL     1      -5.414  -1.974  -7.029  0.00  0.00    +0.106 A 
ATOM      5  C   UNL     1      -4.114  -1.501  -7.047  0.00  0.00    +0.030 A 
ATOM      6  C   UNL     1      -3.450  -1.254  -5.863  0.00  0.00    +0.031 A 
ENDROOT
BRANCH   4   7
ATOM      7  S   UNL     1      -6.257  -2.279  -8.546  0.00  0.00    +0.061 S 
ATOM      8  O   UNL     1      -5.255  -2.499  -9.530  0.00  0.00    -0.153 OA
ATOM      9  O   UNL     1      -7.270  -3.234  -8.263  0.00  0.00    -0.153 OA
BRANCH   7  10
ATOM     10  N   UNL     1      -7.032  -0.877  -8.966  0.00  0.00    -0.177 NA
BRANCH  10  11
ATOM     11  C   UNL     1      -6.348   0.117  -9.797  0.00  0.00    +0.106 C 
ATOM     12  C   UNL     1      -6.723  -0.100 -11.265  0.00  0.00    +0.022 C 
ENDBRANCH  10  11
BRANCH  10  13
ATOM     13  C   UNL     1      -8.401  -0.631  -8.507  0.00  0.00    +0.106 C 
ATOM     14  C   UNL     1      -8.367   0.203  -7.224  0.00  0.00    +0.022 C 
ENDBRANCH  10  13
ENDBRANCH   7  10
ENDBRANCH   4   7
BRANCH   1  16
ATOM     15  N   UNL     1      -4.029  -1.481  -2.344  0.00  0.00    -0.146 NA
ATOM     16  N   UNL     1      -3.436  -1.258  -3.467  0.00  0.00    -0.149 NA
BRANCH  15  21
ATOM     17  C   UNL     1      -1.412  -0.526   0.013  0.00  0.00    -0.045 A 
ATOM     18  C   UNL     1      -2.049  -0.765   1.219  0.00  0.00    +0.007 A 
ATOM     19  C   UNL     1      -3.345  -1.243   1.242  0.00  0.00    +0.048 A 
ATOM     20  C   UNL     1      -4.018  -1.486   0.056  0.00  0.00    +0.144 A 
ATOM     21  C   UNL     1      -3.377  -1.245  -1.169  0.00  0.00    +0.128 A 
ATOM     22  C   UNL     1      -2.067  -0.757  -1.178  0.00  0.00    +0.037 A 
BRANCH  17  24
ATOM     23  C   UNL     1      -0.019   1.526   0.010  0.00  0.00    +0.009 C 
ATOM     24  C   UNL     1       0.002  -0.004   0.002  0.00  0.00    +0.032 C 
ENDBRANCH  17  24
BRANCH  20  25
ATOM     25  O   UNL     1      -5.291  -1.956   0.077  0.00  0.00    -0.505 OA
ATOM     26  H   UNL     1      -5.966  -1.264   0.087  0.00  0.00    +0.292 HD
ENDBRANCH  20  25
ENDBRANCH  15  21
ENDBRANCH   1  16
TORSDOF 8
