REMARK  Name = ZINC28792950
REMARK  9 active torsions:
REMARK  status: ('A' for Active; 'I' for Inactive)
REMARK    1  A    between atoms: C_1  and  C_2
REMARK    2  A    between atoms: C_2  and  N_3
REMARK    3  A    between atoms: C_4  and  C_27
REMARK    4  A    between atoms: C_7  and  S_8
REMARK    5  A    between atoms: S_8  and  C_9
REMARK    6  A    between atoms: C_9  and  C_10
REMARK    7  A    between atoms: N_12  and  N_13
REMARK    8  A    between atoms: C_14  and  C_16
REMARK    9  A    between atoms: C_18  and  C_21
REMARK                            x       y       z     vdW  Elec       q    Type
REMARK                         _______ _______ _______ _____ _____    ______ ____
ROOT
ATOM      1  C   UNL     1       3.730  10.699  -0.195  0.00  0.00    +0.239 C 
ATOM      2  O   UNL     1       4.872  10.449  -0.518  0.00  0.00    -0.273 OA
ATOM      3  N   UNL     1       3.356  11.976   0.023  0.00  0.00    -0.233 N 
ATOM      4  H   UNL     1       2.320  12.203   0.316  0.00  0.00    +0.173 HD
ENDROOT
BRANCH   3   5
ATOM      5  N   UNL     1       4.286  13.013  -0.123  0.00  0.00    -0.229 N 
ATOM      6  C   UNL     1       3.912  14.289   0.096  0.00  0.00    +0.282 C 
ATOM      7  O   UNL     1       2.768  14.540   0.419  0.00  0.00    -0.267 OA
ATOM      8  H   UNL     1       5.322  12.786  -0.416  0.00  0.00    +0.173 HD
BRANCH   6   9
ATOM      9  C   UNL     1       4.897  15.388  -0.059  0.00  0.00    +0.170 A 
ATOM     10  C   UNL     1       4.661  16.775   0.128  0.00  0.00    +0.086 A 
ATOM     11  C   UNL     1       5.874  17.350  -0.131  0.00  0.00    +0.168 A 
ATOM     12  O   UNL     1       6.711  16.345  -0.445  0.00  0.00    -0.354 OA
ATOM     13  N   UNL     1       6.157  15.271  -0.401  0.00  0.00    -0.073 NA
BRANCH  11  14
ATOM     14  C   UNL     1       6.200  18.791  -0.081  0.00  0.00    +0.020 A 
ATOM     15  C   UNL     1       5.216  19.721   0.259  0.00  0.00    +0.011 A 
ATOM     16  C   UNL     1       5.529  21.064   0.309  0.00  0.00    +0.001 A 
ATOM     17  C   UNL     1       6.811  21.491   0.013  0.00  0.00    +0.000 A 
ATOM     18  C   UNL     1       7.790  20.575  -0.329  0.00  0.00    +0.001 A 
ATOM     19  C   UNL     1       7.492  19.228  -0.378  0.00  0.00    +0.011 A 
ENDBRANCH  11  14
ENDBRANCH   6   9
ENDBRANCH   3   5
BRANCH   1  20
ATOM     20  C   UNL     1       2.730   9.583  -0.038  0.00  0.00    +0.174 C 
BRANCH  20  21
ATOM     21  S   UNL     1       3.530   8.000  -0.397  0.00  0.00    -0.077 S 
BRANCH  21  26
ATOM     22  N   UNL     1       2.193   5.545  -0.272  0.00  0.00    -0.302 N 
ATOM     23  C   UNL     1       0.914   5.126   0.019  0.00  0.00    +0.171 A 
ATOM     24  N   UNL     1       0.212   6.201   0.304  0.00  0.00    -0.128 NA
ATOM     25  N   UNL     1       0.953   7.247   0.208  0.00  0.00    -0.122 NA
ATOM     26  C   UNL     1       2.172   6.906  -0.144  0.00  0.00    +0.192 A 
BRANCH  23  27
ATOM     27  C   UNL     1       0.426   3.737   0.017  0.00  0.00    +0.056 A 
ATOM     28  C   UNL     1      -0.866   3.275   0.026  0.00  0.00    +0.019 A 
ATOM     29  C   UNL     1      -1.081   1.915   0.017  0.00  0.00    +0.008 A 
ATOM     30  C   UNL     1      -0.013   1.076   0.008  0.00  0.00    +0.046 A 
ATOM     31  S   UNL     1       1.361   2.216   0.001  0.00  0.00    -0.094 S 
ENDBRANCH  23  27
BRANCH  22  33
ATOM     32  C   UNL     1       3.376   4.544  -2.164  0.00  0.00    +0.027 C 
ATOM     33  C   UNL     1       3.337   4.708  -0.643  0.00  0.00    +0.122 C 
ENDBRANCH  22  33
ENDBRANCH  21  26
ENDBRANCH  20  21
ENDBRANCH   1  20
TORSDOF 8
