REMARK  Name = ZINC43509840
REMARK  9 active torsions:
REMARK  status: ('A' for Active; 'I' for Inactive)
REMARK    1  A    between atoms: C_1  and  C_2
REMARK    2  A    between atoms: C_2  and  C_3
REMARK    3  A    between atoms: C_2  and  C_4
REMARK    4  A    between atoms: C_6  and  O_29
REMARK    5  A    between atoms: C_12  and  C_28
REMARK    6  A    between atoms: C_15  and  C_27
REMARK    7  A    between atoms: C_18  and  O_26
REMARK    8  A    between atoms: O_29  and  C_30
REMARK    9  A    between atoms: C_30  and  C_32
REMARK                            x       y       z     vdW  Elec       q    Type
REMARK                         _______ _______ _______ _____ _____    ______ ____
ROOT
ATOM      1  C   UNL     1       0.589   0.118  -1.792  0.00  0.00    +0.047 C 
ATOM      2  C   UNL     1       2.123   0.319  -1.823  0.00  0.00    +0.246 C 
ATOM      3  C   UNL     1       2.688  -0.775  -2.722  0.00  0.00    +0.180 C 
ATOM      4  O   UNL     1       3.849  -0.984  -2.981  0.00  0.00    -0.293 OA
ATOM      5  C   UNL     1       1.499  -1.534  -3.216  0.00  0.00    +0.098 C 
ATOM      6  C   UNL     1       0.424  -1.410  -2.113  0.00  0.00    -0.013 C 
ATOM      7  C   UNL     1       0.886  -2.117  -0.846  0.00  0.00    +0.009 C 
ATOM      8  C   UNL     1       1.006  -3.607  -0.941  0.00  0.00    +0.011 C 
ATOM      9  C   UNL     1       2.317  -4.081  -1.481  0.00  0.00    -0.008 C 
ATOM     10  C   UNL     1       2.594  -5.559  -1.205  0.00  0.00    +0.014 C 
ATOM     11  C   UNL     1       3.984  -5.906  -1.742  0.00  0.00    +0.037 C 
ATOM     12  C   UNL     1       4.078  -5.719  -3.250  0.00  0.00    +0.143 C 
ATOM     13  C   UNL     1       3.213  -4.589  -3.730  0.00  0.00    -0.014 C 
ATOM     14  C   UNL     1       2.428  -3.861  -2.960  0.00  0.00    -0.031 C 
ATOM     15  C   UNL     1       1.687  -2.886  -3.799  0.00  0.00    +0.156 C 
ATOM     16  O   UNL     1       2.412  -2.836  -5.044  0.00  0.00    -0.367 OA
ATOM     17  C   UNL     1       3.060  -4.098  -5.149  0.00  0.00    +0.194 C 
ATOM     18  C   UNL     1       3.428  -3.276  -0.802  0.00  0.00    +0.016 C 
ATOM     19  C   UNL     1      -0.981  -1.801  -2.574  0.00  0.00    +0.012 C 
ENDROOT
BRANCH   1  21
ATOM     20  C   UNL     1       0.210   1.935  -0.119  0.00  0.00    +0.007 C 
ATOM     21  C   UNL     1       0.029   0.443  -0.406  0.00  0.00    -0.010 C 
ATOM     22  C   UNL     1      -1.460   0.092  -0.362  0.00  0.00    +0.007 C 
ENDBRANCH   1  21
BRANCH  12  23
ATOM     23  O   UNL     1       5.436  -5.444  -3.600  0.00  0.00    -0.387 OA
ATOM     24  H   UNL     1       6.055  -6.146  -3.356  0.00  0.00    +0.210 HD
ENDBRANCH  12  23
BRANCH   2  25
ATOM     25  O   UNL     1       2.660   0.196  -0.505  0.00  0.00    -0.454 OA
BRANCH  25  26
ATOM     26  C   UNL     1       3.765   0.906  -0.229  0.00  0.00    +0.305 C 
ATOM     27  O   UNL     1       4.260   1.609  -1.078  0.00  0.00    -0.251 OA
ATOM     28  C   UNL     1       4.389   0.827   1.141  0.00  0.00    +0.136 C 
ENDBRANCH  25  26
ENDBRANCH   2  25
TORSDOF 4
