REMARK  Name = ZINC67501384
REMARK  12 active torsions:
REMARK  status: ('A' for Active; 'I' for Inactive)
REMARK    1  A    between atoms: C_1  and  C_2
REMARK    2  A    between atoms: C_2  and  C_3
REMARK    3  A    between atoms: C_3  and  C_4
REMARK    4  A    between atoms: N_6  and  C_7
REMARK    5  A    between atoms: C_11  and  N_14
REMARK    6  A    between atoms: C_12  and  C_13
REMARK    7  A    between atoms: C_15  and  C_17
REMARK    8  A    between atoms: C_19  and  C_23
REMARK    9  A    between atoms: N_21  and  C_22
REMARK   10  A    between atoms: C_23  and  C_24
REMARK   11  A    between atoms: C_23  and  C_25
REMARK   12  A    between atoms: C_23  and  C_26
REMARK                            x       y       z     vdW  Elec       q    Type
REMARK                         _______ _______ _______ _____ _____    ______ ____
ROOT
ATOM      1  C   UNL     1       0.047  -4.232   2.956  0.00  0.00    +0.038 A 
ATOM      2  C   UNL     1      -0.829  -4.910   2.117  0.00  0.00    +0.024 A 
ATOM      3  C   UNL     1      -0.911  -6.288   2.170  0.00  0.00    +0.004 A 
ATOM      4  C   UNL     1      -0.123  -6.997   3.056  0.00  0.00    +0.024 A 
ATOM      5  C   UNL     1       0.755  -6.325   3.897  0.00  0.00    +0.038 A 
ATOM      6  C   UNL     1       0.844  -4.941   3.843  0.00  0.00    -0.008 A 
ATOM      7  C   UNL     1       1.800  -4.210   4.750  0.00  0.00    +0.047 C 
ENDROOT
BRANCH   1  10
ATOM      8  C   UNL     1      -0.269  -2.180   1.795  0.00  0.00    +0.217 C 
ATOM      9  O   UNL     1      -0.582  -2.801   0.802  0.00  0.00    -0.275 OA
ATOM     10  N   UNL     1       0.130  -2.836   2.903  0.00  0.00    -0.285 N 
ATOM     11  H   UNL     1       0.473  -2.341   3.663  0.00  0.00    +0.155 HD
BRANCH   8  12
ATOM     12  C   UNL     1      -0.324  -0.674   1.791  0.00  0.00    +0.096 C 
BRANCH  12  14
ATOM     13  C   UNL     1      -0.861   1.344   0.418  0.00  0.00    +0.004 C 
ATOM     14  C   UNL     1      -0.804  -0.185   0.423  0.00  0.00    +0.006 C 
ENDBRANCH  12  14
ENDBRANCH   8  12
ENDBRANCH   1  10
BRANCH   5  15
ATOM     15  N   UNL     1       1.552  -7.043   4.794  0.00  0.00    -0.280 N 
ATOM     16  C   UNL     1       1.780  -8.356   4.591  0.00  0.00    +0.266 C 
ATOM     17  O   UNL     1       1.248  -8.929   3.659  0.00  0.00    -0.268 OA
ATOM     18  H   UNL     1       1.941  -6.596   5.562  0.00  0.00    +0.155 HD
BRANCH  16  19
ATOM     19  C   UNL     1       2.673  -9.096   5.497  0.00  0.00    +0.124 A 
ATOM     20  C   UNL     1       2.931 -10.456   5.481  0.00  0.00    +0.058 A 
ATOM     21  C   UNL     1       3.833 -10.674   6.524  0.00  0.00    +0.069 A 
ATOM     22  N   UNL     1       4.073  -9.521   7.094  0.00  0.00    -0.175 NA
ATOM     23  N   UNL     1       3.419  -8.578   6.517  0.00  0.00    -0.262 N 
ATOM     24  C   UNL     1       3.462  -7.164   6.898  0.00  0.00    +0.173 C 
BRANCH  21  25
ATOM     25  C   UNL     1       4.425 -12.001   6.923  0.00  0.00    +0.006 C 
ATOM     26  C   UNL     1       5.497 -12.407   5.910  0.00  0.00    +0.017 C 
ATOM     27  C   UNL     1       5.056 -11.881   8.312  0.00  0.00    +0.017 C 
ATOM     28  C   UNL     1       3.323 -13.062   6.953  0.00  0.00    +0.017 C 
ENDBRANCH  21  25
ENDBRANCH  16  19
ENDBRANCH   5  15
TORSDOF 6
