REMARK  Name = ZINC01392143
REMARK  4 active torsions:
REMARK  status: ('A' for Active; 'I' for Inactive)
REMARK    1  A    between atoms: C_1  and  C_2
REMARK    2  A    between atoms: C_2  and  C_19
REMARK    3  A    between atoms: N_8  and  C_13
REMARK    4  A    between atoms: C_22  and  N_25
REMARK                            x       y       z     vdW  Elec       q    Type
REMARK                         _______ _______ _______ _____ _____    ______ ____
ROOT
ATOM      1  C   UNL     1      -1.108   4.270  -0.786  0.00  0.00    +0.040 C 
ATOM      2  C   UNL     1      -0.599   4.022   0.635  0.00  0.00    +0.092 C 
ATOM      3  C   UNL     1       0.942   4.036   0.679  0.00  0.00    +0.209 C 
ATOM      4  N   UNL     1       1.513   4.678  -0.514  0.00  0.00    -0.303 N 
ATOM      5  C   UNL     1       2.472   3.837  -0.964  0.00  0.00    +0.156 C 
ATOM      6  S   UNL     1       3.596   4.223  -2.197  0.00  0.00    -0.017 S 
ATOM      7  N   UNL     1       2.428   2.655  -0.316  0.00  0.00    -0.196 N 
ATOM      8  N   UNL     1       1.236   2.596   0.414  0.00  0.00    -0.202 N 
ATOM      9  C   UNL     1       0.223   1.903   0.939  0.00  0.00    +0.152 C 
ATOM     10  S   UNL     1       0.335   0.256   1.394  0.00  0.00    -0.017 S 
ATOM     11  N   UNL     1      -0.900   2.639   1.067  0.00  0.00    -0.313 N 
ATOM     12  H   UNL     1       1.255   5.530  -0.899  0.00  0.00    +0.150 HD
ATOM     13  H   UNL     1      -1.757   2.318   1.389  0.00  0.00    +0.149 HD
ENDROOT
BRANCH   7  14
ATOM     14  C   UNL     1       3.408   1.657  -0.364  0.00  0.00    +0.055 A 
ATOM     15  C   UNL     1       4.745   1.986  -0.184  0.00  0.00    +0.025 A 
ATOM     16  C   UNL     1       5.709   0.999  -0.227  0.00  0.00    +0.002 A 
ATOM     17  C   UNL     1       5.346  -0.315  -0.460  0.00  0.00    +0.000 A 
ATOM     18  C   UNL     1       4.016  -0.645  -0.645  0.00  0.00    +0.002 A 
ATOM     19  C   UNL     1       3.046   0.337  -0.598  0.00  0.00    +0.025 A 
ENDBRANCH   7  14
BRANCH   2  20
ATOM     20  C   UNL     1      -1.175   5.030   1.596  0.00  0.00    -0.021 A 
ATOM     21  C   UNL     1      -0.470   6.181   1.895  0.00  0.00    +0.008 A 
ATOM     22  C   UNL     1      -1.001   7.107   2.773  0.00  0.00    +0.033 A 
ATOM     23  C   UNL     1      -2.232   6.878   3.359  0.00  0.00    +0.126 A 
ATOM     24  C   UNL     1      -2.934   5.725   3.063  0.00  0.00    +0.033 A 
ATOM     25  C   UNL     1      -2.406   4.801   2.182  0.00  0.00    +0.008 A 
BRANCH  23  26
ATOM     26  N   UNL     1      -2.798   7.868   4.303  0.00  0.00    +0.056 N 
ATOM     27  O   UNL     1      -3.883   7.667   4.818  0.00  0.00    -0.126 OA
ATOM     28  O   UNL     1      -2.179   8.884   4.563  0.00  0.00    -0.126 OA
ENDBRANCH  23  26
ENDBRANCH   2  20
TORSDOF 3
