REMARK  Name = ZINC05746427
REMARK  5 active torsions:
REMARK  status: ('A' for Active; 'I' for Inactive)
REMARK    1  A    between atoms: C_1  and  C_2
REMARK    2  A    between atoms: C_5  and  S_8
REMARK    3  A    between atoms: S_8  and  N_11
REMARK    4  A    between atoms: N_11  and  N_12
REMARK    5  A    between atoms: C_21  and  C_24
REMARK                            x       y       z     vdW  Elec       q    Type
REMARK                         _______ _______ _______ _____ _____    ______ ____
ROOT
ATOM      1  N   UNL     1       2.500  -4.622   1.014  0.00  0.00    -0.134 NA
ATOM      2  C   UNL     1       3.746  -4.990   1.005  0.00  0.00    +0.203 C 
ATOM      3  N   UNL     1       4.292  -5.759  -0.030  0.00  0.00    -0.286 N 
ATOM      4  C   UNL     1       5.285  -6.690   0.304  0.00  0.00    +0.039 A 
ATOM      5  C   UNL     1       5.699  -7.610  -0.653  0.00  0.00    +0.023 A 
ATOM      6  C   UNL     1       6.684  -8.527  -0.347  0.00  0.00    +0.002 A 
ATOM      7  C   UNL     1       7.260  -8.529   0.911  0.00  0.00    +0.000 A 
ATOM      8  C   UNL     1       6.846  -7.619   1.864  0.00  0.00    +0.007 A 
ATOM      9  C   UNL     1       5.854  -6.700   1.568  0.00  0.00    -0.002 A 
ATOM     10  C   UNL     1       5.404  -5.740   2.641  0.00  0.00    +0.135 C 
ATOM     11  N   UNL     1       4.639  -4.639   2.029  0.00  0.00    -0.305 N 
ATOM     12  H   UNL     1       4.745  -3.720   2.318  0.00  0.00    +0.150 HD
ATOM     13  H   UNL     1       3.994  -5.650  -0.946  0.00  0.00    +0.155 HD
ENDROOT
BRANCH  10  14
ATOM     14  C   UNL     1       4.535  -6.468   3.634  0.00  0.00    -0.023 A 
ATOM     15  C   UNL     1       3.207  -6.716   3.339  0.00  0.00    +0.006 A 
ATOM     16  C   UNL     1       2.410  -7.384   4.249  0.00  0.00    +0.000 A 
ATOM     17  C   UNL     1       2.940  -7.805   5.455  0.00  0.00    +0.000 A 
ATOM     18  C   UNL     1       4.268  -7.558   5.749  0.00  0.00    +0.000 A 
ATOM     19  C   UNL     1       5.067  -6.894   4.837  0.00  0.00    +0.006 A 
ENDBRANCH  10  14
BRANCH   1  20
ATOM     20  N   UNL     1       1.651  -4.999  -0.034  0.00  0.00    -0.134 N 
ATOM     21  H   UNL     1       1.993  -5.536  -0.767  0.00  0.00    +0.197 HD
BRANCH  20  22
ATOM     22  S   UNL     1       0.063  -4.530  -0.023  0.00  0.00    +0.087 S 
ATOM     23  O   UNL     1      -0.476  -4.950   1.223  0.00  0.00    -0.149 OA
ATOM     24  O   UNL     1      -0.490  -4.937  -1.267  0.00  0.00    -0.149 OA
BRANCH  22  29
ATOM     25  C   UNL     1      -0.018   1.503   0.010  0.00  0.00    +0.044 C 
ATOM     26  C   UNL     1       0.002  -0.004   0.002  0.00  0.00    -0.050 A 
ATOM     27  C   UNL     1       0.006  -0.689  -1.199  0.00  0.00    +0.005 A 
ATOM     28  C   UNL     1       0.025  -2.071  -1.206  0.00  0.00    +0.029 A 
ATOM     29  C   UNL     1       0.040  -2.768  -0.013  0.00  0.00    +0.110 A 
ATOM     30  C   UNL     1       0.037  -2.084   1.188  0.00  0.00    +0.029 A 
ATOM     31  C   UNL     1       0.023  -0.702   1.195  0.00  0.00    +0.005 A 
ENDBRANCH  22  29
ENDBRANCH  20  22
ENDBRANCH   1  20
TORSDOF 4
