REMARK  Name = ZINC13498886
REMARK  12 active torsions:
REMARK  status: ('A' for Active; 'I' for Inactive)
REMARK    1  A    between atoms: C_1  and  C_2
REMARK    2  A    between atoms: C_6  and  C_15
REMARK    3  A    between atoms: C_13  and  C_14
REMARK    4  A    between atoms: C_15  and  N_16
REMARK    5  A    between atoms: N_16  and  C_17
REMARK    6  A    between atoms: N_16  and  C_24
REMARK    7  A    between atoms: C_17  and  C_18
REMARK    8  A    between atoms: C_24  and  C_26
REMARK    9  A    between atoms: C_24  and  C_37
REMARK   10  A    between atoms: N_30  and  C_31
REMARK   11  A    between atoms: C_37  and  C_38
REMARK   12  A    between atoms: C_37  and  C_39
REMARK                            x       y       z     vdW  Elec       q    Type
REMARK                         _______ _______ _______ _____ _____    ______ ____
ROOT
ATOM      1  N   UNL     1       1.632  -5.495  -4.364  0.00  0.00    -0.284 NA
ENDROOT
BRANCH   1   2
ATOM      2  C   UNL     1       0.383  -4.835  -3.961  0.00  0.00    +0.126 C 
BRANCH   2   8
ATOM      3  C   UNL     1       1.975   1.423  -0.230  0.00  0.00    +0.044 C 
ATOM      4  C   UNL     1       1.633  -0.045  -0.249  0.00  0.00    -0.047 A 
ATOM      5  C   UNL     1       1.441  -0.680  -1.444  0.00  0.00    +0.013 A 
ATOM      6  C   UNL     1       1.124  -2.042  -1.462  0.00  0.00    -0.001 A 
ATOM      7  C   UNL     1       0.912  -2.753  -2.724  0.00  0.00    +0.020 A 
ATOM      8  C   UNL     1       0.607  -4.073  -2.680  0.00  0.00    +0.031 A 
ATOM      9  C   UNL     1       0.499  -4.737  -1.440  0.00  0.00    +0.254 A 
ATOM     10  O   UNL     1       0.224  -5.924  -1.423  0.00  0.00    -0.268 OA
ATOM     11  N   UNL     1       0.692  -4.093  -0.275  0.00  0.00    -0.322 N 
ATOM     12  H   UNL     1       0.611  -4.579   0.560  0.00  0.00    +0.169 HD
ATOM     13  C   UNL     1       1.004  -2.750  -0.252  0.00  0.00    +0.049 A 
ATOM     14  C   UNL     1       1.204  -2.083   0.952  0.00  0.00    +0.030 A 
ATOM     15  C   UNL     1       1.522  -0.741   0.946  0.00  0.00    -0.046 A 
ATOM     16  C   UNL     1       1.744  -0.022   2.252  0.00  0.00    +0.044 C 
ENDBRANCH   2   8
ENDBRANCH   1   2
BRANCH   1  17
ATOM     17  C   UNL     1       1.883  -6.689  -3.547  0.00  0.00    +0.122 C 
BRANCH  17  18
ATOM     18  C   UNL     1       3.277  -7.197  -3.815  0.00  0.00    -0.015 A 
ATOM     19  C   UNL     1       3.489  -8.209  -4.739  0.00  0.00    +0.008 A 
ATOM     20  C   UNL     1       4.788  -8.645  -4.954  0.00  0.00    +0.020 A 
ATOM     21  C   UNL     1       5.820  -8.060  -4.245  0.00  0.00    +0.111 A 
ATOM     22  N   UNL     1       5.581  -7.100  -3.373  0.00  0.00    -0.263 NA
ATOM     23  C   UNL     1       4.359  -6.656  -3.148  0.00  0.00    +0.115 A 
ENDBRANCH  17  18
ENDBRANCH   1  17
BRANCH   1  24
ATOM     24  C   UNL     1       1.612  -5.830  -5.794  0.00  0.00    +0.130 C 
BRANCH  24  25
ATOM     25  C   UNL     1       0.220  -6.244  -6.195  0.00  0.00    +0.169 A 
ATOM     26  N   UNL     1      -0.885  -5.568  -5.995  0.00  0.00    -0.112 NA
ATOM     27  N   UNL     1      -1.863  -6.252  -6.479  0.00  0.00    -0.023 NA
ATOM     28  N   UNL     1      -1.411  -7.347  -6.984  0.00  0.00    -0.044 NA
ATOM     29  N   UNL     1      -0.130  -7.376  -6.832  0.00  0.00    -0.225 N 
BRANCH  29  30
ATOM     30  C   UNL     1       0.773  -8.443  -7.270  0.00  0.00    +0.111 C 
ATOM     31  C   UNL     1       0.672  -8.607  -8.787  0.00  0.00    +0.027 C 
ATOM     32  C   UNL     1       1.616  -9.721  -9.244  0.00  0.00    +0.002 C 
ATOM     33  C   UNL     1       1.223 -11.034  -8.562  0.00  0.00    +0.000 C 
ATOM     34  C   UNL     1       1.324 -10.870  -7.044  0.00  0.00    +0.002 C 
ATOM     35  C   UNL     1       0.380  -9.755  -6.588  0.00  0.00    +0.027 C 
ENDBRANCH  29  30
ENDBRANCH  24  25
BRANCH  24  36
ATOM     36  C   UNL     1       2.036  -4.607  -6.610  0.00  0.00    +0.008 C 
ATOM     37  C   UNL     1       1.092  -3.441  -6.308  0.00  0.00    +0.009 C 
ATOM     38  C   UNL     1       3.467  -4.215  -6.237  0.00  0.00    +0.009 C 
ENDBRANCH  24  36
ENDBRANCH   1  24
TORSDOF 8
