REMARK  Name = ZINC05477701
REMARK  7 active torsions:
REMARK  status: ('A' for Active; 'I' for Inactive)
REMARK    1  A    between atoms: C_1  and  C_2
REMARK    2  A    between atoms: C_2  and  C_4
REMARK    3  A    between atoms: C_2  and  O_29
REMARK    4  A    between atoms: C_4  and  N_5
REMARK    5  A    between atoms: C_12  and  C_16
REMARK    6  A    between atoms: C_25  and  S_27
REMARK    7  A    between atoms: S_27  and  C_28
REMARK                            x       y       z     vdW  Elec       q    Type
REMARK                         _______ _______ _______ _____ _____    ______ ____
ROOT
ATOM      1  N   UNL     1       2.308   1.502  -6.553  0.00  0.00    -0.326 N 
ATOM      2  C   UNL     1       2.195   1.280  -5.189  0.00  0.00    +0.138 A 
ATOM      3  C   UNL     1       1.020   1.585  -4.515  0.00  0.00    +0.080 A 
ATOM      4  C   UNL     1       0.898   1.364  -3.139  0.00  0.00    +0.094 A 
ATOM      5  C   UNL     1      -0.399   1.727  -2.538  0.00  0.00    +0.037 A 
ATOM      6  C   UNL     1      -0.785   1.607  -1.181  0.00  0.00    -0.030 A 
ATOM      7  C   UNL     1      -2.033   2.000  -0.800  0.00  0.00    -0.014 A 
ATOM      8  C   UNL     1      -2.923   2.519  -1.752  0.00  0.00    +0.111 A 
ATOM      9  N   UNL     1      -2.555   2.628  -3.024  0.00  0.00    -0.236 NA
ATOM     10  C   UNL     1      -1.357   2.258  -3.421  0.00  0.00    +0.112 A 
ATOM     11  S   UNL     1      -0.545   2.260  -5.001  0.00  0.00    -0.064 S 
ATOM     12  C   UNL     1      -2.212   1.777   0.687  0.00  0.00    +0.038 C 
ATOM     13  C   UNL     1      -0.779   1.605   1.244  0.00  0.00    +0.009 C 
ATOM     14  C   UNL     1      -0.013   1.086   0.008  0.00  0.00    +0.036 C 
ATOM     15  N   UNL     1       1.984   0.842  -2.522  0.00  0.00    -0.221 NA
ATOM     16  C   UNL     1       3.083   0.564  -3.190  0.00  0.00    +0.190 A 
ATOM     17  N   UNL     1       3.210   0.769  -4.495  0.00  0.00    -0.206 NA
ATOM     18  H   UNL     1       1.561   1.874  -7.048  0.00  0.00    +0.148 HD
ENDROOT
BRANCH   8  19
ATOM     19  C   UNL     1      -4.274   2.945  -1.339  0.00  0.00    +0.153 A 
ATOM     20  C   UNL     1      -4.971   3.997  -1.850  0.00  0.00    +0.051 A 
ATOM     21  C   UNL     1      -6.204   4.034  -1.171  0.00  0.00    +0.042 A 
ATOM     22  C   UNL     1      -6.197   3.020  -0.283  0.00  0.00    +0.196 A 
ATOM     23  O   UNL     1      -5.030   2.365  -0.387  0.00  0.00    -0.461 OA
ENDBRANCH   8  19
BRANCH  16  24
ATOM     24  S   UNL     1       4.452  -0.112  -2.310  0.00  0.00    -0.089 S 
ATOM     25  C   UNL     1       5.639  -0.290  -3.664  0.00  0.00    +0.093 C 
ENDBRANCH  16  24
BRANCH   1  26
ATOM     26  C   UNL     1       3.555   1.174  -7.247  0.00  0.00    +0.134 C 
BRANCH  26  28
ATOM     27  C   UNL     1       4.720   1.170  -9.458  0.00  0.00    +0.039 C 
ATOM     28  C   UNL     1       3.417   1.512  -8.733  0.00  0.00    +0.128 C 
BRANCH  28  29
ATOM     29  O   UNL     1       2.345   0.754  -9.296  0.00  0.00    -0.391 OA
ATOM     30  H   UNL     1       2.199   0.918 -10.238  0.00  0.00    +0.210 HD
ENDBRANCH  28  29
ENDBRANCH  26  28
ENDBRANCH   1  26
TORSDOF 5
