REMARK  Name = ZINC47070327
REMARK  5 active torsions:
REMARK  status: ('A' for Active; 'I' for Inactive)
REMARK    1  A    between atoms: C_1  and  C_2
REMARK    2  A    between atoms: C_5  and  C_26
REMARK    3  A    between atoms: N_12  and  C_13
REMARK    4  A    between atoms: C_13  and  C_14
REMARK    5  A    between atoms: C_14  and  C_15
REMARK                            x       y       z     vdW  Elec       q    Type
REMARK                         _______ _______ _______ _____ _____    ______ ____
ROOT
ATOM      1  C   UNL     1       4.168  -3.002   1.366  0.00  0.00    +0.110 C 
ENDROOT
BRANCH   1  11
ATOM      2  C   UNL     1      -0.018   1.525   0.006  0.00  0.00    +0.009 C 
ATOM      3  C   UNL     1       0.003  -0.005  -0.001  0.00  0.00    +0.004 C 
ATOM      4  C   UNL     1      -1.432  -0.536   0.010  0.00  0.00    +0.009 C 
ATOM      5  C   UNL     1      -1.413  -2.065  -0.030  0.00  0.00    +0.004 C 
ATOM      6  C   UNL     1      -0.691  -2.596   1.212  0.00  0.00    +0.112 C 
ATOM      7  N   UNL     1       0.639  -1.978   1.287  0.00  0.00    -0.285 N 
ATOM      8  C   UNL     1       0.741  -0.512   1.241  0.00  0.00    +0.112 C 
ATOM      9  C   UNL     1       1.746  -2.740   1.395  0.00  0.00    +0.302 C 
ATOM     10  O   UNL     1       1.644  -3.944   1.524  0.00  0.00    -0.253 OA
ATOM     11  N   UNL     1       2.965  -2.166   1.360  0.00  0.00    -0.299 N 
ATOM     12  C   UNL     1      -2.849  -2.594  -0.053  0.00  0.00    +0.009 C 
ATOM     13  H   UNL     1       3.046  -1.200   1.331  0.00  0.00    +0.150 HD
ENDBRANCH   1  11
BRANCH   1  14
ATOM     14  C   UNL     1       5.410  -2.109   1.321  0.00  0.00    +0.057 C 
BRANCH  14  15
ATOM     15  C   UNL     1       6.647  -2.969   1.327  0.00  0.00    -0.001 A 
ATOM     16  C   UNL     1       7.288  -3.248   2.518  0.00  0.00    +0.045 A 
ATOM     17  C   UNL     1       8.426  -4.038   2.524  0.00  0.00    +0.124 A 
ATOM     18  C   UNL     1       8.922  -4.547   1.335  0.00  0.00    +0.047 A 
ATOM     19  C   UNL     1       8.282  -4.269   0.142  0.00  0.00    +0.023 A 
ATOM     20  C   UNL     1       7.139  -3.485   0.136  0.00  0.00    +0.132 A 
ATOM     21  O   UNL     1       6.492  -3.215  -1.030  0.00  0.00    -0.466 OA
ATOM     22  C   UNL     1       7.216  -3.453  -2.240  0.00  0.00    +0.394 C 
ATOM     23  O   UNL     1       7.825  -4.747  -2.163  0.00  0.00    -0.339 OA
ATOM     24  C   UNL     1       8.834  -4.825  -1.146  0.00  0.00    +0.202 C 
ATOM     25  F   UNL     1       9.052  -4.311   3.689  0.00  0.00    -0.205 F 
ENDBRANCH  14  15
ENDBRANCH   1  14
TORSDOF 3
