REMARK  Name = ZINC43769415
REMARK  14 active torsions:
REMARK  status: ('A' for Active; 'I' for Inactive)
REMARK    1  A    between atoms: C_1  and  C_2
REMARK    2  A    between atoms: C_4  and  O_26
REMARK    3  A    between atoms: C_8  and  C_25
REMARK    4  A    between atoms: C_10  and  O_17
REMARK    5  A    between atoms: C_12  and  C_13
REMARK    6  A    between atoms: C_12  and  O_16
REMARK    7  A    between atoms: C_13  and  C_14
REMARK    8  A    between atoms: C_13  and  C_15
REMARK    9  A    between atoms: O_17  and  C_18
REMARK   10  A    between atoms: C_18  and  C_20
REMARK   11  A    between atoms: C_21  and  O_24
REMARK   12  A    between atoms: O_26  and  C_27
REMARK   13  A    between atoms: C_27  and  C_29
REMARK   14  A    between atoms: C_32  and  O_35
REMARK                            x       y       z     vdW  Elec       q    Type
REMARK                         _______ _______ _______ _____ _____    ______ ____
ROOT
ATOM      1  C   UNL     1       3.228   0.933   0.391  0.00  0.00    +0.039 C 
ATOM      2  C   UNL     1       2.667  -0.455   0.224  0.00  0.00    -0.071 C 
ATOM      3  C   UNL     1       1.896  -0.709  -0.796  0.00  0.00    +0.016 C 
ATOM      4  C   UNL     1       1.358  -2.110  -1.018  0.00  0.00    +0.206 C 
ATOM      5  C   UNL     1       2.545  -2.978  -1.400  0.00  0.00    +0.078 C 
ATOM      6  C   UNL     1       3.237  -3.546  -0.168  0.00  0.00    +0.007 C 
ATOM      7  C   UNL     1       4.100  -4.682  -0.740  0.00  0.00    +0.057 C 
ATOM      8  C   UNL     1       3.192  -5.303  -1.832  0.00  0.00    +0.209 C 
ATOM      9  C   UNL     1       2.174  -4.219  -2.218  0.00  0.00    +0.112 C 
ATOM     10  C   UNL     1       4.002  -2.520   0.630  0.00  0.00    +0.125 C 
ATOM     11  C   UNL     1       3.018  -1.520   1.242  0.00  0.00    +0.062 C 
ATOM     12  C   UNL     1       2.173  -4.159   0.744  0.00  0.00    +0.014 C 
ENDROOT
BRANCH   9  13
ATOM     13  C   UNL     1       0.754  -4.674  -1.874  0.00  0.00    +0.019 C 
ATOM     14  C   UNL     1      -0.239  -4.011  -2.830  0.00  0.00    +0.010 C 
ATOM     15  C   UNL     1       0.659  -6.195  -2.013  0.00  0.00    +0.010 C 
ENDBRANCH   9  13
BRANCH   9  16
ATOM     16  O   UNL     1       2.280  -3.940  -3.615  0.00  0.00    -0.384 OA
ATOM     17  H   UNL     1       2.056  -4.689  -4.184  0.00  0.00    +0.210 HD
ENDBRANCH   9  16
BRANCH  10  18
ATOM     18  O   UNL     1       4.732  -3.172   1.671  0.00  0.00    -0.391 OA
ATOM     19  H   UNL     1       5.249  -2.571   2.226  0.00  0.00    +0.210 HD
ENDBRANCH  10  18
BRANCH   8  20
ATOM     20  O   UNL     1       3.977  -5.685  -2.964  0.00  0.00    -0.459 OA
BRANCH  20  21
ATOM     21  C   UNL     1       4.452  -6.940  -2.981  0.00  0.00    +0.304 C 
ATOM     22  O   UNL     1       4.209  -7.691  -2.066  0.00  0.00    -0.251 OA
ATOM     23  C   UNL     1       5.288  -7.414  -4.142  0.00  0.00    +0.136 C 
ENDBRANCH  20  21
ENDBRANCH   8  20
BRANCH   4  24
ATOM     24  O   UNL     1       0.758  -2.600   0.183  0.00  0.00    -0.453 OA
BRANCH  24  25
ATOM     25  C   UNL     1      -0.524  -2.256   0.411  0.00  0.00    +0.340 C 
ATOM     26  O   UNL     1      -1.138  -1.616  -0.420  0.00  0.00    -0.245 OA
BRANCH  25  27
ATOM     27  C   UNL     1      -1.183  -2.656   1.668  0.00  0.00    +0.059 A 
ATOM     28  C   UNL     1      -0.447  -3.290   2.674  0.00  0.00    +0.018 A 
ATOM     29  C   UNL     1      -1.066  -3.661   3.846  0.00  0.00    +0.046 A 
ATOM     30  C   UNL     1      -2.420  -3.407   4.031  0.00  0.00    +0.117 A 
ATOM     31  C   UNL     1      -3.155  -2.776   3.034  0.00  0.00    +0.046 A 
ATOM     32  C   UNL     1      -2.543  -2.396   1.861  0.00  0.00    +0.018 A 
BRANCH  30  33
ATOM     33  O   UNL     1      -3.026  -3.775   5.188  0.00  0.00    -0.507 OA
ATOM     34  H   UNL     1      -3.006  -3.096   5.876  0.00  0.00    +0.292 HD
ENDBRANCH  30  33
ENDBRANCH  25  27
ENDBRANCH  24  25
ENDBRANCH   4  24
TORSDOF 9
