REMARK  Name = ZINC53405020
REMARK  10 active torsions:
REMARK  status: ('A' for Active; 'I' for Inactive)
REMARK    1  A    between atoms: C_1  and  C_2
REMARK    2  A    between atoms: N_7  and  C_9
REMARK    3  A    between atoms: C_9  and  C_10
REMARK    4  A    between atoms: C_9  and  C_11
REMARK    5  A    between atoms: C_9  and  C_12
REMARK    6  A    between atoms: C_12  and  N_13
REMARK    7  A    between atoms: C_14  and  C_16
REMARK    8  A    between atoms: C_16  and  C_17
REMARK    9  A    between atoms: C_17  and  N_18
REMARK   10  A    between atoms: C_19  and  C_21
REMARK                            x       y       z     vdW  Elec       q    Type
REMARK                         _______ _______ _______ _____ _____    ______ ____
ROOT
ATOM      1  N   UNL     1       2.186  -4.461   1.142  0.00  0.00    -0.317 N 
ATOM      2  C   UNL     1       2.321  -5.782   0.914  0.00  0.00    +0.214 C 
ATOM      3  O   UNL     1       1.925  -6.582   1.736  0.00  0.00    -0.276 OA
ATOM      4  H   UNL     1       2.502  -3.821   0.485  0.00  0.00    +0.149 HD
ENDROOT
BRANCH   1   5
ATOM      5  C   UNL     1       1.562  -3.991   2.382  0.00  0.00    +0.092 C 
BRANCH   5   6
ATOM      6  C   UNL     1       1.534  -2.461   2.390  0.00  0.00    -0.055 C 
ATOM      7  C   UNL     1       2.963  -1.924   2.303  0.00  0.00    -0.008 C 
ATOM      8  C   UNL     1       0.882  -1.970   3.685  0.00  0.00    -0.008 C 
BRANCH   6  14
ATOM      9  C   UNL     1      -0.019   1.526   0.010  0.00  0.00    +0.005 C 
ATOM     10  C   UNL     1       0.002  -0.004   0.002  0.00  0.00    -0.031 C 
ATOM     11  C   UNL     1      -1.434  -0.535   0.015  0.00  0.00    -0.001 C 
ATOM     12  C   UNL     1      -1.402  -2.064   0.086  0.00  0.00    -0.018 C 
ATOM     13  C   UNL     1      -0.613  -2.496   1.324  0.00  0.00    -0.078 C 
ATOM     14  N   UNL     1       0.758  -1.980   1.239  0.00  0.00    +0.384 N 
ATOM     15  C   UNL     1       0.740  -0.512   1.242  0.00  0.00    -0.075 C 
ATOM     16  H   UNL     1       1.188  -2.307   0.386  0.00  0.00    -0.081 HD
ENDBRANCH   6  14
ENDBRANCH   5   6
ENDBRANCH   1   5
BRANCH   2  17
ATOM     17  C   UNL     1       2.962  -6.266  -0.361  0.00  0.00    +0.114 C 
BRANCH  17  18
ATOM     18  C   UNL     1       2.991  -7.795  -0.369  0.00  0.00    +0.113 C 
BRANCH  18  19
ATOM     19  N   UNL     1       3.615  -8.265  -1.609  0.00  0.00    -0.311 N 
ATOM     20  C   UNL     1       3.749  -9.587  -1.836  0.00  0.00    +0.246 C 
ATOM     21  O   UNL     1       3.353 -10.390  -1.012  0.00  0.00    -0.270 OA
ATOM     22  H   UNL     1       3.931  -7.625  -2.265  0.00  0.00    +0.149 HD
BRANCH  20  23
ATOM     23  C   UNL     1       4.375 -10.058  -3.079  0.00  0.00    +0.062 A 
ATOM     24  C   UNL     1       4.870  -9.285  -4.088  0.00  0.00    +0.096 A 
ATOM     25  N   UNL     1       5.368 -10.076  -5.069  0.00  0.00    -0.360 N 
ATOM     26  H   UNL     1       5.774  -9.752  -5.888  0.00  0.00    +0.165 HD
ATOM     27  C   UNL     1       5.217 -11.407  -4.738  0.00  0.00    +0.047 A 
ATOM     28  C   UNL     1       4.596 -11.460  -3.479  0.00  0.00    +0.012 A 
ATOM     29  C   UNL     1       4.322 -12.690  -2.888  0.00  0.00    +0.011 A 
ATOM     30  C   UNL     1       4.665 -13.853  -3.541  0.00  0.00    +0.001 A 
ATOM     31  C   UNL     1       5.282 -13.802  -4.783  0.00  0.00    +0.002 A 
ATOM     32  C   UNL     1       5.551 -12.592  -5.384  0.00  0.00    +0.026 A 
ENDBRANCH  20  23
ENDBRANCH  18  19
ENDBRANCH  17  18
ENDBRANCH   2  17
TORSDOF 7
