REMARK  Name = ZINC22531026
REMARK  7 active torsions:
REMARK  status: ('A' for Active; 'I' for Inactive)
REMARK    1  A    between atoms: C_1  and  C_2
REMARK    2  A    between atoms: C_7  and  N_8
REMARK    3  A    between atoms: C_9  and  C_11
REMARK    4  A    between atoms: C_12  and  C_33
REMARK    5  A    between atoms: N_18  and  C_23
REMARK    6  A    between atoms: N_21  and  C_22
REMARK    7  A    between atoms: C_24  and  C_26
REMARK                            x       y       z     vdW  Elec       q    Type
REMARK                         _______ _______ _______ _____ _____    ______ ____
ROOT
ATOM      1  C   UNL     1      -1.278   2.918   0.396  0.00  0.00    +0.043 C 
ATOM      2  C   UNL     1      -1.211   1.625   0.034  0.00  0.00    +0.015 C 
ATOM      3  N   UNL     1      -0.016   0.957   0.035  0.00  0.00    -0.304 N 
ATOM      4  C   UNL     1       1.168   1.654   0.033  0.00  0.00    +0.116 A 
ATOM      5  C   UNL     1       1.197   2.968   0.393  0.00  0.00    +0.067 A 
ATOM      6  C   UNL     1       2.424   3.654   0.373  0.00  0.00    +0.262 A 
ATOM      7  O   UNL     1       2.475   4.831   0.688  0.00  0.00    -0.267 OA
ATOM      8  N   UNL     1       3.544   3.002   0.005  0.00  0.00    -0.264 N 
ATOM      9  C   UNL     1       3.497   1.703  -0.344  0.00  0.00    +0.333 A 
ATOM     10  O   UNL     1       4.519   1.133  -0.671  0.00  0.00    -0.246 OA
ATOM     11  N   UNL     1       2.334   1.026  -0.335  0.00  0.00    -0.284 N 
ATOM     12  C   UNL     1       2.310  -0.387  -0.718  0.00  0.00    +0.155 C 
ATOM     13  C   UNL     1       4.825   3.713  -0.017  0.00  0.00    +0.157 C 
ATOM     14  C   UNL     1      -0.056   3.686   0.811  0.00  0.00    +0.094 C 
ATOM     15  C   UNL     1      -2.468   0.900  -0.371  0.00  0.00    +0.061 C 
ATOM     16  H   UNL     1      -0.001  -0.143   0.036  0.00  0.00    +0.153 HD
ENDROOT
BRANCH  14  17
ATOM     17  C   UNL     1      -0.058   3.846   2.310  0.00  0.00    -0.035 A 
ATOM     18  C   UNL     1      -0.025   2.730   3.124  0.00  0.00    +0.006 A 
ATOM     19  C   UNL     1      -0.021   2.877   4.499  0.00  0.00    +0.020 A 
ATOM     20  C   UNL     1      -0.061   4.141   5.059  0.00  0.00    +0.041 A 
ATOM     21  C   UNL     1      -0.099   5.258   4.243  0.00  0.00    +0.020 A 
ATOM     22  C   UNL     1      -0.098   5.110   2.869  0.00  0.00    +0.006 A 
ATOM     23 CL   UNL     1      -0.063   4.326   6.785  0.00  0.00    -0.084 Cl
ENDBRANCH  14  17
BRANCH   1  25
ATOM     24  N   UNL     1      -2.618   4.872   0.732  0.00  0.00    -0.281 N 
ATOM     25  C   UNL     1      -2.532   3.575   0.379  0.00  0.00    +0.247 C 
ATOM     26  O   UNL     1      -3.533   2.967   0.044  0.00  0.00    -0.270 OA
ATOM     27  H   UNL     1      -1.729   5.401   1.105  0.00  0.00    +0.155 HD
BRANCH  24  34
ATOM     28  C   UNL     1      -2.573   7.626   0.019  0.00  0.00    +0.045 C 
ATOM     29  C   UNL     1      -3.863   6.891   0.280  0.00  0.00    -0.029 A 
ATOM     30  C   UNL     1      -5.070   7.553   0.170  0.00  0.00    +0.005 A 
ATOM     31  C   UNL     1      -6.253   6.881   0.414  0.00  0.00    +0.000 A 
ATOM     32  C   UNL     1      -6.233   5.543   0.764  0.00  0.00    +0.002 A 
ATOM     33  C   UNL     1      -5.029   4.874   0.871  0.00  0.00    +0.023 A 
ATOM     34  C   UNL     1      -3.839   5.546   0.625  0.00  0.00    +0.037 A 
ENDBRANCH  24  34
ENDBRANCH   1  25
TORSDOF 3
