REMARK  Name = ZINC38677430
REMARK  12 active torsions:
REMARK  status: ('A' for Active; 'I' for Inactive)
REMARK    1  A    between atoms: C_1  and  C_2
REMARK    2  A    between atoms: C_2  and  C_3
REMARK    3  A    between atoms: C_6  and  C_9
REMARK    4  A    between atoms: C_14  and  O_23
REMARK    5  A    between atoms: C_18  and  N_22
REMARK    6  A    between atoms: C_19  and  C_20
REMARK    7  A    between atoms: O_23  and  C_24
REMARK    8  A    between atoms: C_24  and  C_26
REMARK    9  A    between atoms: C_26  and  O_27
REMARK   10  A    between atoms: O_27  and  C_28
REMARK   11  A    between atoms: C_32  and  C_35
REMARK   12  A    between atoms: C_33  and  C_34
REMARK                            x       y       z     vdW  Elec       q    Type
REMARK                         _______ _______ _______ _____ _____    ______ ____
ROOT
ATOM      1  C   UNL     1       2.787  -1.898   4.744  0.00  0.00    +0.098 C 
ATOM      2  C   UNL     1       2.236  -3.246   5.125  0.00  0.00    +0.008 A 
ATOM      3  C   UNL     1       2.522  -4.346   4.336  0.00  0.00    +0.012 A 
ATOM      4  C   UNL     1       2.025  -5.590   4.670  0.00  0.00    +0.047 A 
ATOM      5  C   UNL     1       1.235  -5.741   5.802  0.00  0.00    +0.135 A 
ATOM      6  C   UNL     1       0.947  -4.642   6.594  0.00  0.00    +0.093 A 
ATOM      7  C   UNL     1       1.447  -3.391   6.256  0.00  0.00    +0.138 A 
ATOM      8  O   UNL     1       1.157  -2.325   7.042  0.00  0.00    -0.441 OA
ATOM      9  C   UNL     1       1.914  -1.217   6.976  0.00  0.00    +0.199 C 
ATOM     10  C   UNL     1       2.707  -0.957   5.913  0.00  0.00    +0.098 C 
ENDROOT
BRANCH   1  14
ATOM     11  C   UNL     1       0.517  -0.312   1.491  0.00  0.00    -0.048 A 
ATOM     12  C   UNL     1       1.873  -0.538   1.343  0.00  0.00    +0.004 A 
ATOM     13  C   UNL     1       2.607  -1.051   2.396  0.00  0.00    +0.005 A 
ATOM     14  C   UNL     1       1.986  -1.338   3.597  0.00  0.00    -0.035 A 
ATOM     15  C   UNL     1       0.631  -1.111   3.745  0.00  0.00    +0.005 A 
ATOM     16  C   UNL     1      -0.103  -0.594   2.694  0.00  0.00    +0.004 A 
BRANCH  11  18
ATOM     17  C   UNL     1      -0.275   1.776   0.413  0.00  0.00    +0.009 C 
ATOM     18  C   UNL     1      -0.284   0.248   0.344  0.00  0.00    +0.032 C 
ENDBRANCH  11  18
ENDBRANCH   1  14
BRANCH   9  19
ATOM     19  N   UNL     1       1.879  -0.323   8.017  0.00  0.00    -0.328 N 
ATOM     20  H   UNL     1       1.314  -0.496   8.786  0.00  0.00    +0.145 HD
ATOM     21  H   UNL     1       2.420   0.481   7.984  0.00  0.00    +0.145 HD
ENDBRANCH   9  19
BRANCH  10  22
ATOM     22  C   UNL     1       3.489   0.242   5.904  0.00  0.00    +0.101 C 
ATOM     23  N   UNL     1       4.109   1.194   5.897  0.00  0.00    -0.191 NA
ENDBRANCH  10  22
BRANCH   5  24
ATOM     24  O   UNL     1       0.745  -6.965   6.132  0.00  0.00    -0.423 OA
BRANCH  24  25
ATOM     25  C   UNL     1      -0.577  -7.167   6.016  0.00  0.00    +0.350 C 
ATOM     26  O   UNL     1      -1.279  -6.311   5.531  0.00  0.00    -0.247 OA
BRANCH  25  27
ATOM     27  C   UNL     1      -1.187  -8.460   6.491  0.00  0.00    +0.349 C 
BRANCH  27  28
ATOM     28  O   UNL     1      -2.597  -8.435   6.262  0.00  0.00    -0.481 OA
BRANCH  28  29
ATOM     29  C   UNL     1      -3.303  -9.535   6.636  0.00  0.00    +0.124 A 
ATOM     30  C   UNL     1      -2.652 -10.613   7.218  0.00  0.00    +0.046 A 
ATOM     31  C   UNL     1      -3.372 -11.729   7.599  0.00  0.00    +0.004 A 
ATOM     32  C   UNL     1      -4.739 -11.772   7.400  0.00  0.00    +0.004 A 
ATOM     33  C   UNL     1      -5.390 -10.699   6.820  0.00  0.00    -0.044 A 
ATOM     34  C   UNL     1      -4.676  -9.578   6.443  0.00  0.00    -0.006 A 
ATOM     35  C   UNL     1      -5.386  -8.406   5.816  0.00  0.00    +0.048 C 
ATOM     36  C   UNL     1      -6.881 -10.749   6.604  0.00  0.00    +0.044 C 
ENDBRANCH  28  29
ENDBRANCH  27  28
ENDBRANCH  25  27
ENDBRANCH  24  25
ENDBRANCH   5  24
TORSDOF 9
