REMARK  Name = ZINC02280671
REMARK  6 active torsions:
REMARK  status: ('A' for Active; 'I' for Inactive)
REMARK    1  A    between atoms: C_4  and  C_7
REMARK    2  A    between atoms: C_7  and  N_8
REMARK    3  A    between atoms: N_16  and  N_17
REMARK    4  A    between atoms: C_18  and  C_20
REMARK    5  A    between atoms: C_20  and  N_21
REMARK    6  A    between atoms: C_22  and  C_24
REMARK                            x       y       z     vdW  Elec       q    Type
REMARK                         _______ _______ _______ _____ _____    ______ ____
ROOT
ATOM      1  N   UNL     1       4.152  -0.952   1.338  0.00  0.00    -0.261 N 
ATOM      2  C   UNL     1       4.944  -0.078   2.074  0.00  0.00    +0.046 A 
ATOM      3  C   UNL     1       5.496   1.158   1.757  0.00  0.00    +0.024 A 
ATOM      4  C   UNL     1       6.260   1.835   2.686  0.00  0.00    +0.002 A 
ATOM      5  C   UNL     1       6.487   1.295   3.941  0.00  0.00    +0.001 A 
ATOM      6  C   UNL     1       5.947   0.068   4.274  0.00  0.00    +0.012 A 
ATOM      7  C   UNL     1       5.176  -0.621   3.344  0.00  0.00    +0.028 A 
ATOM      8  C   UNL     1       4.470  -1.923   3.378  0.00  0.00    +0.153 C 
ATOM      9  N   UNL     1       4.414  -2.775   4.372  0.00  0.00    -0.174 NA
ATOM     10  C   UNL     1       3.837  -2.048   2.050  0.00  0.00    +0.272 C 
ATOM     11  O   UNL     1       3.154  -2.979   1.666  0.00  0.00    -0.268 OA
ENDROOT
BRANCH   9  12
ATOM     12  N   UNL     1       3.695  -3.970   4.232  0.00  0.00    -0.205 N 
ATOM     13  C   UNL     1       3.638  -4.846   5.254  0.00  0.00    +0.249 C 
ATOM     14  O   UNL     1       4.209  -4.601   6.295  0.00  0.00    -0.272 OA
ATOM     15  H   UNL     1       3.238  -4.165   3.399  0.00  0.00    +0.177 HD
BRANCH  13  16
ATOM     16  C   UNL     1       2.864  -6.130   5.103  0.00  0.00    +0.202 C 
BRANCH  16  17
ATOM     17  N   UNL     1       2.955  -6.904   6.344  0.00  0.00    -0.302 N 
ATOM     18  C   UNL     1       2.336  -8.097   6.441  0.00  0.00    +0.251 C 
ATOM     19  O   UNL     1       1.701  -8.532   5.498  0.00  0.00    -0.270 OA
ATOM     20  H   UNL     1       3.461  -6.558   7.096  0.00  0.00    +0.150 HD
BRANCH  18  21
ATOM     21  C   UNL     1       2.427  -8.871   7.683  0.00  0.00    +0.074 A 
ATOM     22  C   UNL     1       1.876 -10.107   7.984  0.00  0.00    +0.021 A 
ATOM     23  C   UNL     1       2.138 -10.586   9.246  0.00  0.00    +0.008 A 
ATOM     24  C   UNL     1       2.894  -9.841  10.089  0.00  0.00    +0.046 A 
ATOM     25  S   UNL     1       3.281  -8.472   9.195  0.00  0.00    -0.092 S 
ENDBRANCH  18  21
ENDBRANCH  16  17
ENDBRANCH  13  16
ENDBRANCH   9  12
BRANCH   1  26
ATOM     26  C   UNL     1       3.711  -0.707  -0.038  0.00  0.00    +0.149 C 
BRANCH  26  30
ATOM     27  C   UNL     1      -0.017   1.378   0.010  0.00  0.00    +0.000 A 
ATOM     28  C   UNL     1       1.171   2.086   0.002  0.00  0.00    +0.000 A 
ATOM     29  C   UNL     1       2.377   1.411  -0.013  0.00  0.00    +0.005 A 
ATOM     30  C   UNL     1       2.396   0.029  -0.020  0.00  0.00    -0.030 A 
ATOM     31  C   UNL     1       1.208  -0.679  -0.012  0.00  0.00    +0.005 A 
ATOM     32  C   UNL     1       0.002  -0.004   0.002  0.00  0.00    +0.000 A 
ENDBRANCH  26  30
ENDBRANCH   1  26
TORSDOF 6
