REMARK  Name = ZINC20558495
REMARK  8 active torsions:
REMARK  status: ('A' for Active; 'I' for Inactive)
REMARK    1  A    between atoms: C_1  and  C_2
REMARK    2  A    between atoms: C_2  and  O_3
REMARK    3  A    between atoms: O_3  and  C_4
REMARK    4  A    between atoms: C_7  and  C_10
REMARK    5  A    between atoms: C_12  and  C_36
REMARK    6  A    between atoms: C_13  and  N_35
REMARK    7  A    between atoms: N_20  and  C_27
REMARK    8  A    between atoms: C_27  and  C_28
REMARK                            x       y       z     vdW  Elec       q    Type
REMARK                         _______ _______ _______ _____ _____    ______ ____
ROOT
ATOM      1  C   UNL     1      -3.255   1.208   0.028  0.00  0.00    +0.118 C 
ATOM      2  C   UNL     1      -4.141   1.717  -1.076  0.00  0.00    +0.099 C 
ATOM      3  C   UNL     1      -5.059   2.684  -0.823  0.00  0.00    +0.199 C 
ATOM      4  O   UNL     1      -5.198   3.208   0.406  0.00  0.00    -0.439 OA
ATOM      5  C   UNL     1      -4.747   2.531   1.496  0.00  0.00    +0.162 C 
ATOM      6  C   UNL     1      -3.829   1.578   1.367  0.00  0.00    +0.141 C 
ATOM      7  S   UNL     1      -3.272   0.729   2.816  0.00  0.00    +0.076 S 
ATOM      8  O   UNL     1      -1.867   0.564   2.687  0.00  0.00    -0.150 OA
ATOM      9  O   UNL     1      -4.158  -0.362   3.026  0.00  0.00    -0.150 OA
ATOM     10  N   UNL     1      -3.524   1.807   4.059  0.00  0.00    -0.198 N 
ATOM     11  C   UNL     1      -4.711   2.549   4.027  0.00  0.00    +0.062 A 
ATOM     12  C   UNL     1      -5.314   2.893   2.817  0.00  0.00    +0.042 A 
ATOM     13  C   UNL     1      -6.513   3.618   2.838  0.00  0.00    +0.013 A 
ATOM     14  C   UNL     1      -7.080   3.987   4.037  0.00  0.00    +0.001 A 
ATOM     15  C   UNL     1      -6.472   3.647   5.234  0.00  0.00    +0.002 A 
ATOM     16  C   UNL     1      -5.292   2.931   5.230  0.00  0.00    +0.025 A 
ENDROOT
BRANCH   1  20
ATOM     17  C   UNL     1       0.635   2.930  -0.377  0.00  0.00    +0.121 A 
ATOM     18  C   UNL     1       0.476   1.553  -0.427  0.00  0.00    +0.046 A 
ATOM     19  C   UNL     1      -0.782   0.998  -0.291  0.00  0.00    +0.008 A 
ATOM     20  C   UNL     1      -1.883   1.815  -0.112  0.00  0.00    -0.033 A 
ATOM     21  C   UNL     1      -1.727   3.188  -0.057  0.00  0.00    +0.008 A 
ATOM     22  C   UNL     1      -0.471   3.747  -0.191  0.00  0.00    +0.046 A 
BRANCH  17  23
ATOM     23  O   UNL     1       1.872   3.478  -0.510  0.00  0.00    -0.492 OA
BRANCH  23  25
ATOM     24  C   UNL     1       3.419   5.331  -0.617  0.00  0.00    +0.048 C 
ATOM     25  C   UNL     1       1.960   4.903  -0.448  0.00  0.00    +0.225 C 
ENDBRANCH  23  25
ENDBRANCH  17  23
ENDBRANCH   1  20
BRANCH   3  26
ATOM     26  N   UNL     1      -5.861   3.134  -1.842  0.00  0.00    -0.328 N 
ATOM     27  H   UNL     1      -6.609   3.917  -1.648  0.00  0.00    +0.145 HD
ATOM     28  H   UNL     1      -5.756   2.712  -2.852  0.00  0.00    +0.145 HD
ENDBRANCH   3  26
BRANCH   2  29
ATOM     29  C   UNL     1      -4.015   1.181  -2.397  0.00  0.00    +0.101 C 
ATOM     30  N   UNL     1      -3.914   0.756  -3.446  0.00  0.00    -0.191 NA
ENDBRANCH   2  29
BRANCH  10  31
ATOM     31  C   UNL     1      -2.548   1.971   5.139  0.00  0.00    +0.166 C 
BRANCH  31  32
ATOM     32  C   UNL     1      -1.658   3.149   4.837  0.00  0.00    -0.028 A 
ATOM     33  C   UNL     1      -0.434   2.951   4.225  0.00  0.00    +0.008 A 
ATOM     34  C   UNL     1       0.380   4.032   3.943  0.00  0.00    +0.038 A 
ATOM     35  C   UNL     1      -0.025   5.311   4.284  0.00  0.00    +0.123 A 
ATOM     36  C   UNL     1      -1.248   5.507   4.902  0.00  0.00    +0.038 A 
ATOM     37  C   UNL     1      -2.064   4.426   5.178  0.00  0.00    +0.008 A 
ATOM     38  F   UNL     1       0.773   6.367   4.013  0.00  0.00    -0.205 F 
ENDBRANCH  31  32
ENDBRANCH  10  31
TORSDOF 7
