REMARK  Name = ZINC01062379
REMARK  16 active torsions:
REMARK  status: ('A' for Active; 'I' for Inactive)
REMARK    1  A    between atoms: C_1  and  C_2
REMARK    2  A    between atoms: C_2  and  O_3
REMARK    3  A    between atoms: O_3  and  C_4
REMARK    4  A    between atoms: C_4  and  C_6
REMARK    5  A    between atoms: C_7  and  N_39
REMARK    6  A    between atoms: N_8  and  C_32
REMARK    7  A    between atoms: C_11  and  C_13
REMARK    8  A    between atoms: C_15  and  O_23
REMARK    9  A    between atoms: C_16  and  O_21
REMARK   10  A    between atoms: C_17  and  O_19
REMARK   11  A    between atoms: O_19  and  C_20
REMARK   12  A    between atoms: O_21  and  C_22
REMARK   13  A    between atoms: O_23  and  C_24
REMARK   14  A    between atoms: C_28  and  C_30
REMARK   15  A    between atoms: C_28  and  C_31
REMARK   16  A    between atoms: C_36  and  C_38
REMARK                            x       y       z     vdW  Elec       q    Type
REMARK                         _______ _______ _______ _____ _____    ______ ____
ROOT
ATOM      1  C   UNL     1      -1.716  -4.747   0.104  0.00  0.00    +0.084 C 
ATOM      2  C   UNL     1      -2.531  -3.773   0.597  0.00  0.00    +0.103 C 
ATOM      3  N   UNL     1      -2.246  -2.450   0.357  0.00  0.00    -0.261 N 
ATOM      4  C   UNL     1      -1.416  -2.092  -0.673  0.00  0.00    +0.025 C 
ATOM      5  C   UNL     1      -0.564  -2.988  -1.214  0.00  0.00    +0.025 C 
ATOM      6  C   UNL     1      -0.495  -4.403  -0.696  0.00  0.00    +0.094 C 
ATOM      7  C   UNL     1       0.289  -2.630  -2.273  0.00  0.00    +0.162 C 
ATOM      8  O   UNL     1       1.030  -3.466  -2.752  0.00  0.00    -0.292 OA
ATOM      9  C   UNL     1       0.307  -1.229  -2.823  0.00  0.00    +0.086 C 
ATOM     10  C   UNL     1      -0.110  -0.255  -1.717  0.00  0.00    -0.023 C 
ATOM     11  C   UNL     1      -1.483  -0.675  -1.188  0.00  0.00    +0.058 C 
ATOM     12  C   UNL     1      -0.189   1.164  -2.284  0.00  0.00    +0.011 C 
ATOM     13  C   UNL     1       0.914  -0.297  -0.581  0.00  0.00    +0.011 C 
ENDROOT
BRANCH   3  14
ATOM     14  C   UNL     1      -2.808  -1.460   1.172  0.00  0.00    +0.040 A 
ATOM     15  C   UNL     1      -2.002  -0.726   2.031  0.00  0.00    +0.024 A 
ATOM     16  C   UNL     1      -2.558   0.253   2.831  0.00  0.00    +0.002 A 
ATOM     17  C   UNL     1      -3.919   0.495   2.783  0.00  0.00    +0.003 A 
ATOM     18  C   UNL     1      -4.726  -0.238   1.933  0.00  0.00    -0.049 A 
ATOM     19  C   UNL     1      -4.174  -1.215   1.127  0.00  0.00    +0.027 A 
ATOM     20  C   UNL     1      -6.208   0.029   1.885  0.00  0.00    +0.044 C 
ENDBRANCH   3  14
BRANCH   6  21
ATOM     21  C   UNL     1       0.725  -4.551   0.175  0.00  0.00    -0.028 A 
ATOM     22  C   UNL     1       0.867  -3.764   1.303  0.00  0.00    +0.054 A 
ATOM     23  C   UNL     1       1.986  -3.902   2.111  0.00  0.00    +0.165 A 
ATOM     24  C   UNL     1       2.970  -4.825   1.779  0.00  0.00    +0.204 A 
ATOM     25  C   UNL     1       2.827  -5.610   0.641  0.00  0.00    +0.165 A 
ATOM     26  C   UNL     1       1.703  -5.470  -0.158  0.00  0.00    +0.054 A 
BRANCH  25  27
ATOM     27  O   UNL     1       3.788  -6.515   0.313  0.00  0.00    -0.491 OA
ATOM     28  C   UNL     1       3.573  -7.288  -0.870  0.00  0.00    +0.277 C 
ENDBRANCH  25  27
BRANCH  24  29
ATOM     29  O   UNL     1       4.072  -4.959   2.566  0.00  0.00    -0.488 OA
ATOM     30  C   UNL     1       5.197  -4.136   2.253  0.00  0.00    +0.277 C 
ENDBRANCH  24  29
BRANCH  23  31
ATOM     31  O   UNL     1       2.121  -3.131   3.223  0.00  0.00    -0.491 OA
ATOM     32  C   UNL     1       1.070  -2.204   3.502  0.00  0.00    +0.277 C 
ENDBRANCH  23  31
ENDBRANCH   6  21
BRANCH   2  33
ATOM     33  N   UNL     1      -3.636  -4.113   1.334  0.00  0.00    -0.346 N 
ATOM     34  H   UNL     1      -3.933  -3.538   2.056  0.00  0.00    +0.143 HD
ATOM     35  H   UNL     1      -4.121  -4.929   1.132  0.00  0.00    +0.143 HD
ENDBRANCH   2  33
BRANCH   1  36
ATOM     36  C   UNL     1      -2.024  -6.093   0.350  0.00  0.00    +0.339 C 
ATOM     37  O   UNL     1      -2.959  -6.381   1.075  0.00  0.00    -0.245 OA
BRANCH  36  38
ATOM     38  O   UNL     1      -1.283  -7.069  -0.218  0.00  0.00    -0.462 OA
BRANCH  38  40
ATOM     39  C   UNL     1      -0.706  -9.376  -0.651  0.00  0.00    +0.048 C 
ATOM     40  C   UNL     1      -1.652  -8.418   0.076  0.00  0.00    +0.229 C 
ENDBRANCH  38  40
ENDBRANCH  36  38
ENDBRANCH   1  36
TORSDOF 9
