REMARK  Name = ZINC66522320
REMARK  7 active torsions:
REMARK  status: ('A' for Active; 'I' for Inactive)
REMARK    1  A    between atoms: C_10  and  O_12
REMARK    2  A    between atoms: O_12  and  C_13
REMARK    3  A    between atoms: C_13  and  C_15
REMARK    4  A    between atoms: C_15  and  C_16
REMARK    5  A    between atoms: C_16  and  O_17
REMARK    6  A    between atoms: O_17  and  C_18
REMARK    7  A    between atoms: C_18  and  C_19
REMARK                            x       y       z     vdW  Elec       q    Type
REMARK                         _______ _______ _______ _____ _____    ______ ____
ROOT
ATOM      1  O   UNL     1       4.626   0.001   0.838  0.00  0.00    -0.457 OA
ENDROOT
BRANCH   1  11
ATOM      2  C   UNL     1      -0.017   1.375   0.010  0.00  0.00    +0.000 A 
ATOM      3  C   UNL     1       1.174   2.078   0.002  0.00  0.00    +0.000 A 
ATOM      4  C   UNL     1       2.372   1.395  -0.016  0.00  0.00    +0.007 A 
ATOM      5  C   UNL     1       2.393   0.006  -0.025  0.00  0.00    -0.004 A 
ATOM      6  C   UNL     1       1.208  -0.694  -0.013  0.00  0.00    -0.041 A 
ATOM      7  C   UNL     1       0.002  -0.004   0.002  0.00  0.00    +0.004 A 
ATOM      8  C   UNL     1       1.155  -2.199  -0.005  0.00  0.00    +0.035 C 
ATOM      9  C   UNL     1       2.493  -2.786  -0.452  0.00  0.00    +0.009 C 
ATOM     10  C   UNL     1       3.607  -2.135   0.376  0.00  0.00    +0.050 C 
ATOM     11  C   UNL     1       3.736  -0.675  -0.053  0.00  0.00    +0.207 C 
ENDBRANCH   1  11
BRANCH   1  12
ATOM     12  C   UNL     1       5.351   1.008   0.327  0.00  0.00    +0.310 C 
ATOM     13  O   UNL     1       5.235   1.306  -0.839  0.00  0.00    -0.251 OA
BRANCH  12  14
ATOM     14  C   UNL     1       6.311   1.768   1.206  0.00  0.00    +0.148 C 
BRANCH  14  15
ATOM     15  C   UNL     1       7.006   2.855   0.383  0.00  0.00    +0.171 C 
BRANCH  15  16
ATOM     16  O   UNL     1       7.916   3.575   1.217  0.00  0.00    -0.370 OA
BRANCH  16  17
ATOM     17  C   UNL     1       8.621   4.619   0.542  0.00  0.00    +0.272 C 
BRANCH  17  18
ATOM     18  C   UNL     1       9.561   5.318   1.526  0.00  0.00    +0.413 C 
ATOM     19  F   UNL     1      10.476   4.391   2.035  0.00  0.00    -0.168 F 
ATOM     20  F   UNL     1      10.251   6.340   0.866  0.00  0.00    -0.168 F 
ATOM     21  F   UNL     1       8.815   5.862   2.577  0.00  0.00    -0.168 F 
ENDBRANCH  17  18
ENDBRANCH  16  17
ENDBRANCH  15  16
ENDBRANCH  14  15
ENDBRANCH  12  14
ENDBRANCH   1  12
TORSDOF 7
