REMARK  Name = ZINC59906186
REMARK  9 active torsions:
REMARK  status: ('A' for Active; 'I' for Inactive)
REMARK    1  A    between atoms: C_4  and  N_7
REMARK    2  A    between atoms: N_7  and  S_8
REMARK    3  A    between atoms: S_8  and  C_11
REMARK    4  A    between atoms: C_14  and  N_17
REMARK    5  A    between atoms: C_18  and  C_20
REMARK    6  A    between atoms: C_20  and  S_21
REMARK    7  A    between atoms: S_21  and  C_22
REMARK    8  A    between atoms: C_25  and  C_33
REMARK    9  A    between atoms: N_26  and  C_27
REMARK                            x       y       z     vdW  Elec       q    Type
REMARK                         _______ _______ _______ _____ _____    ______ ____
ROOT
ATOM      1  N   UNL     1       0.257  -6.560  -0.491  0.00  0.00    -0.285 N 
ATOM      2  C   UNL     1       0.681  -7.520  -1.336  0.00  0.00    +0.227 C 
ATOM      3  O   UNL     1       1.824  -7.511  -1.741  0.00  0.00    -0.275 OA
ATOM      4  H   UNL     1      -0.633  -6.608  -0.109  0.00  0.00    +0.155 HD
ENDROOT
BRANCH   1   8
ATOM      5  C   UNL     1       2.769  -3.380   0.476  0.00  0.00    +0.109 A 
ATOM      6  C   UNL     1       2.828  -3.947  -0.783  0.00  0.00    +0.030 A 
ATOM      7  C   UNL     1       1.997  -5.002  -1.107  0.00  0.00    +0.025 A 
ATOM      8  C   UNL     1       1.101  -5.492  -0.166  0.00  0.00    +0.034 A 
ATOM      9  C   UNL     1       1.045  -4.920   1.098  0.00  0.00    +0.025 A 
ATOM     10  C   UNL     1       1.882  -3.870   1.417  0.00  0.00    +0.030 A 
BRANCH   5  11
ATOM     11  S   UNL     1       3.832  -2.035   0.886  0.00  0.00    +0.072 S 
ATOM     12  O   UNL     1       3.269  -1.407   2.029  0.00  0.00    -0.150 OA
ATOM     13  O   UNL     1       4.082  -1.333  -0.324  0.00  0.00    -0.150 OA
BRANCH  11  14
ATOM     14  N   UNL     1       5.278  -2.683   1.366  0.00  0.00    -0.216 N 
ATOM     15  H   UNL     1       6.087  -2.484   0.869  0.00  0.00    +0.174 HD
BRANCH  14  19
ATOM     16  C   UNL     1       5.444  -5.162   4.706  0.00  0.00    +0.000 A 
ATOM     17  C   UNL     1       6.093  -5.530   3.542  0.00  0.00    +0.002 A 
ATOM     18  C   UNL     1       6.040  -4.710   2.432  0.00  0.00    +0.024 A 
ATOM     19  C   UNL     1       5.334  -3.515   2.486  0.00  0.00    +0.048 A 
ATOM     20  C   UNL     1       4.683  -3.149   3.658  0.00  0.00    +0.024 A 
ATOM     21  C   UNL     1       4.740  -3.974   4.764  0.00  0.00    +0.002 A 
ENDBRANCH  14  19
ENDBRANCH  11  14
ENDBRANCH   5  11
ENDBRANCH   1   8
BRANCH   2  22
ATOM     22  C   UNL     1      -0.266  -8.606  -1.778  0.00  0.00    +0.173 C 
BRANCH  22  23
ATOM     23  S   UNL     1       0.595  -9.738  -2.904  0.00  0.00    -0.076 S 
BRANCH  23  24
ATOM     24  C   UNL     1      -0.629 -10.934  -3.325  0.00  0.00    +0.197 A 
ATOM     25  N   UNL     1      -1.872 -10.960  -2.904  0.00  0.00    -0.122 NA
ATOM     26  N   UNL     1      -2.484 -11.971  -3.410  0.00  0.00    -0.133 NA
ATOM     27  C   UNL     1      -1.677 -12.646  -4.178  0.00  0.00    +0.142 A 
ATOM     28  N   UNL     1      -0.466 -12.007  -4.157  0.00  0.00    -0.274 N 
BRANCH  28  29
ATOM     29  C   UNL     1       0.700 -12.377  -4.844  0.00  0.00    +0.050 A 
ATOM     30  C   UNL     1       0.730 -12.342  -6.232  0.00  0.00    +0.026 A 
ATOM     31  C   UNL     1       1.879 -12.707  -6.905  0.00  0.00    +0.002 A 
ATOM     32  C   UNL     1       2.998 -13.107  -6.199  0.00  0.00    +0.000 A 
ATOM     33  C   UNL     1       2.971 -13.143  -4.817  0.00  0.00    +0.002 A 
ATOM     34  C   UNL     1       1.827 -12.774  -4.138  0.00  0.00    +0.026 A 
ENDBRANCH  28  29
BRANCH  27  35
ATOM     35  C   UNL     1      -2.015 -13.895  -4.950  0.00  0.00    +0.057 C 
ATOM     36  C   UNL     1      -3.484 -14.322  -4.996  0.00  0.00    +0.012 C 
ATOM     37  C   UNL     1      -2.483 -15.114  -4.153  0.00  0.00    +0.012 C 
ENDBRANCH  27  35
ENDBRANCH  23  24
ENDBRANCH  22  23
ENDBRANCH   2  22
TORSDOF 9
