REMARK  Name = ZINC09518796
REMARK  7 active torsions:
REMARK  status: ('A' for Active; 'I' for Inactive)
REMARK    1  A    between atoms: C_1  and  C_2
REMARK    2  A    between atoms: C_5  and  N_8
REMARK    3  A    between atoms: C_9  and  N_31
REMARK    4  A    between atoms: C_14  and  S_15
REMARK    5  A    between atoms: S_15  and  C_16
REMARK    6  A    between atoms: C_16  and  C_17
REMARK    7  A    between atoms: N_22  and  C_25
REMARK                            x       y       z     vdW  Elec       q    Type
REMARK                         _______ _______ _______ _____ _____    ______ ____
ROOT
ATOM      1  N   UNL     1       0.477  -4.226  -0.100  0.00  0.00    -0.278 N 
ATOM      2  C   UNL     1       0.258  -4.899  -1.276  0.00  0.00    +0.108 A 
ATOM      3  C   UNL     1       0.147  -6.259  -1.249  0.00  0.00    +0.112 A 
ATOM      4  C   UNL     1       0.259  -6.928  -0.014  0.00  0.00    +0.254 A 
ATOM      5  O   UNL     1       0.163  -8.146   0.035  0.00  0.00    -0.268 OA
ATOM      6  N   UNL     1       0.473  -6.224   1.108  0.00  0.00    -0.303 N 
ATOM      7  C   UNL     1       0.585  -4.913   1.074  0.00  0.00    +0.156 A 
ATOM      8  H   UNL     1       0.549  -6.688   1.957  0.00  0.00    +0.171 HD
ENDROOT
BRANCH   1  13
ATOM      9  C   UNL     1       0.955   1.429  -0.127  0.00  0.00    +0.044 C 
ATOM     10  C   UNL     1       0.828  -0.073  -0.119  0.00  0.00    -0.050 A 
ATOM     11  C   UNL     1       1.953  -0.861  -0.278  0.00  0.00    +0.005 A 
ATOM     12  C   UNL     1       1.840  -2.237  -0.272  0.00  0.00    +0.026 A 
ATOM     13  C   UNL     1       0.595  -2.829  -0.106  0.00  0.00    +0.050 A 
ATOM     14  C   UNL     1      -0.533  -2.035   0.054  0.00  0.00    +0.026 A 
ATOM     15  C   UNL     1      -0.413  -0.659   0.052  0.00  0.00    +0.005 A 
ENDBRANCH   1  13
BRANCH   2  16
ATOM     16  N   UNL     1       0.153  -4.213  -2.464  0.00  0.00    -0.344 N 
ATOM     17  H   UNL     1       0.152  -3.243  -2.465  0.00  0.00    +0.144 HD
ATOM     18  H   UNL     1       0.081  -4.700  -3.300  0.00  0.00    +0.144 HD
ENDBRANCH   2  16
BRANCH   7  19
ATOM     19  S   UNL     1       0.872  -4.029   2.571  0.00  0.00    -0.080 S 
BRANCH  19  20
ATOM     20  C   UNL     1       0.941  -5.325   3.839  0.00  0.00    +0.173 C 
BRANCH  20  21
ATOM     21  C   UNL     1       1.186  -4.696   5.187  0.00  0.00    +0.226 C 
ATOM     22  O   UNL     1       1.302  -3.493   5.282  0.00  0.00    -0.275 OA
ATOM     23  N   UNL     1       1.276  -5.471   6.286  0.00  0.00    -0.298 N 
ATOM     24  C   UNL     1       1.143  -6.931   6.184  0.00  0.00    +0.126 C 
ATOM     25  C   UNL     1       2.386  -7.581   6.805  0.00  0.00    +0.124 C 
ATOM     26  N   UNL     1       2.619  -6.981   8.126  0.00  0.00    -0.327 N 
ATOM     27  C   UNL     1       2.751  -5.521   8.228  0.00  0.00    +0.124 C 
ATOM     28  C   UNL     1       1.514  -4.872   7.606  0.00  0.00    +0.126 C 
BRANCH  26  29
ATOM     29  C   UNL     1       2.712  -7.784   9.265  0.00  0.00    +0.030 A 
ATOM     30  C   UNL     1       2.602  -9.165   9.154  0.00  0.00    +0.023 A 
ATOM     31  C   UNL     1       2.695  -9.956  10.282  0.00  0.00    +0.002 A 
ATOM     32  C   UNL     1       2.897  -9.376  11.521  0.00  0.00    +0.000 A 
ATOM     33  C   UNL     1       3.006  -8.002  11.635  0.00  0.00    +0.002 A 
ATOM     34  C   UNL     1       2.920  -7.205  10.510  0.00  0.00    +0.023 A 
ENDBRANCH  26  29
ENDBRANCH  20  21
ENDBRANCH  19  20
ENDBRANCH   7  19
TORSDOF 6
