REMARK  Name = ZINC07061221
REMARK  6 active torsions:
REMARK  status: ('A' for Active; 'I' for Inactive)
REMARK    1  A    between atoms: C_1  and  C_2
REMARK    2  A    between atoms: C_9  and  S_12
REMARK    3  A    between atoms: S_12  and  C_13
REMARK    4  A    between atoms: C_13  and  C_15
REMARK    5  A    between atoms: C_13  and  C_16
REMARK    6  A    between atoms: N_21  and  C_24
REMARK                            x       y       z     vdW  Elec       q    Type
REMARK                         _______ _______ _______ _____ _____    ______ ____
ROOT
ATOM      1  C   UNL     1       3.599   2.856  -0.017  0.00  0.00    +0.137 C 
ATOM      2  C   UNL     1       3.285   3.597  -1.317  0.00  0.00    +0.029 C 
ENDROOT
BRANCH   1   3
ATOM      3  C   UNL     1       5.086   2.640   0.092  0.00  0.00    +0.229 C 
ATOM      4  O   UNL     1       5.577   1.596  -0.282  0.00  0.00    -0.274 OA
ATOM      5  N   UNL     1       5.872   3.608   0.606  0.00  0.00    -0.298 N 
ATOM      6  C   UNL     1       5.298   4.883   1.060  0.00  0.00    +0.126 C 
ATOM      7  C   UNL     1       5.799   5.156   2.488  0.00  0.00    +0.124 C 
ATOM      8  N   UNL     1       7.266   5.094   2.506  0.00  0.00    -0.327 N 
ATOM      9  C   UNL     1       7.747   3.751   2.156  0.00  0.00    +0.124 C 
ATOM     10  C   UNL     1       7.325   3.418   0.721  0.00  0.00    +0.126 C 
BRANCH   8  11
ATOM     11  C   UNL     1       7.769   5.499   3.745  0.00  0.00    +0.030 A 
ATOM     12  C   UNL     1       8.603   4.655   4.467  0.00  0.00    +0.023 A 
ATOM     13  C   UNL     1       9.102   5.060   5.689  0.00  0.00    +0.002 A 
ATOM     14  C   UNL     1       8.764   6.301   6.199  0.00  0.00    +0.000 A 
ATOM     15  C   UNL     1       7.930   7.141   5.484  0.00  0.00    +0.002 A 
ATOM     16  C   UNL     1       7.432   6.744   4.259  0.00  0.00    +0.023 A 
ENDBRANCH   8  11
ENDBRANCH   1   3
BRANCH   1  17
ATOM     17  S   UNL     1       2.756   1.254  -0.017  0.00  0.00    -0.075 S 
BRANCH  17  26
ATOM     18  C   UNL     1      -3.928   5.017   0.066  0.00  0.00    +0.044 C 
ATOM     19  C   UNL     1      -2.938   3.880   0.050  0.00  0.00    -0.048 A 
ATOM     20  C   UNL     1      -3.394   2.571   0.048  0.00  0.00    +0.005 A 
ATOM     21  C   UNL     1      -2.501   1.519   0.034  0.00  0.00    +0.028 A 
ATOM     22  C   UNL     1      -1.137   1.772   0.016  0.00  0.00    +0.067 A 
ATOM     23  C   UNL     1      -0.670   3.097   0.025  0.00  0.00    +0.090 A 
ATOM     24  C   UNL     1      -1.588   4.150   0.039  0.00  0.00    +0.033 A 
ATOM     25  N   UNL     1       0.688   3.042   0.012  0.00  0.00    -0.222 NA
ATOM     26  C   UNL     1       1.078   1.791   0.001  0.00  0.00    +0.168 A 
ATOM     27  N   UNL     1      -0.011   0.966   0.007  0.00  0.00    -0.333 N 
ATOM     28  H   UNL     1       0.003  -0.034   0.006  0.00  0.00    +0.168 HD
ENDBRANCH  17  26
ENDBRANCH   1  17
TORSDOF 4
