REMARK  Name = ZINC52344253
REMARK  6 active torsions:
REMARK  status: ('A' for Active; 'I' for Inactive)
REMARK    1  A    between atoms: C_1  and  C_2
REMARK    2  A    between atoms: C_2  and  C_4
REMARK    3  A    between atoms: C_2  and  N_10
REMARK    4  A    between atoms: N_13  and  C_14
REMARK    5  A    between atoms: N_13  and  C_18
REMARK    6  A    between atoms: C_14  and  C_15
REMARK                            x       y       z     vdW  Elec       q    Type
REMARK                         _______ _______ _______ _____ _____    ______ ____
ROOT
ATOM      1  N   UNL     1      -1.372  -0.511   0.012  0.00  0.00    -0.296 N 
ATOM      2  C   UNL     1      -2.051  -0.643  -1.145  0.00  0.00    +0.303 C 
ATOM      3  O   UNL     1      -1.522  -0.341  -2.197  0.00  0.00    -0.253 OA
ATOM      4  N   UNL     1      -3.315  -1.109  -1.135  0.00  0.00    -0.272 N 
ATOM      5  H   UNL     1      -1.794  -0.752   0.852  0.00  0.00    +0.151 HD
ENDROOT
BRANCH   4   6
ATOM      6  C   UNL     1      -4.053  -1.252  -2.393  0.00  0.00    +0.078 C 
ATOM      7  C   UNL     1      -3.277  -2.172  -3.359  0.00  0.00    +0.022 C 
ATOM      8  C   UNL     1      -3.513  -1.542  -4.754  0.00  0.00    +0.002 C 
ATOM      9  C   UNL     1      -3.471  -0.023  -4.455  0.00  0.00    +0.002 C 
ATOM     10  C   UNL     1      -4.176   0.114  -3.090  0.00  0.00    +0.022 C 
ENDBRANCH   4   6
BRANCH   1  12
ATOM     11  C   UNL     1      -0.019   1.526   0.010  0.00  0.00    +0.028 C 
ATOM     12  C   UNL     1       0.002  -0.004   0.002  0.00  0.00    +0.074 C 
BRANCH  12  13
ATOM     13  C   UNL     1       0.742  -0.511   1.242  0.00  0.00    +0.009 C 
ATOM     14  C   UNL     1       0.026  -0.018   2.500  0.00  0.00    +0.005 C 
ATOM     15  C   UNL     1       0.766  -0.524   3.740  0.00  0.00    +0.000 C 
ATOM     16  C   UNL     1       2.201   0.005   3.729  0.00  0.00    +0.000 C 
ATOM     17  C   UNL     1       2.917  -0.488   2.470  0.00  0.00    +0.000 C 
ATOM     18  C   UNL     1       2.178   0.019   1.231  0.00  0.00    +0.005 C 
ENDBRANCH  12  13
ENDBRANCH   1  12
BRANCH   4  19
ATOM     19  C   UNL     1      -3.952  -1.473   0.133  0.00  0.00    +0.234 C 
BRANCH  19  20
ATOM     20  C   UNL     1      -4.659  -0.271   0.704  0.00  0.00    +0.373 C 
ATOM     21  O   UNL     1      -4.633   0.792   0.106  0.00  0.00    -0.245 OA
ATOM     22  O   UNL     1      -5.257  -0.361   1.762  0.00  0.00    -0.245 OA
ENDBRANCH  19  20
ENDBRANCH   4  19
TORSDOF 5
