REMARK  Name = ZINC39665675
REMARK  10 active torsions:
REMARK  status: ('A' for Active; 'I' for Inactive)
REMARK    1  A    between atoms: C_1  and  C_2
REMARK    2  A    between atoms: C_2  and  C_4
REMARK    3  A    between atoms: C_2  and  O_28
REMARK    4  A    between atoms: C_4  and  N_5
REMARK    5  A    between atoms: C_6  and  C_8
REMARK    6  A    between atoms: C_19  and  C_21
REMARK    7  A    between atoms: C_21  and  C_27
REMARK    8  A    between atoms: O_28  and  C_29
REMARK    9  A    between atoms: C_32  and  O_35
REMARK   10  A    between atoms: O_35  and  C_36
REMARK                            x       y       z     vdW  Elec       q    Type
REMARK                         _______ _______ _______ _____ _____    ______ ____
ROOT
ATOM      1  C   UNL     1       1.399  -3.651  -2.252  0.00  0.00    +0.100 C 
ATOM      2  C   UNL     1       2.003  -4.442  -1.070  0.00  0.00    +0.121 C 
ATOM      3  N   UNL     1       2.578  -5.660  -1.689  0.00  0.00    -0.300 N 
ATOM      4  C   UNL     1       3.175  -5.181  -2.959  0.00  0.00    +0.115 C 
ATOM      5  C   UNL     1       2.172  -4.138  -3.489  0.00  0.00    -0.004 C 
ATOM      6  C   UNL     1       2.915  -2.975  -4.140  0.00  0.00    -0.010 C 
ATOM      7  C   UNL     1       3.627  -3.472  -5.401  0.00  0.00    -0.082 C 
ATOM      8  N   UNL     1       2.642  -4.033  -6.333  0.00  0.00    +0.379 N 
ATOM      9  C   UNL     1       1.998  -5.208  -5.735  0.00  0.00    -0.082 C 
ATOM     10  C   UNL     1       1.217  -4.785  -4.488  0.00  0.00    -0.010 C 
ATOM     11  C   UNL     1       2.560  -6.918  -1.208  0.00  0.00    +0.222 C 
ATOM     12  O   UNL     1       3.139  -7.803  -1.802  0.00  0.00    -0.275 OA
ATOM     13  H   UNL     1       1.942  -3.336  -6.540  0.00  0.00    -0.086 HD
ATOM     14  H   UNL     1       3.106  -4.304  -7.188  0.00  0.00    -0.086 HD
ENDROOT
BRANCH  11  15
ATOM     15  C   UNL     1       1.821  -7.226   0.069  0.00  0.00    +0.044 C 
ATOM     16  C   UNL     1       2.365  -6.348   1.198  0.00  0.00    +0.016 C 
ATOM     17  C   UNL     1       3.856  -6.632   1.391  0.00  0.00    +0.001 C 
ATOM     18  C   UNL     1       4.053  -8.105   1.751  0.00  0.00    +0.000 C 
ATOM     19  C   UNL     1       3.508  -8.983   0.622  0.00  0.00    +0.001 C 
ATOM     20  C   UNL     1       2.017  -8.700   0.429  0.00  0.00    +0.016 C 
ATOM     21  C   UNL     1       0.330  -6.943  -0.124  0.00  0.00    +0.021 C 
ENDBRANCH  11  15
BRANCH   1  23
ATOM     22  N   UNL     1       0.715  -1.293  -2.555  0.00  0.00    -0.312 N 
ATOM     23  C   UNL     1       1.606  -2.171  -2.053  0.00  0.00    +0.218 C 
ATOM     24  O   UNL     1       2.574  -1.771  -1.442  0.00  0.00    -0.275 OA
ATOM     25  H   UNL     1      -0.059  -1.613  -3.044  0.00  0.00    +0.149 HD
BRANCH  22  26
ATOM     26  C   UNL     1       0.916   0.145  -2.362  0.00  0.00    +0.148 C 
BRANCH  26  28
ATOM     27  C   UNL     1       0.044   2.416  -2.932  0.00  0.00    +0.053 C 
ATOM     28  C   UNL     1      -0.229   0.913  -3.025  0.00  0.00    +0.187 C 
BRANCH  28  29
ATOM     29  O   UNL     1      -1.456   0.610  -2.357  0.00  0.00    -0.488 OA
BRANCH  29  30
ATOM     30  C   UNL     1      -2.604   0.793  -3.062  0.00  0.00    +0.121 A 
ATOM     31  C   UNL     1      -3.833   0.597  -2.449  0.00  0.00    +0.049 A 
ATOM     32  C   UNL     1      -4.999   0.782  -3.166  0.00  0.00    +0.049 A 
ATOM     33  C   UNL     1      -4.942   1.165  -4.497  0.00  0.00    +0.120 A 
ATOM     34  C   UNL     1      -3.713   1.362  -5.110  0.00  0.00    +0.049 A 
ATOM     35  C   UNL     1      -2.547   1.181  -4.393  0.00  0.00    +0.049 A 
BRANCH  33  36
ATOM     36  O   UNL     1      -6.090   1.347  -5.203  0.00  0.00    -0.495 OA
ATOM     37  C   UNL     1      -5.956   1.741  -6.570  0.00  0.00    +0.277 C 
ENDBRANCH  33  36
ENDBRANCH  29  30
ENDBRANCH  28  29
ENDBRANCH  26  28
ENDBRANCH  22  26
ENDBRANCH   1  23
TORSDOF 7
