REMARK  Name = ZINC09139801
REMARK  7 active torsions:
REMARK  status: ('A' for Active; 'I' for Inactive)
REMARK    1  A    between atoms: C_4  and  C_7
REMARK    2  A    between atoms: C_8  and  S_9
REMARK    3  A    between atoms: S_9  and  N_12
REMARK    4  A    between atoms: C_17  and  C_18
REMARK    5  A    between atoms: C_17  and  N_62
REMARK    6  A    between atoms: N_20  and  C_21
REMARK    7  A    between atoms: C_24  and  N_27
REMARK                            x       y       z     vdW  Elec       q    Type
REMARK                         _______ _______ _______ _____ _____    ______ ____
ROOT
ATOM      1  N   UNL     1       6.009   7.595   0.479  0.00  0.00    -0.181 NA
ATOM      2  C   UNL     1       5.095   8.136  -0.538  0.00  0.00    +0.091 C 
ATOM      3  C   UNL     1       3.674   7.658  -0.220  0.00  0.00    -0.061 C 
ATOM      4  C   UNL     1       4.509   5.752   1.025  0.00  0.00    -0.061 C 
ATOM      5  C   UNL     1       5.964   6.151   0.758  0.00  0.00    +0.091 C 
ATOM      6  N   UNL     1       3.680   6.183  -0.121  0.00  0.00    +0.387 N 
ATOM      7  H   UNL     1       4.077   5.793  -0.984  0.00  0.00    -0.081 HD
ENDROOT
BRANCH   1   8
ATOM      8  S   UNL     1       7.060   8.585   1.290  0.00  0.00    +0.054 S 
ATOM      9  O   UNL     1       8.128   7.762   1.740  0.00  0.00    -0.153 OA
ATOM     10  O   UNL     1       7.270   9.720   0.461  0.00  0.00    -0.153 OA
BRANCH   8  12
ATOM     11  C   UNL     1       6.664   8.814   3.934  0.00  0.00    +0.028 C 
ATOM     12  C   UNL     1       6.226   9.161   2.731  0.00  0.00    +0.153 C 
BRANCH  11  16
ATOM     13  C   UNL     1       4.655  10.203   7.408  0.00  0.00    +0.000 A 
ATOM     14  C   UNL     1       5.766   9.388   7.534  0.00  0.00    +0.001 A 
ATOM     15  C   UNL     1       6.424   8.934   6.410  0.00  0.00    +0.008 A 
ATOM     16  C   UNL     1       5.965   9.297   5.143  0.00  0.00    -0.024 A 
ATOM     17  C   UNL     1       4.847  10.123   5.022  0.00  0.00    +0.008 A 
ATOM     18  C   UNL     1       4.195  10.566   6.155  0.00  0.00    +0.001 A 
ENDBRANCH  11  16
ENDBRANCH   8  12
ENDBRANCH   1   8
BRANCH   6  19
ATOM     19  C   UNL     1       2.299   5.683   0.039  0.00  0.00    +0.019 C 
BRANCH  19  20
ATOM     20  C   UNL     1       2.310   4.180  -0.083  0.00  0.00    +0.201 C 
ATOM     21  O   UNL     1       3.356   3.594  -0.264  0.00  0.00    -0.278 OA
ATOM     22  N   UNL     1       1.157   3.488   0.010  0.00  0.00    -0.287 N 
ATOM     23  H   UNL     1       0.313   3.960   0.089  0.00  0.00    +0.155 HD
BRANCH  22  24
ATOM     24  C   UNL     1       1.177   2.087  -0.008  0.00  0.00    +0.033 A 
ATOM     25  C   UNL     1       0.277   1.370   0.768  0.00  0.00    +0.025 A 
ATOM     26  C   UNL     1       0.297  -0.011   0.751  0.00  0.00    +0.025 A 
ATOM     27  C   UNL     1       1.218  -0.682  -0.043  0.00  0.00    +0.030 A 
ATOM     28  C   UNL     1       2.118   0.036  -0.820  0.00  0.00    +0.025 A 
ATOM     29  C   UNL     1       2.098   1.416  -0.802  0.00  0.00    +0.025 A 
BRANCH  27  30
ATOM     30  N   UNL     1       1.239  -2.080  -0.061  0.00  0.00    -0.330 N 
ATOM     31  C   UNL     1       1.582  -2.624   1.278  0.00  0.00    +0.105 C 
ATOM     32  C   UNL     1       1.054  -4.080   1.215  0.00  0.00    +0.020 C 
ATOM     33  C   UNL     1      -0.254  -3.938   0.404  0.00  0.00    +0.020 C 
ATOM     34  C   UNL     1      -0.097  -2.626  -0.388  0.00  0.00    +0.105 C 
ENDBRANCH  27  30
ENDBRANCH  22  24
ENDBRANCH  19  20
ENDBRANCH   6  19
TORSDOF 7
