REMARK  Name = ZINC39280606
REMARK  0 active torsions:
REMARK  status: ('A' for Active; 'I' for Inactive)
REMARK                            x       y       z     vdW  Elec       q    Type
REMARK                         _______ _______ _______ _____ _____    ______ ____
ROOT
ATOM      1  C   UNL     1      -0.019   1.541   0.011  0.00  0.00    +0.006 C 
ATOM      2  C   UNL     1       1.468   1.985  -0.001  0.00  0.00    +0.019 C 
ATOM      3  C   UNL     1       2.167   0.759  -0.613  0.00  0.00    +0.079 C 
ATOM      4  C   UNL     1       1.474  -0.395   0.113  0.00  0.00    -0.044 C 
ATOM      5  C   UNL     1       2.279  -1.293   0.706  0.00  0.00    +0.042 C 
ATOM      6  C   UNL     1       1.898  -2.602   1.317  0.00  0.00    +0.117 C 
ATOM      7  N   UNL     1       2.845  -3.335   1.863  0.00  0.00    -0.176 NA
ATOM      8  C   UNL     1       4.126  -2.958   1.892  0.00  0.00    +0.180 C 
ATOM      9  S   UNL     1       5.268  -3.991   2.641  0.00  0.00    -0.015 S 
ATOM     10  N   UNL     1       4.556  -1.806   1.358  0.00  0.00    -0.184 NA
ATOM     11  C   UNL     1       3.725  -0.982   0.781  0.00  0.00    +0.099 C 
ATOM     12  S   UNL     1       3.897   0.603  -0.050  0.00  0.00    -0.100 S 
ATOM     13  N   UNL     1       0.594  -3.028   1.310  0.00  0.00    -0.344 N 
ATOM     14  C   UNL     1       0.002  -0.004   0.002  0.00  0.00    +0.033 C 
ATOM     15  H   UNL     1      -0.094  -2.478   0.904  0.00  0.00    +0.144 HD
ATOM     16  H   UNL     1       0.360  -3.880   1.710  0.00  0.00    +0.144 HD
ENDROOT
TORSDOF 0
