REMARK  Name = ZINC35399235
REMARK  2 active torsions:
REMARK  status: ('A' for Active; 'I' for Inactive)
REMARK    1  A    between atoms: N_11  and  S_14
REMARK    2  A    between atoms: S_14  and  C_17
REMARK                            x       y       z     vdW  Elec       q    Type
REMARK                         _______ _______ _______ _____ _____    ______ ____
ROOT
ATOM      1  C   UNL     1      -0.017   1.378   0.010  0.00  0.00    +0.002 A 
ATOM      2  C   UNL     1       1.167   2.094   0.002  0.00  0.00    +0.002 A 
ATOM      3  C   UNL     1       2.380   1.429  -0.024  0.00  0.00    +0.028 A 
ATOM      4  C   UNL     1       2.406   0.049  -0.045  0.00  0.00    +0.067 A 
ATOM      5  C   UNL     1       1.213  -0.679  -0.013  0.00  0.00    +0.052 A 
ATOM      6  C   UNL     1       0.002  -0.004   0.002  0.00  0.00    +0.025 A 
ATOM      7  N   UNL     1       1.245  -2.078   0.036  0.00  0.00    -0.331 N 
ATOM      8  C   UNL     1       2.366  -2.813  -0.567  0.00  0.00    +0.075 C 
ATOM      9  C   UNL     1       2.482  -4.193   0.080  0.00  0.00    +0.049 C 
ATOM     10  C   UNL     1       1.177  -4.967  -0.138  0.00  0.00    +0.112 C 
ATOM     11  N   UNL     1       0.877  -4.992  -1.576  0.00  0.00    -0.176 NA
ATOM     12  C   UNL     1       0.824  -3.720  -2.309  0.00  0.00    +0.112 C 
ATOM     13  C   UNL     1       2.133  -2.959  -2.070  0.00  0.00    +0.049 C 
ATOM     14  C   UNL     1       3.628  -2.027  -0.320  0.00  0.00    +0.047 A 
ATOM     15  N   UNL     1       3.612  -0.668  -0.093  0.00  0.00    -0.316 N 
ATOM     16  C   UNL     1       4.887  -0.240   0.066  0.00  0.00    +0.092 A 
ATOM     17  C   UNL     1       5.706  -1.311  -0.035  0.00  0.00    +0.020 A 
ATOM     18  C   UNL     1       4.898  -2.444  -0.275  0.00  0.00    +0.025 A 
ATOM     19  H   UNL     1       0.526  -2.564   0.470  0.00  0.00    +0.147 HD
ENDROOT
BRANCH  11  20
ATOM     20  S   UNL     1       0.602  -6.427  -2.355  0.00  0.00    +0.067 S 
ATOM     21  O   UNL     1       0.899  -6.207  -3.727  0.00  0.00    -0.152 OA
ATOM     22  O   UNL     1       1.246  -7.436  -1.589  0.00  0.00    -0.152 OA
BRANCH  20  23
ATOM     23  C   UNL     1      -1.127  -6.749  -2.259  0.00  0.00    +0.143 A 
ATOM     24  C   UNL     1      -2.112  -6.391  -3.120  0.00  0.00    +0.036 A 
ATOM     25  C   UNL     1      -3.414  -6.758  -2.839  0.00  0.00    +0.010 A 
ATOM     26  C   UNL     1      -3.669  -7.465  -1.711  0.00  0.00    +0.047 A 
ATOM     27  S   UNL     1      -2.038  -7.639  -1.007  0.00  0.00    -0.077 S 
ENDBRANCH  20  23
ENDBRANCH  11  20
TORSDOF 2
