REMARK  Name = ZINC04725314
REMARK  5 active torsions:
REMARK  status: ('A' for Active; 'I' for Inactive)
REMARK    1  A    between atoms: C_1  and  C_2
REMARK    2  A    between atoms: C_6  and  C_8
REMARK    3  A    between atoms: N_9  and  O_10
REMARK    4  A    between atoms: O_10  and  C_11
REMARK    5  A    between atoms: C_11  and  C_13
REMARK                            x       y       z     vdW  Elec       q    Type
REMARK                         _______ _______ _______ _____ _____    ______ ____
ROOT
ATOM      1  O   UNL     1       0.083  -4.866   3.668  0.00  0.00    -0.315 OA
ENDROOT
BRANCH   1   3
ATOM      2  C   UNL     1       0.051  -2.845   2.460  0.00  0.00    +0.163 C 
ATOM      3  N   UNL     1       0.068  -4.147   2.448  0.00  0.00    -0.059 NA
ATOM      4  N   UNL     1       0.048  -2.165   3.664  0.00  0.00    -0.340 N 
ATOM      5  H   UNL     1       0.036  -1.195   3.672  0.00  0.00    +0.144 HD
ATOM      6  H   UNL     1       0.059  -2.657   4.499  0.00  0.00    +0.144 HD
BRANCH   2  12
ATOM      7  C   UNL     1      -0.018   1.503   0.010  0.00  0.00    +0.044 C 
ATOM      8  C   UNL     1       0.002  -0.004   0.002  0.00  0.00    -0.050 A 
ATOM      9  C   UNL     1       0.006  -0.688  -1.201  0.00  0.00    +0.003 A 
ATOM     10  C   UNL     1       0.024  -2.071  -1.217  0.00  0.00    +0.001 A 
ATOM     11  C   UNL     1       0.039  -2.777  -0.031  0.00  0.00    +0.011 A 
ATOM     12  C   UNL     1       0.036  -2.094   1.184  0.00  0.00    +0.018 A 
ATOM     13  C   UNL     1       0.023  -0.699   1.194  0.00  0.00    +0.014 A 
ENDBRANCH   2  12
ENDBRANCH   1   3
BRANCH   1  14
ATOM     14  C   UNL     1       0.100  -6.198   3.515  0.00  0.00    +0.342 C 
ATOM     15  O   UNL     1       0.101  -6.681   2.404  0.00  0.00    -0.248 OA
BRANCH  14  16
ATOM     16  C   UNL     1       0.117  -7.095   4.726  0.00  0.00    +0.071 C 
ATOM     17  C   UNL     1       1.367  -6.803   5.560  0.00  0.00    +0.021 C 
ATOM     18  C   UNL     1       1.384  -7.713   6.789  0.00  0.00    -0.009 C 
ATOM     19  C   UNL     1       1.401  -9.175   6.341  0.00  0.00    +0.007 C 
ATOM     20  C   UNL     1       0.151  -9.468   5.508  0.00  0.00    -0.009 C 
ATOM     21  C   UNL     1       0.134  -8.557   4.278  0.00  0.00    +0.021 C 
ATOM     22  C   UNL     1      -1.097  -9.208   6.353  0.00  0.00    +0.007 C 
ATOM     23  C   UNL     1      -1.114  -7.745   6.801  0.00  0.00    -0.009 C 
ATOM     24  C   UNL     1       0.136  -7.453   7.634  0.00  0.00    +0.007 C 
ATOM     25  C   UNL     1      -1.132  -6.835   5.572  0.00  0.00    +0.021 C 
ENDBRANCH  14  16
ENDBRANCH   1  14
TORSDOF 4
