REMARK  Name = ZINC39889772
REMARK  2 active torsions:
REMARK  status: ('A' for Active; 'I' for Inactive)
REMARK    1  A    between atoms: C_5  and  C_7
REMARK    2  A    between atoms: C_7  and  N_8
REMARK                            x       y       z     vdW  Elec       q    Type
REMARK                         _______ _______ _______ _____ _____    ______ ____
ROOT
ATOM      1  N   UNL     1       1.488  -2.679   1.333  0.00  0.00    -0.264 N 
ATOM      2  C   UNL     1       2.753  -2.918   1.840  0.00  0.00    +0.043 A 
ATOM      3  C   UNL     1       3.997  -2.758   1.229  0.00  0.00    +0.024 A 
ATOM      4  C   UNL     1       5.118  -3.078   1.978  0.00  0.00    +0.002 A 
ATOM      5  C   UNL     1       5.022  -3.535   3.277  0.00  0.00    +0.000 A 
ATOM      6  C   UNL     1       3.789  -3.697   3.899  0.00  0.00    +0.008 A 
ATOM      7  C   UNL     1       2.669  -3.381   3.159  0.00  0.00    +0.011 A 
ATOM      8  C   UNL     1       1.213  -3.427   3.493  0.00  0.00    +0.180 C 
ATOM      9  C   UNL     1       0.521  -2.948   2.236  0.00  0.00    +0.254 C 
ATOM     10  O   UNL     1      -0.674  -2.831   2.070  0.00  0.00    -0.272 OA
ATOM     11  C   UNL     1       0.757  -4.787   3.889  0.00  0.00    +0.085 A 
ATOM     12  C   UNL     1       0.809  -6.074   3.188  0.00  0.00    +0.199 A 
ATOM     13  O   UNL     1       1.433  -6.245   2.155  0.00  0.00    -0.287 OA
ATOM     14  C   UNL     1       0.032  -7.149   3.855  0.00  0.00    +0.064 A 
ATOM     15  C   UNL     1      -0.174  -8.372   3.217  0.00  0.00    +0.015 A 
ATOM     16  C   UNL     1      -0.898  -9.349   3.841  0.00  0.00    +0.001 A 
ATOM     17  C   UNL     1      -1.428  -9.127   5.105  0.00  0.00    +0.004 A 
ATOM     18  C   UNL     1      -1.231  -7.927   5.751  0.00  0.00    +0.047 A 
ATOM     19  C   UNL     1      -0.492  -6.916   5.137  0.00  0.00    +0.139 A 
ATOM     20  O   UNL     1      -0.298  -5.751   5.796  0.00  0.00    -0.450 OA
ATOM     21  C   UNL     1       0.212  -4.690   5.140  0.00  0.00    +0.200 A 
ATOM     22  C   UNL     1       0.302  -3.286   5.576  0.00  0.00    +0.289 C 
ATOM     23  O   UNL     1      -0.096  -2.861   6.642  0.00  0.00    -0.266 OA
ATOM     24  N   UNL     1       0.891  -2.540   4.616  0.00  0.00    -0.220 N 
ATOM     25  C   UNL     1       1.146  -1.177   4.682  0.00  0.00    +0.169 A 
ATOM     26  N   UNL     1       1.710  -0.407   3.776  0.00  0.00    -0.233 NA
ATOM     27  C   UNL     1       1.884   0.884   3.991  0.00  0.00    +0.120 A 
ATOM     28  C   UNL     1       1.455   1.374   5.181  0.00  0.00    +0.068 A 
ATOM     29  S   UNL     1       0.803  -0.107   5.935  0.00  0.00    -0.060 S 
ENDROOT
BRANCH   1  30
ATOM     30  C   UNL     1       1.228  -2.186  -0.022  0.00  0.00    +0.151 C 
BRANCH  30  35
ATOM     31  C   UNL     1      -0.017   1.378   0.010  0.00  0.00    +0.000 A 
ATOM     32  C   UNL     1       1.171   2.087   0.002  0.00  0.00    +0.003 A 
ATOM     33  C   UNL     1       2.377   1.414  -0.013  0.00  0.00    +0.038 A 
ATOM     34  C   UNL     1       2.397   0.029  -0.021  0.00  0.00    +0.128 A 
ATOM     35  C   UNL     1       1.208  -0.679  -0.013  0.00  0.00    +0.005 A 
ATOM     36  C   UNL     1       0.002  -0.004   0.002  0.00  0.00    +0.008 A 
ATOM     37  F   UNL     1       3.577  -0.630  -0.036  0.00  0.00    -0.205 F 
ENDBRANCH  30  35
ENDBRANCH   1  30
TORSDOF 2
