REMARK  Name = ZINC09109583
REMARK  5 active torsions:
REMARK  status: ('A' for Active; 'I' for Inactive)
REMARK    1  A    between atoms: C_1  and  C_2
REMARK    2  A    between atoms: C_2  and  C_3
REMARK    3  A    between atoms: N_21  and  C_24
REMARK    4  A    between atoms: C_28  and  N_31
REMARK    5  A    between atoms: C_29  and  C_30
REMARK                            x       y       z     vdW  Elec       q    Type
REMARK                         _______ _______ _______ _____ _____    ______ ____
ROOT
ATOM      1  C   UNL     1       5.391  -2.182  -0.238  0.00  0.00    -0.047 A 
ATOM      2  C   UNL     1       6.136  -2.788  -1.233  0.00  0.00    +0.005 A 
ATOM      3  C   UNL     1       5.725  -3.987  -1.778  0.00  0.00    +0.024 A 
ATOM      4  C   UNL     1       4.555  -4.596  -1.330  0.00  0.00    +0.036 A 
ATOM      5  C   UNL     1       3.813  -3.976  -0.329  0.00  0.00    -0.027 A 
ATOM      6  C   UNL     1       4.228  -2.780   0.213  0.00  0.00    +0.008 A 
ATOM      7  C   UNL     1       2.632  -4.871  -0.078  0.00  0.00    +0.053 C 
ATOM      8  C   UNL     1       1.310  -4.137  -0.331  0.00  0.00    +0.089 C 
ATOM      9  C   UNL     1       0.821  -3.709   1.081  0.00  0.00    +0.074 C 
ATOM     10  C   UNL     1       1.904  -4.214   2.052  0.00  0.00    -0.054 C 
ATOM     11  C   UNL     1       1.676  -6.492   1.441  0.00  0.00    -0.076 C 
ATOM     12  C   UNL     1       1.083  -6.396   2.861  0.00  0.00    -0.020 C 
ATOM     13  C   UNL     1       1.212  -4.911   3.252  0.00  0.00    -0.016 C 
ATOM     14  C   UNL     1       0.863  -2.199   1.022  0.00  0.00    +0.228 C 
ATOM     15  O   UNL     1       0.557  -1.454   1.929  0.00  0.00    -0.275 OA
ATOM     16  N   UNL     1       1.289  -1.813  -0.186  0.00  0.00    -0.210 N 
ATOM     17  C   UNL     1       1.563  -2.818  -1.026  0.00  0.00    +0.229 C 
ATOM     18  O   UNL     1       1.956  -2.691  -2.166  0.00  0.00    -0.275 OA
ATOM     19  C   UNL     1       2.808  -6.024  -1.029  0.00  0.00    +0.212 C 
ATOM     20  O   UNL     1       2.071  -6.979  -1.153  0.00  0.00    -0.277 OA
ATOM     21  N   UNL     1       3.942  -5.789  -1.717  0.00  0.00    -0.286 N 
ATOM     22  H   UNL     1       4.292  -6.380  -2.402  0.00  0.00    +0.155 HD
ATOM     23  N   UNL     1       2.541  -5.293   1.316  0.00  0.00    +0.395 N 
ATOM     24  H   UNL     1       3.476  -5.490   1.691  0.00  0.00    -0.079 HD
ENDROOT
BRANCH  16  25
ATOM     25  C   UNL     1       1.431  -0.465  -0.544  0.00  0.00    +0.049 A 
ATOM     26  C   UNL     1       2.677   0.145  -0.479  0.00  0.00    +0.024 A 
ATOM     27  C   UNL     1       2.813   1.473  -0.833  0.00  0.00    +0.004 A 
ATOM     28  C   UNL     1       1.711   2.195  -1.251  0.00  0.00    +0.033 A 
ATOM     29  C   UNL     1       0.469   1.591  -1.317  0.00  0.00    +0.131 A 
ATOM     30  C   UNL     1       0.326   0.263  -0.965  0.00  0.00    +0.002 A 
ATOM     31  C   UNL     1      -1.028  -0.395  -1.036  0.00  0.00    +0.048 C 
BRANCH  29  32
ATOM     32  N   UNL     1      -0.707   2.366  -1.771  0.00  0.00    +0.057 N 
ATOM     33  O   UNL     1      -0.612   3.567  -1.951  0.00  0.00    -0.126 OA
ATOM     34  O   UNL     1      -1.770   1.804  -1.964  0.00  0.00    -0.126 OA
ENDBRANCH  29  32
ENDBRANCH  16  25
BRANCH   1  36
ATOM     35  C   UNL     1       6.879  -1.141   1.451  0.00  0.00    +0.009 C 
ATOM     36  C   UNL     1       5.846  -0.873   0.355  0.00  0.00    +0.032 C 
ENDBRANCH   1  36
TORSDOF 3
