REMARK  Name = ZINC39638119
REMARK  11 active torsions:
REMARK  status: ('A' for Active; 'I' for Inactive)
REMARK    1  A    between atoms: C_1  and  C_2
REMARK    2  A    between atoms: C_2  and  C_3
REMARK    3  A    between atoms: C_3  and  C_5
REMARK    4  A    between atoms: C_3  and  N_8
REMARK    5  A    between atoms: C_5  and  O_6
REMARK    6  A    between atoms: O_6  and  C_7
REMARK    7  A    between atoms: C_9  and  C_11
REMARK    8  A    between atoms: C_22  and  C_24
REMARK    9  A    between atoms: C_27  and  O_34
REMARK   10  A    between atoms: C_28  and  C_30
REMARK   11  A    between atoms: O_34  and  C_35
REMARK                            x       y       z     vdW  Elec       q    Type
REMARK                         _______ _______ _______ _____ _____    ______ ____
ROOT
ATOM      1  C   UNL     1       3.788   1.239   2.129  0.00  0.00    +0.100 C 
ATOM      2  C   UNL     1       4.855   0.206   2.557  0.00  0.00    +0.121 C 
ATOM      3  N   UNL     1       5.896   1.006   3.245  0.00  0.00    -0.296 N 
ATOM      4  C   UNL     1       5.133   2.011   4.024  0.00  0.00    +0.115 C 
ATOM      5  C   UNL     1       3.974   2.421   3.095  0.00  0.00    -0.004 C 
ATOM      6  C   UNL     1       2.701   2.645   3.906  0.00  0.00    -0.010 C 
ATOM      7  C   UNL     1       2.889   3.862   4.817  0.00  0.00    -0.082 C 
ATOM      8  N   UNL     1       3.188   5.045   4.000  0.00  0.00    +0.379 N 
ATOM      9  C   UNL     1       4.461   4.858   3.295  0.00  0.00    -0.082 C 
ATOM     10  C   UNL     1       4.340   3.683   2.320  0.00  0.00    -0.010 C 
ATOM     11  C   UNL     1       7.233   0.854   3.178  0.00  0.00    +0.247 C 
ATOM     12  O   UNL     1       7.715   0.043   2.411  0.00  0.00    -0.270 OA
ATOM     13  H   UNL     1       2.449   5.182   3.327  0.00  0.00    -0.086 HD
ATOM     14  H   UNL     1       3.251   5.856   4.597  0.00  0.00    -0.086 HD
ENDROOT
BRANCH  11  15
ATOM     15  C   UNL     1       8.113   1.671   4.037  0.00  0.00    +0.038 A 
ATOM     16  C   UNL     1       7.612   2.243   5.210  0.00  0.00    +0.016 A 
ATOM     17  C   UNL     1       8.436   3.005   6.008  0.00  0.00    +0.047 A 
ATOM     18  C   UNL     1       9.764   3.206   5.648  0.00  0.00    +0.132 A 
ATOM     19  C   UNL     1      10.265   2.639   4.482  0.00  0.00    +0.097 A 
ATOM     20  C   UNL     1       9.449   1.871   3.681  0.00  0.00    +0.029 A 
BRANCH  19  21
ATOM     21  C   UNL     1      11.705   2.860   4.096  0.00  0.00    +0.421 C 
ATOM     22  F   UNL     1      11.973   2.196   2.894  0.00  0.00    -0.166 F 
ATOM     23  F   UNL     1      11.939   4.230   3.935  0.00  0.00    -0.166 F 
ATOM     24  F   UNL     1      12.539   2.360   5.102  0.00  0.00    -0.166 F 
ENDBRANCH  19  21
BRANCH  18  25
ATOM     25  O   UNL     1      10.573   3.958   6.437  0.00  0.00    -0.495 OA
ATOM     26  C   UNL     1       9.993   4.510   7.620  0.00  0.00    +0.277 C 
ENDBRANCH  18  25
ENDBRANCH  11  15
BRANCH   1  28
ATOM     27  N   UNL     1       1.402   1.104   1.494  0.00  0.00    -0.310 N 
ATOM     28  C   UNL     1       2.406   0.656   2.272  0.00  0.00    +0.218 C 
ATOM     29  O   UNL     1       2.198  -0.217   3.088  0.00  0.00    -0.275 OA
ATOM     30  H   UNL     1       1.547   1.858   0.901  0.00  0.00    +0.149 HD
BRANCH  27  31
ATOM     31  C   UNL     1       0.090   0.453   1.542  0.00  0.00    +0.098 C 
BRANCH  31  33
ATOM     32  C   UNL     1      -0.490   1.447   3.760  0.00  0.00    +0.006 C 
ATOM     33  C   UNL     1      -0.898   1.351   2.289  0.00  0.00    +0.021 C 
ENDBRANCH  31  33
BRANCH  31  34
ATOM     34  C   UNL     1      -0.413   0.213   0.118  0.00  0.00    +0.181 C 
BRANCH  34  35
ATOM     35  O   UNL     1      -0.639   1.470  -0.525  0.00  0.00    -0.381 OA
ATOM     36  C   UNL     1      -1.114   1.358  -1.868  0.00  0.00    +0.194 C 
ENDBRANCH  34  35
ENDBRANCH  31  34
ENDBRANCH  27  31
ENDBRANCH   1  28
TORSDOF 8
