REMARK  Name = ZINC57945367
REMARK  14 active torsions:
REMARK  status: ('A' for Active; 'I' for Inactive)
REMARK    1  A    between atoms: C_1  and  C_2
REMARK    2  A    between atoms: C_6  and  C_29
REMARK    3  A    between atoms: C_7  and  O_8
REMARK    4  A    between atoms: O_8  and  C_9
REMARK    5  A    between atoms: C_9  and  C_10
REMARK    6  A    between atoms: C_10  and  C_12
REMARK    7  A    between atoms: C_10  and  O_28
REMARK    8  A    between atoms: C_12  and  N_13
REMARK    9  A    between atoms: N_13  and  C_14
REMARK   10  A    between atoms: N_13  and  C_15
REMARK   11  A    between atoms: C_15  and  C_17
REMARK   12  A    between atoms: C_15  and  C_18
REMARK   13  A    between atoms: C_21  and  S_24
REMARK   14  A    between atoms: S_24  and  N_27
REMARK                            x       y       z     vdW  Elec       q    Type
REMARK                         _______ _______ _______ _____ _____    ______ ____
ROOT
ATOM      1  N   UNL     1      -2.202   1.960   6.217  0.00  0.00    +0.384 N 
ATOM      2  C   UNL     1      -1.431   1.122   7.145  0.00  0.00    -0.095 C 
ATOM      3  H   UNL     1      -1.700   2.817   6.041  0.00  0.00    -0.081 HD
ENDROOT
BRANCH   1   4
ATOM      4  C   UNL     1      -3.510   2.272   6.809  0.00  0.00    -0.041 C 
ATOM      5  C   UNL     1      -3.306   3.024   8.126  0.00  0.00    -0.008 C 
BRANCH   4   6
ATOM      6  C   UNL     1      -4.300   3.131   5.857  0.00  0.00    -0.061 A 
ATOM      7  C   UNL     1      -3.669   4.132   5.142  0.00  0.00    +0.004 A 
ATOM      8  C   UNL     1      -4.394   4.920   4.269  0.00  0.00    +0.029 A 
ATOM      9  C   UNL     1      -5.751   4.708   4.109  0.00  0.00    +0.105 A 
ATOM     10  C   UNL     1      -6.382   3.707   4.824  0.00  0.00    +0.029 A 
ATOM     11  C   UNL     1      -5.656   2.916   5.694  0.00  0.00    +0.004 A 
BRANCH   9  12
ATOM     12  S   UNL     1      -6.676   5.713   2.997  0.00  0.00    +0.056 S 
ATOM     13  O   UNL     1      -8.027   5.670   3.437  0.00  0.00    -0.153 OA
ATOM     14  O   UNL     1      -5.959   6.933   2.859  0.00  0.00    -0.153 OA
BRANCH  12  15
ATOM     15  N   UNL     1      -6.636   4.971   1.517  0.00  0.00    -0.204 NA
ATOM     16  H   UNL     1      -7.378   5.076   0.901  0.00  0.00    +0.144 HD
ATOM     17  H   UNL     1      -5.870   4.431   1.266  0.00  0.00    +0.144 HD
ENDBRANCH  12  15
ENDBRANCH   9  12
ENDBRANCH   4   6
ENDBRANCH   1   4
BRANCH   1  18
ATOM     18  C   UNL     1      -2.397   1.238   4.953  0.00  0.00    -0.043 C 
BRANCH  18  19
ATOM     19  C   UNL     1      -1.043   1.022   4.274  0.00  0.00    +0.135 C 
BRANCH  19  20
ATOM     20  O   UNL     1      -0.435   2.289   4.011  0.00  0.00    -0.390 OA
ATOM     21  H   UNL     1      -0.956   2.862   3.432  0.00  0.00    +0.210 HD
ENDBRANCH  19  20
BRANCH  19  22
ATOM     22  C   UNL     1      -1.246   0.270   2.957  0.00  0.00    +0.258 C 
BRANCH  22  23
ATOM     23  O   UNL     1       0.025  -0.033   2.381  0.00  0.00    -0.489 OA
BRANCH  23  30
ATOM     24  C   UNL     1      -0.018   1.503   0.010  0.00  0.00    +0.047 C 
ATOM     25  C   UNL     1       0.002  -0.004   0.002  0.00  0.00    -0.009 A 
ATOM     26  C   UNL     1       0.006  -0.689  -1.198  0.00  0.00    +0.007 A 
ATOM     27  C   UNL     1       0.024  -2.071  -1.206  0.00  0.00    +0.001 A 
ATOM     28  C   UNL     1       0.040  -2.772  -0.014  0.00  0.00    +0.007 A 
ATOM     29  C   UNL     1       0.036  -2.092   1.188  0.00  0.00    -0.009 A 
ATOM     30  C   UNL     1       0.023  -0.705   1.199  0.00  0.00    +0.126 A 
ATOM     31  C   UNL     1       0.052  -2.856   2.487  0.00  0.00    +0.047 C 
ENDBRANCH  23  30
ENDBRANCH  22  23
ENDBRANCH  19  22
ENDBRANCH  18  19
ENDBRANCH   1  18
TORSDOF 10
