REMARK  Name = ZINC12196718
REMARK  9 active torsions:
REMARK  status: ('A' for Active; 'I' for Inactive)
REMARK    1  A    between atoms: C_1  and  N_2
REMARK    2  A    between atoms: N_2  and  C_3
REMARK    3  A    between atoms: C_3  and  C_4
REMARK    4  A    between atoms: C_6  and  C_9
REMARK    5  A    between atoms: C_15  and  C_17
REMARK    6  A    between atoms: C_17  and  C_18
REMARK    7  A    between atoms: C_18  and  C_19
REMARK    8  A    between atoms: C_19  and  C_25
REMARK    9  A    between atoms: C_25  and  C_26
REMARK                            x       y       z     vdW  Elec       q    Type
REMARK                         _______ _______ _______ _____ _____    ______ ____
ROOT
ATOM      1  C   UNL     1      -0.314   6.041   0.909  0.00  0.00    +0.098 C 
ENDROOT
BRANCH   1   4
ATOM      2  C   UNL     1      -2.645   7.335  -0.051  0.00  0.00    +0.132 C 
ATOM      3  N   UNL     1      -1.543   8.143   0.478  0.00  0.00    -0.299 N 
ATOM      4  C   UNL     1      -0.428   7.543   0.939  0.00  0.00    +0.216 C 
ATOM      5  O   UNL     1       0.484   8.212   1.376  0.00  0.00    -0.276 OA
BRANCH   3   6
ATOM      6  C   UNL     1      -1.654   9.604   0.507  0.00  0.00    +0.166 C 
BRANCH   6   7
ATOM      7  C   UNL     1      -1.119  10.173  -0.782  0.00  0.00    +0.101 A 
ATOM      8  C   UNL     1      -1.867  10.514  -1.927  0.00  0.00    +0.077 A 
ATOM      9  C   UNL     1      -0.928  10.980  -2.807  0.00  0.00    +0.168 A 
ATOM     10  O   UNL     1       0.254  10.895  -2.171  0.00  0.00    -0.354 OA
ATOM     11  N   UNL     1       0.124  10.453  -1.053  0.00  0.00    -0.081 NA
BRANCH   9  12
ATOM     12  C   UNL     1      -1.165  11.476  -4.179  0.00  0.00    +0.020 A 
ATOM     13  C   UNL     1      -2.458  11.497  -4.704  0.00  0.00    +0.011 A 
ATOM     14  C   UNL     1      -2.673  11.967  -5.983  0.00  0.00    +0.001 A 
ATOM     15  C   UNL     1      -1.608  12.406  -6.749  0.00  0.00    +0.000 A 
ATOM     16  C   UNL     1      -0.323  12.384  -6.237  0.00  0.00    +0.001 A 
ATOM     17  C   UNL     1      -0.095  11.922  -4.957  0.00  0.00    +0.011 A 
ENDBRANCH   9  12
ENDBRANCH   6   7
ENDBRANCH   3   6
ENDBRANCH   1   4
BRANCH   1  18
ATOM     18  C   UNL     1       1.040   5.620   1.485  0.00  0.00    +0.035 C 
BRANCH  18  19
ATOM     19  C   UNL     1       1.156   4.095   1.455  0.00  0.00    +0.039 C 
ATOM     20  C   UNL     1       2.446   3.641   2.173  0.00  0.00    +0.035 C 
ATOM     21  C   UNL     1       1.987   2.325   2.843  0.00  0.00    +0.098 C 
ATOM     22  C   UNL     1       0.491   2.487   2.992  0.00  0.00    +0.214 C 
ATOM     23  O   UNL     1      -0.212   1.811   3.714  0.00  0.00    -0.276 OA
ATOM     24  N   UNL     1       0.053   3.487   2.209  0.00  0.00    -0.309 N 
ATOM     25  H   UNL     1      -0.872   3.772   2.150  0.00  0.00    +0.149 HD
BRANCH  19  26
ATOM     26  C   UNL     1       1.150   3.592   0.010  0.00  0.00    +0.061 C 
BRANCH  26  27
ATOM     27  C   UNL     1       1.171   2.086   0.002  0.00  0.00    -0.045 A 
ATOM     28  C   UNL     1      -0.017   1.378   0.010  0.00  0.00    +0.005 A 
ATOM     29  C   UNL     1       0.002  -0.004   0.002  0.00  0.00    +0.020 A 
ATOM     30  C   UNL     1       1.210  -0.679  -0.013  0.00  0.00    +0.041 A 
ATOM     31  C   UNL     1       2.398   0.030  -0.021  0.00  0.00    +0.020 A 
ATOM     32  C   UNL     1       2.378   1.412  -0.013  0.00  0.00    +0.005 A 
ATOM     33 CL   UNL     1       1.234  -2.415  -0.022  0.00  0.00    -0.084 Cl
ENDBRANCH  26  27
ENDBRANCH  19  26
ENDBRANCH  18  19
ENDBRANCH   1  18
TORSDOF 8
