REMARK  Name = ZINC33264340
REMARK  6 active torsions:
REMARK  status: ('A' for Active; 'I' for Inactive)
REMARK    1  A    between atoms: C_1  and  C_2
REMARK    2  A    between atoms: C_2  and  C_3
REMARK    3  A    between atoms: C_2  and  N_4
REMARK    4  A    between atoms: C_11  and  C_14
REMARK    5  A    between atoms: C_18  and  C_20
REMARK    6  A    between atoms: N_25  and  C_28
REMARK                            x       y       z     vdW  Elec       q    Type
REMARK                         _______ _______ _______ _____ _____    ______ ____
ROOT
ATOM      1  C   UNL     1      -2.384   5.682   0.366  0.00  0.00    -0.042 A 
ATOM      2  C   UNL     1      -1.184   6.372   0.365  0.00  0.00    +0.004 A 
ATOM      3  C   UNL     1       0.013   5.689   0.252  0.00  0.00    +0.001 A 
ATOM      4  C   UNL     1       0.019   4.314   0.140  0.00  0.00    +0.013 A 
ATOM      5  C   UNL     1      -1.187   3.612   0.140  0.00  0.00    +0.037 A 
ATOM      6  C   UNL     1      -2.393   4.308   0.248  0.00  0.00    +0.017 A 
ENDROOT
BRANCH   1  14
ATOM      7  N   UNL     1      -5.854   7.581  -2.556  0.00  0.00    -0.297 N 
ATOM      8  C   UNL     1      -5.964   8.321  -1.435  0.00  0.00    +0.302 C 
ATOM      9  O   UNL     1      -6.911   9.070  -1.292  0.00  0.00    -0.253 OA
ATOM     10  N   UNL     1      -5.024   8.232  -0.473  0.00  0.00    -0.285 N 
ATOM     11  C   UNL     1      -5.185   8.948   0.799  0.00  0.00    +0.109 C 
ATOM     12  C   UNL     1      -5.035   7.948   1.950  0.00  0.00    +0.020 C 
ATOM     13  C   UNL     1      -3.702   7.210   1.809  0.00  0.00    +0.011 C 
ATOM     14  C   UNL     1      -3.684   6.435   0.489  0.00  0.00    +0.036 C 
ATOM     15  C   UNL     1      -3.819   7.418  -0.678  0.00  0.00    +0.117 C 
ATOM     16  H   UNL     1      -4.957   6.967  -2.723  0.00  0.00    +0.150 HD
BRANCH   7  18
ATOM     17  C   UNL     1      -6.359   7.230  -4.923  0.00  0.00    +0.027 C 
ATOM     18  C   UNL     1      -6.929   7.593  -3.550  0.00  0.00    +0.068 C 
ATOM     19  C   UNL     1      -8.000   6.573  -3.157  0.00  0.00    +0.027 C 
ENDBRANCH   7  18
ENDBRANCH   1  14
BRANCH   5  20
ATOM     20  C   UNL     1      -1.189   2.139   0.020  0.00  0.00    +0.247 C 
ATOM     21  O   UNL     1      -2.097   1.577  -0.562  0.00  0.00    -0.270 OA
ATOM     22  N   UNL     1      -0.184   1.418   0.554  0.00  0.00    -0.295 N 
ATOM     23  C   UNL     1       0.962   2.080   1.196  0.00  0.00    +0.127 C 
ATOM     24  C   UNL     1       1.169   1.460   2.582  0.00  0.00    +0.124 C 
ATOM     25  N   UNL     1       1.289   0.002   2.450  0.00  0.00    -0.327 N 
ATOM     26  C   UNL     1       0.053  -0.588   1.920  0.00  0.00    +0.124 C 
ATOM     27  C   UNL     1      -0.200  -0.052   0.507  0.00  0.00    +0.127 C 
BRANCH  25  28
ATOM     28  C   UNL     1       1.641  -0.584   3.668  0.00  0.00    +0.030 A 
ATOM     29  C   UNL     1       0.846  -1.583   4.216  0.00  0.00    +0.023 A 
ATOM     30  C   UNL     1       1.200  -2.163   5.418  0.00  0.00    +0.002 A 
ATOM     31  C   UNL     1       2.338  -1.744   6.082  0.00  0.00    +0.000 A 
ATOM     32  C   UNL     1       3.129  -0.746   5.542  0.00  0.00    +0.002 A 
ATOM     33  C   UNL     1       2.784  -0.165   4.337  0.00  0.00    +0.023 A 
ENDBRANCH  25  28
ENDBRANCH   5  20
TORSDOF 4
