REMARK  Name = ZINC01747702
REMARK  9 active torsions:
REMARK  status: ('A' for Active; 'I' for Inactive)
REMARK    1  A    between atoms: C_1  and  C_2
REMARK    2  A    between atoms: C_2  and  N_48
REMARK    3  A    between atoms: C_3  and  C_4
REMARK    4  A    between atoms: C_3  and  N_48
REMARK    5  A    between atoms: C_5  and  C_6
REMARK    6  A    between atoms: C_5  and  N_48
REMARK    7  A    between atoms: C_7  and  O_28
REMARK    8  A    between atoms: C_13  and  C_24
REMARK    9  A    between atoms: C_14  and  C_17
REMARK                            x       y       z     vdW  Elec       q    Type
REMARK                         _______ _______ _______ _____ _____    ______ ____
ROOT
ATOM      1  C   UNL     1       5.905   6.052   0.183  0.00  0.00    +0.020 A 
ATOM      2  C   UNL     1       6.513   6.425  -1.004  0.00  0.00    +0.122 A 
ATOM      3  C   UNL     1       5.962   6.058  -2.229  0.00  0.00    +0.046 A 
ATOM      4  C   UNL     1       4.812   5.321  -2.275  0.00  0.00    +0.019 A 
ATOM      5  C   UNL     1       4.188   4.938  -1.088  0.00  0.00    +0.065 A 
ATOM      6  C   UNL     1       4.736   5.304   0.154  0.00  0.00    +0.144 A 
ATOM      7  O   UNL     1       4.131   4.932   1.300  0.00  0.00    -0.450 OA
ATOM      8  C   UNL     1       3.003   4.218   1.336  0.00  0.00    +0.219 A 
ATOM      9  C   UNL     1       2.371   3.794   0.211  0.00  0.00    +0.078 A 
ATOM     10  C   UNL     1       2.946   4.144  -1.099  0.00  0.00    +0.201 A 
ATOM     11  O   UNL     1       2.420   3.795  -2.142  0.00  0.00    -0.286 OA
ENDROOT
BRANCH   9  12
ATOM     12  C   UNL     1       1.123   2.998   0.301  0.00  0.00    +0.008 A 
ATOM     13  C   UNL     1       1.183   1.606   0.355  0.00  0.00    +0.010 A 
ATOM     14  C   UNL     1       0.018   0.871   0.439  0.00  0.00    +0.001 A 
ATOM     15  C   UNL     1      -1.208   1.511   0.463  0.00  0.00    +0.001 A 
ATOM     16  C   UNL     1      -1.274   2.891   0.414  0.00  0.00    +0.020 A 
ATOM     17  C   UNL     1      -0.116   3.639   0.331  0.00  0.00    +0.049 A 
ATOM     18 CL   UNL     1      -0.200   5.371   0.262  0.00  0.00    -0.083 Cl
ENDBRANCH   9  12
BRANCH   8  19
ATOM     19  C   UNL     1       2.412   3.865   2.676  0.00  0.00    +0.451 C 
ATOM     20  F   UNL     1       2.939   2.644   3.111  0.00  0.00    -0.163 F 
ATOM     21  F   UNL     1       2.726   4.865   3.603  0.00  0.00    -0.163 F 
ATOM     22  F   UNL     1       1.022   3.757   2.559  0.00  0.00    -0.163 F 
ENDBRANCH   8  19
BRANCH   2  23
ATOM     23  O   UNL     1       7.656   7.156  -0.973  0.00  0.00    -0.506 OA
ATOM     24  H   UNL     1       8.463   6.628  -1.041  0.00  0.00    +0.292 HD
ENDBRANCH   2  23
BRANCH   1  25
ATOM     25  C   UNL     1       6.511   6.455   1.502  0.00  0.00    -0.036 C 
BRANCH  25  26
ATOM     26  N   UNL     1       7.300   5.321   2.028  0.00  0.00    +0.382 N 
ATOM     27  H   UNL     1       6.775   4.452   1.878  0.00  0.00    -0.081 HD
BRANCH  26  29
ATOM     28  C   UNL     1       9.439   6.477   1.578  0.00  0.00    -0.017 C 
ATOM     29  C   UNL     1       8.592   5.231   1.315  0.00  0.00    -0.082 C 
ENDBRANCH  26  29
BRANCH  26  30
ATOM     30  C   UNL     1       7.535   5.497   3.477  0.00  0.00    -0.082 C 
ATOM     31  C   UNL     1       8.036   4.174   4.058  0.00  0.00    -0.017 C 
ENDBRANCH  26  30
ENDBRANCH  25  26
ENDBRANCH   1  25
TORSDOF 7
