REMARK  Name = ZINC13063917
REMARK  11 active torsions:
REMARK  status: ('A' for Active; 'I' for Inactive)
REMARK    1  A    between atoms: C_1  and  C_2
REMARK    2  A    between atoms: C_2  and  C_3
REMARK    3  A    between atoms: C_3  and  C_5
REMARK    4  A    between atoms: C_3  and  N_69
REMARK    5  A    between atoms: N_9  and  C_10
REMARK    6  A    between atoms: C_15  and  C_16
REMARK    7  A    between atoms: C_15  and  N_69
REMARK    8  A    between atoms: C_19  and  C_22
REMARK    9  A    between atoms: C_23  and  C_24
REMARK   10  A    between atoms: C_23  and  N_69
REMARK   11  A    between atoms: C_29  and  C_36
REMARK                            x       y       z     vdW  Elec       q    Type
REMARK                         _______ _______ _______ _____ _____    ______ ____
ROOT
ATOM      1  N   UNL     1       0.103  -0.659   1.723  0.00  0.00    +0.392 N 
ATOM      2  H   UNL     1      -0.810  -0.332   2.061  0.00  0.00    -0.080 HD
ENDROOT
BRANCH   1   3
ATOM      3  C   UNL     1       1.165  -0.076   2.569  0.00  0.00    +0.003 C 
BRANCH   3   4
ATOM      4  C   UNL     1       2.502  -0.683   2.232  0.00  0.00    +0.138 A 
ATOM      5  N   UNL     1       2.758  -1.954   2.036  0.00  0.00    -0.115 NA
ATOM      6  N   UNL     1       4.013  -2.071   1.770  0.00  0.00    -0.023 NA
ATOM      7  N   UNL     1       4.565  -0.908   1.791  0.00  0.00    -0.044 NA
ATOM      8  N   UNL     1       3.665  -0.025   2.067  0.00  0.00    -0.228 N 
BRANCH   8   9
ATOM      9  C   UNL     1       3.871   1.421   2.183  0.00  0.00    +0.111 C 
ATOM     10  C   UNL     1       4.502   1.970   0.887  0.00  0.00    +0.027 C 
ATOM     11  C   UNL     1       5.485   3.062   1.378  0.00  0.00    +0.002 C 
ATOM     12  C   UNL     1       6.065   2.444   2.674  0.00  0.00    +0.002 C 
ATOM     13  C   UNL     1       4.864   1.722   3.319  0.00  0.00    +0.027 C 
ENDBRANCH   8   9
ENDBRANCH   3   4
BRANCH   3  15
ATOM     14  C   UNL     1      -0.455   0.377   4.417  0.00  0.00    +0.002 C 
ATOM     15  C   UNL     1       0.835  -0.353   4.037  0.00  0.00    -0.011 C 
ENDBRANCH   3  15
ENDBRANCH   1   3
BRANCH   1  16
ATOM     16  C   UNL     1       0.279  -0.227   0.321  0.00  0.00    -0.042 C 
BRANCH  16  17
ATOM     17  C   UNL     1      -0.153   1.212   0.200  0.00  0.00    -0.064 A 
ATOM     18  C   UNL     1      -1.490   1.520   0.035  0.00  0.00    +0.002 A 
ATOM     19  C   UNL     1      -1.887   2.840  -0.071  0.00  0.00    +0.003 A 
ATOM     20  C   UNL     1      -0.946   3.851  -0.022  0.00  0.00    -0.050 A 
ATOM     21  C   UNL     1       0.392   3.542   0.138  0.00  0.00    +0.003 A 
ATOM     22  C   UNL     1       0.788   2.223   0.249  0.00  0.00    +0.002 A 
ATOM     23  C   UNL     1      -1.378   5.290  -0.142  0.00  0.00    +0.044 C 
ENDBRANCH  16  17
ENDBRANCH   1  16
BRANCH   1  24
ATOM     24  C   UNL     1       0.144  -2.135   1.806  0.00  0.00    -0.036 C 
BRANCH  24  25
ATOM     25  C   UNL     1      -1.184  -2.681   1.349  0.00  0.00    +0.001 A 
ATOM     26  C   UNL     1      -1.342  -3.086   0.065  0.00  0.00    +0.017 A 
ATOM     27  C   UNL     1      -2.645  -3.612  -0.347  0.00  0.00    -0.001 A 
ATOM     28  C   UNL     1      -2.868  -4.045  -1.659  0.00  0.00    +0.010 A 
ATOM     29  C   UNL     1      -4.095  -4.532  -2.011  0.00  0.00    +0.004 A 
ATOM     30  C   UNL     1      -5.122  -4.599  -1.080  0.00  0.00    -0.048 A 
ATOM     31  C   UNL     1      -4.925  -4.178   0.217  0.00  0.00    +0.029 A 
ATOM     32  C   UNL     1      -3.684  -3.679   0.600  0.00  0.00    +0.049 A 
ATOM     33  N   UNL     1      -3.458  -3.252   1.891  0.00  0.00    -0.322 N 
ATOM     34  H   UNL     1      -4.175  -3.299   2.542  0.00  0.00    +0.169 HD
ATOM     35  C   UNL     1      -2.257  -2.775   2.261  0.00  0.00    +0.251 A 
ATOM     36  O   UNL     1      -2.092  -2.410   3.412  0.00  0.00    -0.268 OA
ATOM     37  C   UNL     1      -6.468  -5.139  -1.492  0.00  0.00    +0.044 C 
ENDBRANCH  24  25
ENDBRANCH   1  24
TORSDOF 8
