REMARK  Name = ZINC32916315
REMARK  4 active torsions:
REMARK  status: ('A' for Active; 'I' for Inactive)
REMARK    1  A    between atoms: C_3  and  C_24
REMARK    2  A    between atoms: N_7  and  C_11
REMARK    3  A    between atoms: C_11  and  C_12
REMARK    4  A    between atoms: C_14  and  C_17
REMARK                            x       y       z     vdW  Elec       q    Type
REMARK                         _______ _______ _______ _____ _____    ______ ____
ROOT
ATOM      1  C   UNL     1       1.154   1.777  -0.043  0.00  0.00    +0.003 A 
ATOM      2  C   UNL     1      -0.035   1.075  -0.030  0.00  0.00    +0.013 A 
ATOM      3  C   UNL     1      -1.245   1.766   0.001  0.00  0.00    +0.041 A 
ATOM      4  C   UNL     1      -1.255   3.166   0.029  0.00  0.00    -0.014 A 
ATOM      5  C   UNL     1      -0.062   3.861   0.020  0.00  0.00    +0.034 A 
ATOM      6  C   UNL     1       1.144   3.156  -0.018  0.00  0.00    +0.023 A 
ATOM      7  N   UNL     1       0.005   5.254   0.052  0.00  0.00    -0.321 N 
ATOM      8  C   UNL     1      -1.240   5.899  -0.370  0.00  0.00    +0.106 C 
ATOM      9  C   UNL     1      -2.395   5.329   0.463  0.00  0.00    +0.024 C 
ATOM     10  C   UNL     1      -2.590   3.866   0.058  0.00  0.00    +0.039 C 
ENDROOT
BRANCH   3  11
ATOM     11  C   UNL     1      -2.520   1.019   0.010  0.00  0.00    +0.242 C 
ATOM     12  O   UNL     1      -3.577   1.620   0.037  0.00  0.00    -0.270 OA
ATOM     13  N   UNL     1      -2.512  -0.329  -0.012  0.00  0.00    -0.325 N 
ATOM     14  H   UNL     1      -3.461  -0.884  -0.006  0.00  0.00    +0.145 HD
ATOM     15  H   UNL     1      -1.556  -0.872  -0.037  0.00  0.00    +0.145 HD
ENDBRANCH   3  11
BRANCH   7  16
ATOM     16  C   UNL     1       1.145   5.745  -0.733  0.00  0.00    +0.203 C 
BRANCH  16  17
ATOM     17  C   UNL     1       1.246   7.242  -0.590  0.00  0.00    +0.245 A 
ATOM     18  N   UNL     1       1.988   7.893   0.270  0.00  0.00    -0.190 NA
ATOM     19  C   UNL     1       1.758   9.203   0.029  0.00  0.00    +0.202 A 
ATOM     20  N   UNL     1       0.893   9.270  -0.949  0.00  0.00    -0.056 NA
ATOM     21  O   UNL     1       0.590   8.154  -1.314  0.00  0.00    -0.336 OA
BRANCH  19  22
ATOM     22  C   UNL     1       2.370  10.351   0.744  0.00  0.00    +0.023 A 
ATOM     23  C   UNL     1       3.279  10.127   1.777  0.00  0.00    +0.014 A 
ATOM     24  C   UNL     1       3.849  11.196   2.436  0.00  0.00    +0.039 A 
ATOM     25  C   UNL     1       3.511  12.492   2.079  0.00  0.00    +0.123 A 
ATOM     26  C   UNL     1       2.603  12.719   1.057  0.00  0.00    +0.039 A 
ATOM     27  C   UNL     1       2.033  11.655   0.390  0.00  0.00    +0.014 A 
ATOM     28  F   UNL     1       4.067  13.537   2.731  0.00  0.00    -0.205 F 
ENDBRANCH  19  22
ENDBRANCH  16  17
ENDBRANCH   7  16
TORSDOF 4
