REMARK  Name = ZINC02111894
REMARK  2 active torsions:
REMARK  status: ('A' for Active; 'I' for Inactive)
REMARK    1  A    between atoms: C_1  and  C_2
REMARK    2  A    between atoms: N_18  and  C_21
REMARK                            x       y       z     vdW  Elec       q    Type
REMARK                         _______ _______ _______ _____ _____    ______ ____
ROOT
ATOM      1  C   UNL     1       5.316   2.179  -1.437  0.00  0.00    +0.048 C 
ATOM      2  C   UNL     1       4.778   2.616  -0.072  0.00  0.00    +0.153 C 
ATOM      3  C   UNL     1       3.269   2.573  -0.022  0.00  0.00    +0.053 A 
ATOM      4  C   UNL     1       2.503   3.687   0.003  0.00  0.00    -0.015 A 
ATOM      5  C   UNL     1       1.122   3.238   0.010  0.00  0.00    +0.003 A 
ATOM      6  C   UNL     1      -0.094   3.929   0.024  0.00  0.00    +0.010 A 
ATOM      7  C   UNL     1      -1.238   3.169   0.030  0.00  0.00    +0.001 A 
ATOM      8  C   UNL     1      -1.202   1.784   0.017  0.00  0.00    +0.002 A 
ATOM      9  C   UNL     1      -0.013   1.076   0.008  0.00  0.00    +0.026 A 
ATOM     10  C   UNL     1       1.165   1.821   0.001  0.00  0.00    +0.047 A 
ATOM     11  N   UNL     1       2.480   1.456  -0.015  0.00  0.00    -0.356 N 
ATOM     12  H   UNL     1       2.805   0.542  -0.020  0.00  0.00    +0.166 HD
ATOM     13  C   UNL     1       2.996   5.111   0.024  0.00  0.00    +0.056 C 
ATOM     14  C   UNL     1       4.482   5.166  -0.361  0.00  0.00    +0.115 C 
ATOM     15  N   UNL     1       5.145   4.016   0.253  0.00  0.00    -0.265 N 
ATOM     16  C   UNL     1       6.092   3.951   1.189  0.00  0.00    +0.317 C 
ATOM     17  O   UNL     1       6.786   4.891   1.523  0.00  0.00    -0.252 OA
ATOM     18  N   UNL     1       6.184   2.720   1.718  0.00  0.00    -0.189 N 
ATOM     19  C   UNL     1       5.394   1.839   1.067  0.00  0.00    +0.257 C 
ATOM     20  O   UNL     1       5.217   0.670   1.339  0.00  0.00    -0.272 OA
ENDROOT
BRANCH  18  21
ATOM     21  C   UNL     1       7.001   2.390   2.810  0.00  0.00    +0.081 A 
ATOM     22  C   UNL     1       8.308   1.972   2.601  0.00  0.00    +0.027 A 
ATOM     23  C   UNL     1       9.110   1.648   3.678  0.00  0.00    +0.002 A 
ATOM     24  C   UNL     1       8.612   1.739   4.965  0.00  0.00    +0.003 A 
ATOM     25  C   UNL     1       7.311   2.155   5.179  0.00  0.00    +0.040 A 
ATOM     26  C   UNL     1       6.505   2.486   4.105  0.00  0.00    +0.145 A 
ATOM     27  F   UNL     1       5.235   2.897   4.314  0.00  0.00    -0.204 F 
ENDBRANCH  18  21
TORSDOF 1
