REMARK  Name = ZINC13495829
REMARK  14 active torsions:
REMARK  status: ('A' for Active; 'I' for Inactive)
REMARK    1  A    between atoms: C_1  and  C_2
REMARK    2  A    between atoms: C_2  and  C_3
REMARK    3  A    between atoms: C_3  and  C_5
REMARK    4  A    between atoms: C_3  and  N_73
REMARK    5  A    between atoms: N_9  and  C_10
REMARK    6  A    between atoms: C_10  and  C_11
REMARK    7  A    between atoms: C_14  and  O_17
REMARK    8  A    between atoms: O_17  and  C_18
REMARK    9  A    between atoms: C_19  and  C_20
REMARK   10  A    between atoms: C_19  and  N_73
REMARK   11  A    between atoms: C_20  and  C_21
REMARK   12  A    between atoms: C_27  and  C_28
REMARK   13  A    between atoms: C_27  and  N_73
REMARK   14  A    between atoms: C_32  and  C_40
REMARK                            x       y       z     vdW  Elec       q    Type
REMARK                         _______ _______ _______ _____ _____    ______ ____
ROOT
ATOM      1  N   UNL     1      -2.975   4.255   1.624  0.00  0.00    +0.389 N 
ATOM      2  H   UNL     1      -3.141   3.369   2.116  0.00  0.00    -0.080 HD
ENDROOT
BRANCH   1   3
ATOM      3  C   UNL     1      -4.277   4.874   1.298  0.00  0.00    +0.003 C 
BRANCH   3   4
ATOM      4  C   UNL     1      -5.265   3.779   0.986  0.00  0.00    +0.138 A 
ATOM      5  N   UNL     1      -5.076   2.758   0.187  0.00  0.00    -0.115 NA
ATOM      6  N   UNL     1      -6.152   2.049   0.185  0.00  0.00    -0.023 NA
ATOM      7  N   UNL     1      -7.022   2.592   0.963  0.00  0.00    -0.044 NA
ATOM      8  N   UNL     1      -6.512   3.658   1.479  0.00  0.00    -0.226 N 
BRANCH   8   9
ATOM      9  C   UNL     1      -7.167   4.567   2.423  0.00  0.00    +0.182 C 
BRANCH   9  10
ATOM     10  C   UNL     1      -7.895   5.643   1.660  0.00  0.00    -0.026 A 
ATOM     11  C   UNL     1      -7.247   6.822   1.339  0.00  0.00    +0.009 A 
ATOM     12  C   UNL     1      -7.912   7.807   0.635  0.00  0.00    +0.046 A 
ATOM     13  C   UNL     1      -9.233   7.619   0.260  0.00  0.00    +0.120 A 
ATOM     14  C   UNL     1      -9.883   6.437   0.587  0.00  0.00    +0.046 A 
ATOM     15  C   UNL     1      -9.213   5.453   1.287  0.00  0.00    +0.009 A 
BRANCH  13  16
ATOM     16  O   UNL     1      -9.891   8.588  -0.429  0.00  0.00    -0.495 OA
ATOM     17  C   UNL     1      -9.159   9.778  -0.732  0.00  0.00    +0.277 C 
ENDBRANCH  13  16
ENDBRANCH   9  10
ENDBRANCH   8   9
ENDBRANCH   3   4
BRANCH   3  19
ATOM     18  C   UNL     1      -3.245   6.984   0.447  0.00  0.00    +0.002 C 
ATOM     19  C   UNL     1      -4.140   5.797   0.086  0.00  0.00    -0.011 C 
ENDBRANCH   3  19
ENDBRANCH   1   3
BRANCH   1  20
ATOM     20  C   UNL     1      -2.195   5.152   2.501  0.00  0.00    -0.073 C 
BRANCH  20  21
ATOM     21  C   UNL     1      -2.901   5.257   3.854  0.00  0.00    +0.016 C 
BRANCH  21  22
ATOM     22  C   UNL     1      -2.038   6.038   4.812  0.00  0.00    -0.049 A 
ATOM     23  C   UNL     1      -1.119   5.381   5.609  0.00  0.00    +0.003 A 
ATOM     24  C   UNL     1      -0.325   6.098   6.483  0.00  0.00    +0.000 A 
ATOM     25  C   UNL     1      -0.457   7.472   6.569  0.00  0.00    +0.000 A 
ATOM     26  C   UNL     1      -1.379   8.128   5.776  0.00  0.00    +0.000 A 
ATOM     27  C   UNL     1      -2.170   7.412   4.898  0.00  0.00    +0.003 A 
ENDBRANCH  21  22
ENDBRANCH  20  21
ENDBRANCH   1  20
BRANCH   1  28
ATOM     28  C   UNL     1      -2.221   3.980   0.383  0.00  0.00    -0.037 C 
BRANCH  28  29
ATOM     29  C   UNL     1      -1.069   3.064   0.708  0.00  0.00    +0.001 A 
ATOM     30  C   UNL     1      -1.212   1.723   0.570  0.00  0.00    +0.017 A 
ATOM     31  C   UNL     1      -0.072   0.862   0.887  0.00  0.00    -0.001 A 
ATOM     32  C   UNL     1      -0.157  -0.528   0.757  0.00  0.00    +0.013 A 
ATOM     33  C   UNL     1       0.924  -1.305   1.066  0.00  0.00    -0.050 A 
ATOM     34  C   UNL     1       2.106  -0.727   1.509  0.00  0.00    +0.005 A 
ATOM     35  C   UNL     1       2.212   0.641   1.645  0.00  0.00    +0.026 A 
ATOM     36  C   UNL     1       1.125   1.452   1.336  0.00  0.00    +0.049 A 
ATOM     37  N   UNL     1       1.204   2.822   1.462  0.00  0.00    -0.322 N 
ATOM     38  H   UNL     1       2.029   3.227   1.771  0.00  0.00    +0.169 HD
ATOM     39  C   UNL     1       0.153   3.606   1.162  0.00  0.00    +0.251 A 
ATOM     40  O   UNL     1       0.258   4.814   1.285  0.00  0.00    -0.268 OA
ATOM     41  C   UNL     1       0.832  -2.803   0.926  0.00  0.00    +0.044 C 
ENDBRANCH  28  29
ENDBRANCH   1  28
TORSDOF 11
