REMARK  Name = ZINC12419252
REMARK  11 active torsions:
REMARK  status: ('A' for Active; 'I' for Inactive)
REMARK    1  A    between atoms: C_1  and  C_2
REMARK    2  A    between atoms: C_5  and  C_8
REMARK    3  A    between atoms: C_10  and  S_19
REMARK    4  A    between atoms: C_11  and  N_13
REMARK    5  A    between atoms: N_13  and  C_14
REMARK    6  A    between atoms: C_14  and  C_15
REMARK    7  A    between atoms: C_15  and  C_16
REMARK    8  A    between atoms: C_16  and  N_53
REMARK    9  A    between atoms: C_17  and  N_53
REMARK   10  A    between atoms: C_18  and  N_53
REMARK   11  A    between atoms: S_19  and  C_22
REMARK                            x       y       z     vdW  Elec       q    Type
REMARK                         _______ _______ _______ _____ _____    ______ ____
ROOT
ATOM      1  C   UNL     1       0.743  -1.139   3.623  0.00  0.00    +0.231 A 
ATOM      2  N   UNL     1       1.119  -0.763   2.424  0.00  0.00    -0.188 NA
ATOM      3  C   UNL     1       0.025  -0.534   1.682  0.00  0.00    +0.243 A 
ATOM      4  C   UNL     1      -1.059  -0.789   2.455  0.00  0.00    +0.233 A 
ATOM      5  O   UNL     1      -0.603  -1.167   3.666  0.00  0.00    -0.420 OA
ENDROOT
BRANCH   1  10
ATOM      6  C   UNL     1       4.263  -2.473   7.974  0.00  0.00    +0.044 C 
ATOM      7  C   UNL     1       3.341  -2.124   6.835  0.00  0.00    -0.050 A 
ATOM      8  C   UNL     1       1.971  -2.194   7.011  0.00  0.00    +0.004 A 
ATOM      9  C   UNL     1       1.121  -1.876   5.973  0.00  0.00    +0.013 A 
ATOM     10  C   UNL     1       1.647  -1.481   4.740  0.00  0.00    +0.037 A 
ATOM     11  C   UNL     1       3.031  -1.418   4.568  0.00  0.00    +0.013 A 
ATOM     12  C   UNL     1       3.869  -1.734   5.617  0.00  0.00    +0.004 A 
ENDBRANCH   1  10
BRANCH   3  13
ATOM     13  S   UNL     1       0.002  -0.004   0.002  0.00  0.00    +0.047 S 
ATOM     14  O   UNL     1      -1.243  -0.424  -0.539  0.00  0.00    -0.163 OA
ATOM     15  O   UNL     1       1.248  -0.390  -0.563  0.00  0.00    -0.163 OA
BRANCH  13  16
ATOM     16  C   UNL     1      -0.022   1.758   0.012  0.00  0.00    +0.096 A 
ATOM     17  C   UNL     1      -1.229   2.432   0.021  0.00  0.00    +0.030 A 
ATOM     18  C   UNL     1      -1.249   3.814   0.034  0.00  0.00    +0.040 A 
ATOM     19  C   UNL     1      -0.059   4.523   0.026  0.00  0.00    +0.124 A 
ATOM     20  C   UNL     1       1.149   3.846   0.011  0.00  0.00    +0.040 A 
ATOM     21  C   UNL     1       1.166   2.465   0.004  0.00  0.00    +0.030 A 
ATOM     22  F   UNL     1      -0.078   5.874   0.033  0.00  0.00    -0.205 F 
ENDBRANCH  13  16
ENDBRANCH   3  13
BRANCH   4  23
ATOM     23  N   UNL     1      -2.391  -0.682   2.070  0.00  0.00    -0.312 N 
ATOM     24  H   UNL     1      -2.615  -0.400   1.170  0.00  0.00    +0.149 HD
BRANCH  23  25
ATOM     25  C   UNL     1      -3.457  -0.995   3.026  0.00  0.00    +0.102 C 
BRANCH  25  26
ATOM     26  C   UNL     1      -4.817  -0.797   2.355  0.00  0.00    +0.000 C 
BRANCH  26  27
ATOM     27  C   UNL     1      -5.930  -1.123   3.352  0.00  0.00    -0.078 C 
BRANCH  27  30
ATOM     28  C   UNL     1      -7.438  -1.909   1.628  0.00  0.00    -0.097 C 
ATOM     29  C   UNL     1      -8.325  -1.006   3.692  0.00  0.00    -0.097 C 
ATOM     30  N   UNL     1      -7.237  -0.907   2.696  0.00  0.00    +0.376 N 
ATOM     31  H   UNL     1      -7.250   0.031   2.280  0.00  0.00    -0.083 HD
ENDBRANCH  27  30
ENDBRANCH  26  27
ENDBRANCH  25  26
ENDBRANCH  23  25
ENDBRANCH   4  23
TORSDOF 8
