REMARK  Name = ZINC12879156
REMARK  13 active torsions:
REMARK  status: ('A' for Active; 'I' for Inactive)
REMARK    1  A    between atoms: C_1  and  C_2
REMARK    2  A    between atoms: C_15  and  O_38
REMARK    3  A    between atoms: C_18  and  C_37
REMARK    4  A    between atoms: C_23  and  C_24
REMARK    5  A    between atoms: C_23  and  O_36
REMARK    6  A    between atoms: C_24  and  C_26
REMARK    7  A    between atoms: C_26  and  O_27
REMARK    8  A    between atoms: O_27  and  C_28
REMARK    9  A    between atoms: C_28  and  C_30
REMARK   10  A    between atoms: C_30  and  C_32
REMARK   11  A    between atoms: C_30  and  N_71
REMARK   12  A    between atoms: C_32  and  C_33
REMARK   13  A    between atoms: C_33  and  C_34
REMARK                            x       y       z     vdW  Elec       q    Type
REMARK                         _______ _______ _______ _____ _____    ______ ____
ROOT
ATOM      1  C   UNL     1       0.644  -2.236  10.148  0.00  0.00    +0.016 C 
ATOM      2  C   UNL     1      -0.049  -1.107  10.913  0.00  0.00    -0.005 C 
ATOM      3  C   UNL     1       0.849  -0.800  12.086  0.00  0.00    +0.019 C 
ATOM      4  C   UNL     1       0.056  -0.308  13.296  0.00  0.00    +0.080 C 
ATOM      5  C   UNL     1      -1.004  -1.350  13.604  0.00  0.00    +0.156 C 
ATOM      6  O   UNL     1      -1.133  -1.827  14.712  0.00  0.00    -0.293 OA
ATOM      7  C   UNL     1      -1.865  -1.746  12.481  0.00  0.00    +0.046 C 
ATOM      8  C   UNL     1      -1.407  -1.614  11.239  0.00  0.00    -0.060 C 
ATOM      9  C   UNL     1      -2.314  -1.984  10.078  0.00  0.00    +0.032 C 
ATOM     10  C   UNL     1      -2.370  -0.779   9.131  0.00  0.00    +0.008 C 
ATOM     11  C   UNL     1      -0.956  -0.377   8.713  0.00  0.00    -0.001 C 
ATOM     12  C   UNL     1      -0.152   0.072   9.945  0.00  0.00    +0.031 C 
ATOM     13  C   UNL     1       1.248   0.543   9.562  0.00  0.00    +0.119 C 
ATOM     14  C   UNL     1       1.203   1.638   8.485  0.00  0.00    +0.041 C 
ATOM     15  C   UNL     1       0.461   1.064   7.293  0.00  0.00    +0.009 C 
ATOM     16  C   UNL     1      -0.999   0.793   7.747  0.00  0.00    +0.002 C 
ATOM     17  C   UNL     1      -1.696   0.527   6.408  0.00  0.00    +0.008 C 
ATOM     18  C   UNL     1      -1.080   1.605   5.475  0.00  0.00    +0.043 C 
ATOM     19  C   UNL     1       0.290   1.985   6.090  0.00  0.00    +0.133 C 
ATOM     20  C   UNL     1       1.121  -0.245   6.854  0.00  0.00    +0.015 C 
ENDROOT
BRANCH  19  21
ATOM     21  C   UNL     1       1.394   1.750   5.091  0.00  0.00    +0.202 C 
ATOM     22  O   UNL     1       1.222   0.988   4.170  0.00  0.00    -0.291 OA
BRANCH  21  23
ATOM     23  C   UNL     1       2.711   2.466   5.242  0.00  0.00    +0.309 C 
BRANCH  23  24
ATOM     24  O   UNL     1       3.601   2.074   4.163  0.00  0.00    -0.458 OA
BRANCH  24  25
ATOM     25  C   UNL     1       4.825   2.626   4.152  0.00  0.00    +0.293 C 
ATOM     26  O   UNL     1       5.141   3.410   5.014  0.00  0.00    -0.253 OA
BRANCH  25  27
ATOM     27  C   UNL     1       5.803   2.267   3.063  0.00  0.00    +0.036 C 
BRANCH  27  30
ATOM     28  H   UNL     1       7.341   3.389   3.846  0.00  0.00    -0.089 HD
ATOM     29  H   UNL     1       7.471   3.120   2.210  0.00  0.00    -0.089 HD
ATOM     30  N   UNL     1       6.825   3.324   2.970  0.00  0.00    +0.387 N 
ATOM     31  H   UNL     1       6.364   4.223   2.785  0.00  0.00    -0.089 HD
ENDBRANCH  27  30
BRANCH  27  32
ATOM     32  C   UNL     1       6.455   0.921   3.387  0.00  0.00    +0.006 C 
BRANCH  32  33
ATOM     33  C   UNL     1       7.354   0.497   2.224  0.00  0.00    +0.124 C 
BRANCH  33  34
ATOM     34  C   UNL     1       7.996  -0.829   2.543  0.00  0.00    +0.356 C 
ATOM     35  O   UNL     1       7.759  -1.378   3.593  0.00  0.00    -0.246 OA
ATOM     36  O   UNL     1       8.832  -1.399   1.661  0.00  0.00    -0.246 OA
ENDBRANCH  33  34
ENDBRANCH  32  33
ENDBRANCH  27  32
ENDBRANCH  25  27
ENDBRANCH  24  25
ENDBRANCH  23  24
ENDBRANCH  21  23
ENDBRANCH  19  21
BRANCH  19  37
ATOM     37  O   UNL     1       0.285   3.351   6.508  0.00  0.00    -0.380 OA
ATOM     38  H   UNL     1       0.159   3.983   5.787  0.00  0.00    +0.211 HD
ENDBRANCH  19  37
BRANCH  13  39
ATOM     39  O   UNL     1       1.994  -0.570   9.066  0.00  0.00    -0.391 OA
ATOM     40  H   UNL     1       2.908  -0.357   8.831  0.00  0.00    +0.210 HD
ENDBRANCH  13  39
TORSDOF 11
