REMARK  Name = ZINC64061422
REMARK  7 active torsions:
REMARK  status: ('A' for Active; 'I' for Inactive)
REMARK    1  A    between atoms: C_1  and  N_2
REMARK    2  A    between atoms: N_2  and  C_3
REMARK    3  A    between atoms: C_3  and  C_4
REMARK    4  A    between atoms: C_15  and  C_17
REMARK    5  A    between atoms: C_20  and  C_23
REMARK    6  A    between atoms: C_23  and  O_24
REMARK    7  A    between atoms: O_24  and  C_25
REMARK                            x       y       z     vdW  Elec       q    Type
REMARK                         _______ _______ _______ _____ _____    ______ ____
ROOT
ATOM      1  C   UNL     1      -0.023   0.089  -2.470  0.00  0.00    +0.204 C 
ATOM      2  C   UNL     1       1.374   0.537  -2.855  0.00  0.00    +0.051 C 
ATOM      3  C   UNL     1       1.549   0.265  -4.130  0.00  0.00    +0.161 C 
ATOM      4  O   UNL     1       0.455  -0.306  -4.689  0.00  0.00    -0.407 OA
ATOM      5  N   UNL     1      -0.404  -0.803  -3.595  0.00  0.00    -0.140 NA
ATOM      6  H   UNL     1      -1.382  -0.699  -3.824  0.00  0.00    +0.168 HD
ENDROOT
BRANCH   1   9
ATOM      7  C   UNL     1      -0.018   1.461   0.010  0.00  0.00    +0.132 C 
ATOM      8  N   UNL     1       0.002  -0.004   0.002  0.00  0.00    -0.301 N 
ATOM      9  C   UNL     1       0.000  -0.672  -1.169  0.00  0.00    +0.240 C 
ATOM     10  O   UNL     1       0.017  -1.884  -1.175  0.00  0.00    -0.273 OA
BRANCH   8  11
ATOM     11  C   UNL     1       0.024  -0.743   1.267  0.00  0.00    +0.136 C 
BRANCH  11  12
ATOM     12  C   UNL     1      -1.411  -1.020   1.720  0.00  0.00    +0.120 C 
ATOM     13  C   UNL     1      -1.411  -1.620   3.109  0.00  0.00    +0.009 C 
ATOM     14  C   UNL     1      -2.102  -0.757   3.889  0.00  0.00    -0.001 A 
ATOM     15  C   UNL     1      -2.451  -0.768   5.315  0.00  0.00    +0.048 A 
ATOM     16  C   UNL     1      -3.169   0.262   5.822  0.00  0.00    +0.124 A 
ATOM     17  C   UNL     1      -3.587   1.335   5.020  0.00  0.00    +0.040 A 
ATOM     18  C   UNL     1      -3.304   1.414   3.703  0.00  0.00    +0.029 A 
ATOM     19  C   UNL     1      -2.555   0.387   3.066  0.00  0.00    +0.043 A 
ATOM     20  N   UNL     1      -2.160   0.237   1.823  0.00  0.00    -0.376 N 
ATOM     21  F   UNL     1      -3.493   0.255   7.134  0.00  0.00    -0.205 F 
ATOM     22  H   UNL     1      -2.334   0.853   1.094  0.00  0.00    +0.160 HD
ENDBRANCH  11  12
ENDBRANCH   8  11
ENDBRANCH   1   9
BRANCH   3  23
ATOM     23  C   UNL     1       2.821   0.557  -4.884  0.00  0.00    +0.304 C 
BRANCH  23  24
ATOM     24  O   UNL     1       3.420  -0.672  -5.301  0.00  0.00    -0.484 OA
BRANCH  24  25
ATOM     25  C   UNL     1       4.583  -0.586  -5.998  0.00  0.00    +0.121 A 
ATOM     26  C   UNL     1       5.142   0.654  -6.272  0.00  0.00    +0.046 A 
ATOM     27  C   UNL     1       6.321   0.730  -6.982  0.00  0.00    +0.007 A 
ATOM     28  C   UNL     1       6.956  -0.423  -7.426  0.00  0.00    -0.044 A 
ATOM     29  C   UNL     1       6.406  -1.655  -7.151  0.00  0.00    -0.041 A 
ATOM     30  C   UNL     1       5.220  -1.735  -6.435  0.00  0.00    +0.049 A 
ATOM     31  C   UNL     1       7.049  -2.946  -7.587  0.00  0.00    +0.035 C 
ATOM     32  C   UNL     1       8.071  -2.690  -8.693  0.00  0.00    +0.005 C 
ATOM     33  C   UNL     1       9.017  -1.576  -8.230  0.00  0.00    +0.005 C 
ATOM     34  C   UNL     1       8.237  -0.263  -8.203  0.00  0.00    +0.035 C 
ENDBRANCH  24  25
ENDBRANCH  23  24
ENDBRANCH   3  23
TORSDOF 6
