REMARK  Name = ZINC51698789
REMARK  6 active torsions:
REMARK  status: ('A' for Active; 'I' for Inactive)
REMARK    1  A    between atoms: C_1  and  N_2
REMARK    2  A    between atoms: C_3  and  C_16
REMARK    3  A    between atoms: C_4  and  N_15
REMARK    4  A    between atoms: N_7  and  C_8
REMARK    5  A    between atoms: C_16  and  O_17
REMARK    6  A    between atoms: O_17  and  C_18
REMARK                            x       y       z     vdW  Elec       q    Type
REMARK                         _______ _______ _______ _____ _____    ______ ____
ROOT
ATOM      1  C   UNL     1      -0.021   1.451   0.218  0.00  0.00    +0.171 C 
ATOM      2  N   UNL     1       0.001  -0.008   0.094  0.00  0.00    -0.280 N 
ATOM      3  C   UNL     1      -1.100  -0.827   0.010  0.00  0.00    +0.087 A 
ATOM      4  C   UNL     1      -0.673  -2.103  -0.093  0.00  0.00    +0.115 A 
ATOM      5  C   UNL     1       0.746  -2.094  -0.074  0.00  0.00    +0.293 A 
ATOM      6  O   UNL     1       1.471  -3.070  -0.147  0.00  0.00    -0.264 OA
ATOM      7  N   UNL     1       1.147  -0.812   0.035  0.00  0.00    -0.214 N 
ENDROOT
BRANCH   7   8
ATOM      8  C   UNL     1       2.471  -0.364   0.084  0.00  0.00    +0.081 A 
ATOM      9  C   UNL     1       3.156  -0.346   1.292  0.00  0.00    +0.029 A 
ATOM     10  C   UNL     1       4.464   0.096   1.337  0.00  0.00    +0.002 A 
ATOM     11  C   UNL     1       5.091   0.522   0.180  0.00  0.00    +0.001 A 
ATOM     12  C   UNL     1       4.413   0.506  -1.024  0.00  0.00    +0.017 A 
ATOM     13  C   UNL     1       3.106   0.060  -1.077  0.00  0.00    +0.043 A 
ATOM     14 BR   UNL     1       2.181   0.032  -2.726  0.00  0.00    -0.048 Br
ENDBRANCH   7   8
BRANCH   4  15
ATOM     15  N   UNL     1      -1.493  -3.245  -0.201  0.00  0.00    -0.352 N 
ATOM     16  H   UNL     1      -2.455  -3.146  -0.284  0.00  0.00    +0.143 HD
ATOM     17  H   UNL     1      -1.096  -4.130  -0.191  0.00  0.00    +0.143 HD
ENDBRANCH   4  15
BRANCH   3  18
ATOM     18  C   UNL     1      -2.538  -0.376   0.030  0.00  0.00    +0.216 C 
BRANCH  18  19
ATOM     19  O   UNL     1      -2.841   0.194   1.305  0.00  0.00    -0.377 OA
ATOM     20  C   UNL     1      -4.187   0.655   1.431  0.00  0.00    +0.194 C 
ENDBRANCH  18  19
ENDBRANCH   3  18
TORSDOF 4
