REMARK  Name = ZINC49994543
REMARK  5 active torsions:
REMARK  status: ('A' for Active; 'I' for Inactive)
REMARK    1  A    between atoms: C_3  and  C_8
REMARK    2  A    between atoms: C_11  and  C_13
REMARK    3  A    between atoms: N_15  and  N_16
REMARK    4  A    between atoms: N_19  and  C_20
REMARK    5  A    between atoms: C_20  and  C_21
REMARK                            x       y       z     vdW  Elec       q    Type
REMARK                         _______ _______ _______ _____ _____    ______ ____
ROOT
ATOM      1  C   UNL     1       4.223   0.975   2.210  0.00  0.00    +0.233 C 
ATOM      2  O   UNL     1       3.158   0.402   2.125  0.00  0.00    -0.274 OA
ATOM      3  N   UNL     1       5.036   0.736   3.258  0.00  0.00    -0.233 N 
ATOM      4  H   UNL     1       5.888   1.194   3.325  0.00  0.00    +0.173 HD
ENDROOT
BRANCH   3   5
ATOM      5  N   UNL     1       4.650  -0.175   4.249  0.00  0.00    -0.218 N 
ATOM      6  C   UNL     1       5.463  -0.415   5.297  0.00  0.00    +0.316 C 
ATOM      7  O   UNL     1       5.128  -1.206   6.158  0.00  0.00    -0.251 OA
ATOM      8  N   UNL     1       6.647   0.222   5.391  0.00  0.00    -0.290 N 
ATOM      9  H   UNL     1       3.798  -0.634   4.182  0.00  0.00    +0.174 HD
ATOM     10  H   UNL     1       6.914   0.853   4.705  0.00  0.00    +0.151 HD
BRANCH   8  11
ATOM     11  C   UNL     1       7.531  -0.039   6.530  0.00  0.00    +0.219 C 
BRANCH  11  12
ATOM     12  C   UNL     1       8.800   0.806   6.395  0.00  0.00    +0.405 C 
ATOM     13  F   UNL     1       8.457   2.162   6.372  0.00  0.00    -0.169 F 
ATOM     14  F   UNL     1       9.643   0.557   7.483  0.00  0.00    -0.169 F 
ATOM     15  F   UNL     1       9.459   0.471   5.208  0.00  0.00    -0.169 F 
ENDBRANCH  11  12
ENDBRANCH   8  11
ENDBRANCH   3   5
BRANCH   1  18
ATOM     16  C   UNL     1       3.672   2.184  -0.021  0.00  0.00    +0.032 C 
ATOM     17  C   UNL     1       4.964   1.395  -0.244  0.00  0.00    +0.022 C 
ATOM     18  C   UNL     1       4.638   1.955   1.143  0.00  0.00    +0.084 C 
BRANCH  16  21
ATOM     19  C   UNL     1      -0.017   1.378   0.010  0.00  0.00    +0.002 A 
ATOM     20  C   UNL     1       1.171   2.086   0.002  0.00  0.00    +0.004 A 
ATOM     21  C   UNL     1       2.378   1.412  -0.013  0.00  0.00    -0.042 A 
ATOM     22  C   UNL     1       2.398   0.029  -0.021  0.00  0.00    +0.024 A 
ATOM     23  C   UNL     1       1.210  -0.679  -0.013  0.00  0.00    +0.041 A 
ATOM     24  C   UNL     1       0.002  -0.004   0.002  0.00  0.00    +0.020 A 
ATOM     25 CL   UNL     1       1.234  -2.415  -0.024  0.00  0.00    -0.084 Cl
ENDBRANCH  16  21
ENDBRANCH   1  18
TORSDOF 5
