REMARK  Name = ZINC39462848
REMARK  1 active torsions:
REMARK  status: ('A' for Active; 'I' for Inactive)
REMARK    1  A    between atoms: C_2  and  O_12
REMARK                            x       y       z     vdW  Elec       q    Type
REMARK                         _______ _______ _______ _____ _____    ______ ____
ROOT
ATOM      1  C   UNL     1      -0.017   1.404   0.010  0.00  0.00    +0.090 A 
ATOM      2  C   UNL     1       1.165   2.089   0.002  0.00  0.00    +0.124 A 
ATOM      3  C   UNL     1       2.382   1.380  -0.013  0.00  0.00    +0.103 A 
ATOM      4  C   UNL     1       2.383   0.029  -0.021  0.00  0.00    +0.206 A 
ATOM      5  N   UNL     1       1.206  -0.668  -0.014  0.00  0.00    -0.237 N 
ATOM      6  C   UNL     1       0.002  -0.004   0.002  0.00  0.00    +0.124 A 
ATOM      7  N   UNL     1      -0.966  -0.909   0.006  0.00  0.00    -0.343 N 
ATOM      8  C   UNL     1      -0.424  -2.134  -0.005  0.00  0.00    +0.155 A 
ATOM      9  C   UNL     1       0.923  -2.011  -0.019  0.00  0.00    +0.275 A 
ATOM     10  O   UNL     1       1.828  -3.027  -0.034  0.00  0.00    -0.266 OA
ATOM     11  F   UNL     1       3.557  -0.639  -0.036  0.00  0.00    -0.185 F 
ATOM     12  H   UNL     1      -1.916  -0.715   0.017  0.00  0.00    +0.167 HD
ENDROOT
BRANCH   2  13
ATOM     13  O   UNL     1       1.166   3.447   0.009  0.00  0.00    -0.507 OA
ATOM     14  H   UNL     1       2.050   3.840   0.003  0.00  0.00    +0.292 HD
ENDBRANCH   2  13
TORSDOF 1
