REMARK  Name = ZINC59272992
REMARK  18 active torsions:
REMARK  status: ('A' for Active; 'I' for Inactive)
REMARK    1  A    between atoms: C_1  and  C_2
REMARK    2  A    between atoms: C_2  and  C_3
REMARK    3  A    between atoms: C_3  and  C_4
REMARK    4  A    between atoms: C_4  and  N_5
REMARK    5  A    between atoms: N_5  and  C_6
REMARK    6  A    between atoms: C_7  and  N_19
REMARK    7  A    between atoms: N_8  and  C_15
REMARK    8  A    between atoms: C_15  and  C_16
REMARK    9  A    between atoms: C_16  and  C_17
REMARK   10  A    between atoms: C_16  and  C_18
REMARK   11  A    between atoms: C_20  and  C_22
REMARK   12  A    between atoms: C_22  and  C_24
REMARK   13  A    between atoms: C_22  and  O_25
REMARK   14  A    between atoms: O_25  and  C_26
REMARK   15  A    between atoms: C_30  and  C_32
REMARK   16  A    between atoms: C_32  and  C_33
REMARK   17  A    between atoms: C_32  and  C_34
REMARK   18  A    between atoms: C_32  and  C_35
REMARK                            x       y       z     vdW  Elec       q    Type
REMARK                         _______ _______ _______ _____ _____    ______ ____
ROOT
ATOM      1  N   UNL     1      -2.623  -1.861  -0.480  0.00  0.00    -0.261 N 
ATOM      2  C   UNL     1      -2.905  -2.602   0.612  0.00  0.00    +0.260 C 
ATOM      3  O   UNL     1      -3.553  -3.622   0.503  0.00  0.00    -0.271 OA
ENDROOT
BRANCH   1   4
ATOM      4  C   UNL     1      -3.166  -2.217  -1.733  0.00  0.00    +0.140 A 
ATOM      5  C   UNL     1      -2.346  -2.652  -2.754  0.00  0.00    +0.127 A 
ATOM      6  N   UNL     1      -2.905  -2.992  -3.965  0.00  0.00    -0.280 N 
ATOM      7  C   UNL     1      -4.234  -2.900  -4.151  0.00  0.00    +0.331 A 
ATOM      8  O   UNL     1      -4.708  -3.205  -5.228  0.00  0.00    -0.246 OA
ATOM      9  N   UNL     1      -5.048  -2.479  -3.167  0.00  0.00    -0.273 N 
ATOM     10  H   UNL     1      -6.003  -2.422  -3.326  0.00  0.00    +0.173 HD
ATOM     11  C   UNL     1      -4.552  -2.139  -1.961  0.00  0.00    +0.277 A 
ATOM     12  O   UNL     1      -5.300  -1.763  -1.074  0.00  0.00    -0.266 OA
BRANCH   5  13
ATOM     13  N   UNL     1      -0.988  -2.745  -2.565  0.00  0.00    -0.343 N 
ATOM     14  H   UNL     1      -0.602  -2.518  -1.704  0.00  0.00    +0.144 HD
ATOM     15  H   UNL     1      -0.416  -3.037  -3.291  0.00  0.00    +0.144 HD
ENDBRANCH   5  13
BRANCH   6  16
ATOM     16  C   UNL     1      -2.046  -3.456  -5.058  0.00  0.00    +0.131 C 
BRANCH  16  17
ATOM     17  C   UNL     1      -1.905  -4.977  -4.984  0.00  0.00    +0.003 C 
ATOM     18  C   UNL     1      -1.113  -5.475  -6.195  0.00  0.00    +0.009 C 
ATOM     19  C   UNL     1      -1.166  -5.359  -3.700  0.00  0.00    +0.009 C 
ENDBRANCH  16  17
ENDBRANCH   6  16
ENDBRANCH   1   4
BRANCH   2  20
ATOM     20  C   UNL     1      -2.413  -2.163   1.968  0.00  0.00    +0.256 C 
ATOM     21  C   UNL     1      -0.924  -2.487   2.099  0.00  0.00    +0.062 C 
BRANCH  20  22
ATOM     22  O   UNL     1      -3.143  -2.853   2.985  0.00  0.00    -0.480 OA
BRANCH  22  23
ATOM     23  C   UNL     1      -3.211  -2.260   4.205  0.00  0.00    +0.122 A 
ATOM     24  C   UNL     1      -2.495  -1.097   4.453  0.00  0.00    +0.046 A 
ATOM     25  C   UNL     1      -2.566  -0.495   5.694  0.00  0.00    +0.004 A 
ATOM     26  C   UNL     1      -3.350  -1.050   6.690  0.00  0.00    +0.004 A 
ATOM     27  C   UNL     1      -4.063  -2.209   6.445  0.00  0.00    -0.039 A 
ATOM     28  C   UNL     1      -4.000  -2.812   5.203  0.00  0.00    +0.049 A 
BRANCH  27  29
ATOM     29  C   UNL     1      -4.915  -2.812   7.532  0.00  0.00    -0.013 C 
ATOM     30  C   UNL     1      -4.815  -1.953   8.794  0.00  0.00    +0.015 C 
ATOM     31  C   UNL     1      -6.372  -2.866   7.067  0.00  0.00    +0.015 C 
ATOM     32  C   UNL     1      -4.425  -4.228   7.838  0.00  0.00    +0.015 C 
ENDBRANCH  27  29
ENDBRANCH  22  23
ENDBRANCH  20  22
ENDBRANCH   2  20
BRANCH   1  33
ATOM     33  C   UNL     1      -1.754  -0.687  -0.365  0.00  0.00    +0.114 C 
BRANCH  33  34
ATOM     34  C   UNL     1      -2.612   0.566  -0.180  0.00  0.00    +0.019 C 
BRANCH  34  36
ATOM     35  C   UNL     1      -2.562   3.045   0.124  0.00  0.00    +0.004 C 
ATOM     36  C   UNL     1      -1.705   1.792  -0.060  0.00  0.00    -0.002 C 
ENDBRANCH  34  36
ENDBRANCH  33  34
ENDBRANCH   1  33
TORSDOF 11
