REMARK  Name = ZINC59490412
REMARK  14 active torsions:
REMARK  status: ('A' for Active; 'I' for Inactive)
REMARK    1  A    between atoms: C_1  and  C_2
REMARK    2  A    between atoms: C_2  and  C_3
REMARK    3  A    between atoms: C_3  and  O_4
REMARK    4  A    between atoms: O_4  and  C_5
REMARK    5  A    between atoms: C_8  and  N_11
REMARK    6  A    between atoms: C_15  and  N_19
REMARK    7  A    between atoms: N_19  and  C_20
REMARK    8  A    between atoms: N_19  and  C_32
REMARK    9  A    between atoms: C_20  and  C_21
REMARK   10  A    between atoms: C_21  and  C_22
REMARK   11  A    between atoms: C_25  and  S_28
REMARK   12  A    between atoms: S_28  and  N_31
REMARK   13  A    between atoms: C_32  and  N_34
REMARK   14  A    between atoms: N_34  and  C_35
REMARK                            x       y       z     vdW  Elec       q    Type
REMARK                         _______ _______ _______ _____ _____    ______ ____
ROOT
ATOM      1  N   UNL     1      -8.211  -7.161  -1.123  0.00  0.00    -0.300 N 
ENDROOT
BRANCH   1   6
ATOM      2  N   UNL     1      -8.892  -6.629   2.118  0.00  0.00    -0.209 N 
ATOM      3  C   UNL     1      -7.657  -7.124   2.267  0.00  0.00    +0.228 C 
ATOM      4  O   UNL     1      -7.216  -7.614   3.285  0.00  0.00    -0.275 OA
ATOM      5  C   UNL     1      -6.900  -6.975   0.966  0.00  0.00    +0.128 C 
ATOM      6  C   UNL     1      -7.923  -6.301   0.028  0.00  0.00    +0.171 C 
ATOM      7  C   UNL     1      -9.152  -6.146   0.896  0.00  0.00    +0.247 C 
ATOM      8  O   UNL     1     -10.204  -5.658   0.543  0.00  0.00    -0.273 OA
BRANCH   2  12
ATOM      9  C   UNL     1     -11.706  -6.613   5.198  0.00  0.00    +0.121 A 
ATOM     10  C   UNL     1     -11.254  -7.817   4.678  0.00  0.00    +0.047 A 
ATOM     11  C   UNL     1     -10.322  -7.823   3.659  0.00  0.00    +0.027 A 
ATOM     12  C   UNL     1      -9.839  -6.624   3.154  0.00  0.00    +0.044 A 
ATOM     13  C   UNL     1     -10.292  -5.419   3.674  0.00  0.00    +0.027 A 
ATOM     14  C   UNL     1     -11.227  -5.414   4.689  0.00  0.00    +0.047 A 
BRANCH   9  15
ATOM     15  O   UNL     1     -12.623  -6.607   6.201  0.00  0.00    -0.492 OA
BRANCH  15  16
ATOM     16  C   UNL     1     -13.072  -7.878   6.676  0.00  0.00    +0.229 C 
BRANCH  16  18
ATOM     17  C   UNL     1     -14.575  -9.032   8.306  0.00  0.00    +0.007 C 
ATOM     18  C   UNL     1     -14.094  -7.671   7.797  0.00  0.00    +0.038 C 
ENDBRANCH  16  18
ENDBRANCH  15  16
ENDBRANCH   9  15
ENDBRANCH   2  12
ENDBRANCH   1   6
BRANCH   1  19
ATOM     19  C   UNL     1      -7.870  -6.763  -2.364  0.00  0.00    +0.133 C 
ATOM     20  S   UNL     1      -8.328  -7.701  -3.720  0.00  0.00    -0.019 S 
BRANCH  19  21
ATOM     21  N   UNL     1      -7.168  -5.625  -2.538  0.00  0.00    -0.329 N 
ATOM     22  C   UNL     1      -6.702  -5.249  -3.875  0.00  0.00    +0.127 C 
ATOM     23  H   UNL     1      -6.970  -5.056  -1.777  0.00  0.00    +0.147 HD
ENDBRANCH  19  21
ENDBRANCH   1  19
BRANCH   1  24
ATOM     24  C   UNL     1      -8.871  -8.454  -0.924  0.00  0.00    +0.112 C 
BRANCH  24  25
ATOM     25  C   UNL     1     -10.388  -8.270  -1.005  0.00  0.00    +0.054 C 
BRANCH  25  26
ATOM     26  C   UNL     1     -11.066  -9.600  -0.800  0.00  0.00    -0.046 A 
ATOM     27  C   UNL     1     -11.334 -10.414  -1.885  0.00  0.00    +0.005 A 
ATOM     28  C   UNL     1     -11.956 -11.634  -1.698  0.00  0.00    +0.029 A 
ATOM     29  C   UNL     1     -12.311 -12.040  -0.425  0.00  0.00    +0.105 A 
ATOM     30  C   UNL     1     -12.043 -11.226   0.660  0.00  0.00    +0.029 A 
ATOM     31  C   UNL     1     -11.417 -10.009   0.473  0.00  0.00    +0.005 A 
BRANCH  29  32
ATOM     32  S   UNL     1     -13.106 -13.594  -0.186  0.00  0.00    +0.056 S 
ATOM     33  O   UNL     1     -13.825 -13.499   1.036  0.00  0.00    -0.153 OA
ATOM     34  O   UNL     1     -13.735 -13.922  -1.417  0.00  0.00    -0.153 OA
BRANCH  32  35
ATOM     35  N   UNL     1     -11.916 -14.721   0.052  0.00  0.00    -0.204 NA
ATOM     36  H   UNL     1     -12.088 -15.498   0.607  0.00  0.00    +0.144 HD
ATOM     37  H   UNL     1     -11.047 -14.604  -0.362  0.00  0.00    +0.144 HD
ENDBRANCH  32  35
ENDBRANCH  29  32
ENDBRANCH  25  26
ENDBRANCH  24  25
ENDBRANCH   1  24
TORSDOF 12
