REMARK  Name = ZINC28631878
REMARK  11 active torsions:
REMARK  status: ('A' for Active; 'I' for Inactive)
REMARK    1  A    between atoms: C_1  and  C_2
REMARK    2  A    between atoms: C_5  and  C_8
REMARK    3  A    between atoms: N_10  and  C_11
REMARK    4  A    between atoms: C_11  and  C_13
REMARK    5  A    between atoms: C_11  and  C_16
REMARK    6  A    between atoms: C_13  and  C_14
REMARK    7  A    between atoms: C_13  and  C_15
REMARK    8  A    between atoms: N_18  and  N_19
REMARK    9  A    between atoms: N_19  and  C_20
REMARK   10  A    between atoms: C_20  and  N_22
REMARK   11  A    between atoms: N_22  and  C_23
REMARK                            x       y       z     vdW  Elec       q    Type
REMARK                         _______ _______ _______ _____ _____    ______ ____
ROOT
ATOM      1  C   UNL     1       0.768  -7.019   2.311  0.00  0.00    +0.250 C 
ATOM      2  O   UNL     1       1.066  -6.330   3.263  0.00  0.00    -0.272 OA
ATOM      3  N   UNL     1       1.031  -8.341   2.328  0.00  0.00    -0.234 N 
ATOM      4  H   UNL     1       0.728  -8.905   1.599  0.00  0.00    +0.173 HD
ENDROOT
BRANCH   3   5
ATOM      5  N   UNL     1       1.741  -8.901   3.398  0.00  0.00    -0.246 N 
ATOM      6  H   UNL     1       2.044  -8.337   4.127  0.00  0.00    +0.172 HD
BRANCH   5   7
ATOM      7  C   UNL     1       2.004 -10.223   3.414  0.00  0.00    +0.147 C 
ATOM      8  S   UNL     1       2.872 -10.906   4.722  0.00  0.00    -0.017 S 
BRANCH   7   9
ATOM      9  N   UNL     1       1.583 -11.006   2.402  0.00  0.00    -0.323 N 
ATOM     10  H   UNL     1       1.091 -10.619   1.661  0.00  0.00    +0.148 HD
BRANCH   9  11
ATOM     11  C   UNL     1       1.869 -12.443   2.420  0.00  0.00    +0.072 C 
ATOM     12  C   UNL     1       3.262 -12.693   1.840  0.00  0.00    +0.022 C 
ATOM     13  C   UNL     1       3.561 -14.194   1.859  0.00  0.00    +0.002 C 
ATOM     14  C   UNL     1       2.518 -14.932   1.017  0.00  0.00    +0.000 C 
ATOM     15  C   UNL     1       1.124 -14.681   1.597  0.00  0.00    +0.002 C 
ATOM     16  C   UNL     1       0.826 -13.181   1.578  0.00  0.00    +0.022 C 
ENDBRANCH   9  11
ENDBRANCH   7   9
ENDBRANCH   5   7
ENDBRANCH   3   5
BRANCH   1  17
ATOM     17  C   UNL     1       0.105  -6.398   1.109  0.00  0.00    +0.163 C 
BRANCH  17  20
ATOM     18  C   UNL     1       0.255  -4.233   0.001  0.00  0.00    +0.245 C 
ATOM     19  O   UNL     1       0.068  -4.795  -1.060  0.00  0.00    -0.270 OA
ATOM     20  N   UNL     1       0.291  -4.946   1.145  0.00  0.00    -0.300 N 
ATOM     21  H   UNL     1       0.441  -4.497   1.992  0.00  0.00    +0.150 HD
BRANCH  18  26
ATOM     22  C   UNL     1       0.985   1.474   0.143  0.00  0.00    +0.044 C 
ATOM     23  C   UNL     1       0.794  -0.021   0.106  0.00  0.00    -0.050 A 
ATOM     24  C   UNL     1       0.582  -0.658  -1.104  0.00  0.00    +0.004 A 
ATOM     25  C   UNL     1       0.406  -2.026  -1.145  0.00  0.00    +0.013 A 
ATOM     26  C   UNL     1       0.443  -2.767   0.038  0.00  0.00    +0.037 A 
ATOM     27  C   UNL     1       0.658  -2.118   1.254  0.00  0.00    +0.013 A 
ATOM     28  C   UNL     1       0.838  -0.750   1.281  0.00  0.00    +0.004 A 
ENDBRANCH  18  26
ENDBRANCH  17  20
BRANCH  17  29
ATOM     29  C   UNL     1      -1.390  -6.721   1.127  0.00  0.00    +0.012 C 
ATOM     30  C   UNL     1      -2.039  -6.062   2.345  0.00  0.00    +0.009 C 
ATOM     31  C   UNL     1      -2.043  -6.188  -0.150  0.00  0.00    +0.009 C 
ENDBRANCH  17  29
ENDBRANCH   1  17
TORSDOF 8
