REMARK  Name = ZINC36809454
REMARK  4 active torsions:
REMARK  status: ('A' for Active; 'I' for Inactive)
REMARK    1  A    between atoms: C_1  and  C_2
REMARK    2  A    between atoms: C_5  and  S_9
REMARK    3  A    between atoms: C_7  and  N_8
REMARK    4  A    between atoms: S_9  and  N_12
REMARK                            x       y       z     vdW  Elec       q    Type
REMARK                         _______ _______ _______ _____ _____    ______ ____
ROOT
ATOM      1  S   UNL     1       0.062  -4.535  -0.031  0.00  0.00    +0.061 S 
ATOM      2  O   UNL     1      -0.477  -4.960   1.213  0.00  0.00    -0.153 OA
ATOM      3  O   UNL     1      -0.490  -4.937  -1.277  0.00  0.00    -0.153 OA
ENDROOT
BRANCH   1   4
ATOM      4  N   UNL     1       1.650  -5.004  -0.044  0.00  0.00    -0.176 NA
ATOM      5  C   UNL     1       2.364  -5.199  -1.313  0.00  0.00    +0.110 C 
ATOM      6  C   UNL     1       3.643  -4.356  -1.292  0.00  0.00    +0.021 C 
ATOM      7  C   UNL     1       4.465  -4.712  -0.050  0.00  0.00    -0.005 C 
ATOM      8  C   UNL     1       5.756  -3.890  -0.049  0.00  0.00    +0.004 C 
ATOM      9  C   UNL     1       6.582  -4.236   1.192  0.00  0.00    +0.000 C 
ATOM     10  C   UNL     1       5.771  -3.910   2.448  0.00  0.00    +0.000 C 
ATOM     11  C   UNL     1       4.483  -4.734   2.450  0.00  0.00    +0.005 C 
ATOM     12  C   UNL     1       3.654  -4.396   1.209  0.00  0.00    +0.008 C 
ATOM     13  C   UNL     1       2.375  -5.228   1.214  0.00  0.00    +0.113 C 
ENDBRANCH   1   4
BRANCH   1  18
ATOM     14  C   UNL     1      -0.018   1.503   0.010  0.00  0.00    +0.045 C 
ATOM     15  C   UNL     1       0.002  -0.004   0.002  0.00  0.00    -0.030 A 
ATOM     16  C   UNL     1       0.006  -0.689  -1.198  0.00  0.00    +0.007 A 
ATOM     17  C   UNL     1       0.024  -2.071  -1.206  0.00  0.00    +0.029 A 
ATOM     18  C   UNL     1       0.039  -2.773  -0.014  0.00  0.00    +0.107 A 
ATOM     19  C   UNL     1       0.036  -2.095   1.188  0.00  0.00    +0.051 A 
ATOM     20  C   UNL     1       0.023  -0.706   1.200  0.00  0.00    +0.029 A 
BRANCH  20  21
ATOM     21  N   UNL     1       0.025  -0.016   2.415  0.00  0.00    -0.358 N 
ATOM     22  H   UNL     1       0.012   0.954   2.422  0.00  0.00    +0.142 HD
ATOM     23  H   UNL     1       0.040  -0.507   3.252  0.00  0.00    +0.142 HD
ENDBRANCH  20  21
ENDBRANCH   1  18
TORSDOF 3
