REMARK  Name = ZINC05568148
REMARK  8 active torsions:
REMARK  status: ('A' for Active; 'I' for Inactive)
REMARK    1  A    between atoms: C_1  and  C_2
REMARK    2  A    between atoms: C_2  and  N_3
REMARK    3  A    between atoms: N_3  and  C_4
REMARK    4  A    between atoms: N_3  and  C_6
REMARK    5  A    between atoms: C_4  and  C_5
REMARK    6  A    between atoms: C_9  and  C_13
REMARK    7  A    between atoms: C_10  and  O_12
REMARK    8  A    between atoms: C_25  and  O_27
REMARK                            x       y       z     vdW  Elec       q    Type
REMARK                         _______ _______ _______ _____ _____    ______ ____
ROOT
ATOM      1  C   UNL     1      -1.267  -6.173   0.976  0.00  0.00    +0.227 C 
ATOM      2  N   UNL     1      -0.086  -6.763   0.321  0.00  0.00    -0.313 N 
ATOM      3  C   UNL     1       1.099  -6.688   1.019  0.00  0.00    +0.080 A 
ATOM      4  C   UNL     1       1.130  -6.576   2.414  0.00  0.00    +0.068 A 
ATOM      5  C   UNL     1       2.452  -6.494   3.008  0.00  0.00    -0.023 A 
ATOM      6  C   UNL     1       3.471  -6.546   2.120  0.00  0.00    -0.005 A 
ATOM      7  S   UNL     1       2.686  -6.699   0.539  0.00  0.00    -0.078 S 
ATOM      8  C   UNL     1       4.935  -6.486   2.425  0.00  0.00    +0.043 C 
ATOM      9  C   UNL     1       5.109  -5.980   3.865  0.00  0.00    +0.005 C 
ATOM     10  C   UNL     1       4.165  -6.763   4.782  0.00  0.00    +0.005 C 
ATOM     11  C   UNL     1       2.715  -6.363   4.502  0.00  0.00    +0.037 C 
ATOM     12  C   UNL     1      -0.172  -6.559   3.129  0.00  0.00    +0.220 C 
ATOM     13  N   UNL     1      -1.252  -6.400   2.416  0.00  0.00    -0.223 NA
ATOM     14  H   UNL     1      -0.140  -7.180  -0.553  0.00  0.00    +0.149 HD
ENDROOT
BRANCH   1  18
ATOM     15  C   UNL     1      -1.323  -1.965   0.226  0.00  0.00    +0.017 A 
ATOM     16  C   UNL     1      -0.653  -2.814  -0.634  0.00  0.00    +0.022 A 
ATOM     17  C   UNL     1      -0.635  -4.175  -0.392  0.00  0.00    +0.013 A 
ATOM     18  C   UNL     1      -1.287  -4.690   0.713  0.00  0.00    +0.036 A 
ATOM     19  C   UNL     1      -1.960  -3.840   1.577  0.00  0.00    +0.125 A 
ATOM     20  C   UNL     1      -1.972  -2.474   1.335  0.00  0.00    +0.067 A 
BRANCH  15  21
ATOM     21  N   UNL     1      -1.340  -0.589  -0.022  0.00  0.00    -0.394 NA
ATOM     22  H   UNL     1      -1.866  -0.123   0.702  0.00  0.00    +0.126 HD
BRANCH  21  24
ATOM     23  C   UNL     1       0.642  -0.208   1.365  0.00  0.00    +0.022 C 
ATOM     24  C   UNL     1       0.037  -0.077  -0.034  0.00  0.00    +0.081 C 
ENDBRANCH  21  24
BRANCH  21  25
ATOM     25  C   UNL     1      -1.968  -0.335  -1.325  0.00  0.00    +0.081 C 
ATOM     26  C   UNL     1      -3.440  -0.751  -1.272  0.00  0.00    +0.022 C 
ENDBRANCH  21  25
ENDBRANCH  15  21
BRANCH  19  27
ATOM     27  O   UNL     1      -2.602  -4.343   2.664  0.00  0.00    -0.506 OA
ATOM     28  H   UNL     1      -2.052  -4.394   3.458  0.00  0.00    +0.292 HD
ENDBRANCH  19  27
ENDBRANCH   1  18
BRANCH  12  29
ATOM     29  O   UNL     1      -0.234  -6.705   4.473  0.00  0.00    -0.492 OA
ATOM     30  H   UNL     1      -1.132  -6.679   4.830  0.00  0.00    +0.294 HD
ENDBRANCH  12  29
TORSDOF 6
