REMARK  Name = ZINC67610527
REMARK  5 active torsions:
REMARK  status: ('A' for Active; 'I' for Inactive)
REMARK    1  A    between atoms: C_4  and  C_7
REMARK    2  A    between atoms: C_7  and  C_9
REMARK    3  A    between atoms: C_7  and  N_14
REMARK    4  A    between atoms: C_20  and  N_23
REMARK    5  A    between atoms: N_23  and  C_24
REMARK                            x       y       z     vdW  Elec       q    Type
REMARK                         _______ _______ _______ _____ _____    ______ ____
ROOT
ATOM      1  N   UNL     1       3.630  -1.873   0.845  0.00  0.00    -0.285 N 
ATOM      2  C   UNL     1       4.751  -2.385   1.391  0.00  0.00    +0.303 C 
ATOM      3  O   UNL     1       5.830  -1.879   1.150  0.00  0.00    -0.253 OA
ATOM      4  N   UNL     1       4.677  -3.458   2.203  0.00  0.00    -0.284 N 
ATOM      5  C   UNL     1       3.444  -4.169   2.572  0.00  0.00    +0.111 C 
ATOM      6  C   UNL     1       3.849  -5.340   3.492  0.00  0.00    +0.043 C 
ATOM      7  C   UNL     1       5.342  -5.563   3.135  0.00  0.00    +0.089 C 
ATOM      8  C   UNL     1       5.819  -4.116   2.864  0.00  0.00    +0.131 C 
ATOM      9  H   UNL     1       2.769  -2.277   1.038  0.00  0.00    +0.151 HD
ENDROOT
BRANCH   7  10
ATOM     10  N   UNL     1       6.069  -6.156   4.260  0.00  0.00    -0.339 N 
ATOM     11  H   UNL     1       5.747  -6.029   5.166  0.00  0.00    +0.146 HD
BRANCH  10  12
ATOM     12  C   UNL     1       7.225  -6.904   4.029  0.00  0.00    +0.027 A 
ATOM     13  C   UNL     1       7.691  -7.082   2.732  0.00  0.00    +0.023 A 
ATOM     14  C   UNL     1       8.835  -7.823   2.507  0.00  0.00    +0.002 A 
ATOM     15  C   UNL     1       9.516  -8.387   3.570  0.00  0.00    +0.000 A 
ATOM     16  C   UNL     1       9.055  -8.211   4.862  0.00  0.00    +0.002 A 
ATOM     17  C   UNL     1       7.915  -7.467   5.095  0.00  0.00    +0.023 A 
ENDBRANCH  10  12
ENDBRANCH   7  10
BRANCH   1  18
ATOM     18  C   UNL     1       3.711  -0.707  -0.038  0.00  0.00    +0.171 C 
BRANCH  18  22
ATOM     19  C   UNL     1      -0.017   1.378   0.010  0.00  0.00    +0.000 A 
ATOM     20  C   UNL     1       1.171   2.086   0.002  0.00  0.00    +0.000 A 
ATOM     21  C   UNL     1       2.377   1.411  -0.013  0.00  0.00    +0.006 A 
ATOM     22  C   UNL     1       2.396   0.029  -0.020  0.00  0.00    -0.020 A 
ATOM     23  C   UNL     1       1.208  -0.679  -0.012  0.00  0.00    +0.006 A 
ATOM     24  C   UNL     1       0.002  -0.004   0.002  0.00  0.00    +0.000 A 
ENDBRANCH  18  22
BRANCH  18  25
ATOM     25  C   UNL     1       4.014  -1.161  -1.442  0.00  0.00    +0.129 A 
ATOM     26  C   UNL     1       4.853  -0.554  -2.301  0.00  0.00    +0.047 A 
ATOM     27  C   UNL     1       4.836  -1.311  -3.495  0.00  0.00    +0.041 A 
ATOM     28  C   UNL     1       3.988  -2.336  -3.294  0.00  0.00    +0.195 A 
ATOM     29  O   UNL     1       3.497  -2.243  -2.047  0.00  0.00    -0.466 OA
ENDBRANCH  18  25
ENDBRANCH   1  18
TORSDOF 5
