REMARK  Name = ZINC12498252
REMARK  8 active torsions:
REMARK  status: ('A' for Active; 'I' for Inactive)
REMARK    1  A    between atoms: C_1  and  C_2
REMARK    2  A    between atoms: C_2  and  C_4
REMARK    3  A    between atoms: C_8  and  N_10
REMARK    4  A    between atoms: C_15  and  C_32
REMARK    5  A    between atoms: C_17  and  C_22
REMARK    6  A    between atoms: C_17  and  C_28
REMARK    7  A    between atoms: C_28  and  O_30
REMARK    8  A    between atoms: O_30  and  C_31
REMARK                            x       y       z     vdW  Elec       q    Type
REMARK                         _______ _______ _______ _____ _____    ______ ____
ROOT
ATOM      1  N   UNL     1       1.283   3.553  -0.058  0.00  0.00    -0.210 N 
ATOM      2  C   UNL     1       2.376   4.379  -0.042  0.00  0.00    +0.229 C 
ATOM      3  O   UNL     1       3.524   4.076   0.205  0.00  0.00    -0.275 OA
ATOM      4  C   UNL     1       1.855   5.720  -0.395  0.00  0.00    +0.078 C 
ATOM      5  C   UNL     1       2.302   7.037   0.194  0.00  0.00    -0.019 C 
ATOM      6  C   UNL     1      -0.114   6.944   0.082  0.00  0.00    +0.070 C 
ATOM      7  C   UNL     1       0.470   5.606   0.356  0.00  0.00    +0.090 C 
ATOM      8  C   UNL     1       0.099   4.246  -0.029  0.00  0.00    +0.229 C 
ATOM      9  O   UNL     1      -1.011   3.823  -0.270  0.00  0.00    -0.275 OA
ATOM     10  N   UNL     1       1.061   7.862   0.087  0.00  0.00    +0.398 N 
ATOM     11  H   UNL     1       1.080   8.406  -0.783  0.00  0.00    -0.083 HD
ATOM     12  H   UNL     1       0.999   8.500   0.889  0.00  0.00    -0.083 HD
ENDROOT
BRANCH   1  17
ATOM     13  C   UNL     1       2.680   0.138  -0.157  0.00  0.00    +0.019 A 
ATOM     14  C   UNL     1       1.505  -0.621  -0.165  0.00  0.00    +0.011 A 
ATOM     15  C   UNL     1       0.278   0.009  -0.137  0.00  0.00    +0.003 A 
ATOM     16  C   UNL     1       0.204   1.390  -0.102  0.00  0.00    +0.024 A 
ATOM     17  C   UNL     1       1.365   2.153  -0.094  0.00  0.00    +0.045 A 
ATOM     18  C   UNL     1       2.603   1.533  -0.121  0.00  0.00    +0.035 A 
BRANCH  13  20
ATOM     19  C   UNL     1       4.070  -2.034  -0.225  0.00  0.00    +0.091 C 
ATOM     20  C   UNL     1       3.991  -0.529  -0.187  0.00  0.00    +0.160 C 
ATOM     21  O   UNL     1       5.008   0.131  -0.180  0.00  0.00    -0.292 OA
ENDBRANCH  13  20
ENDBRANCH   1  17
BRANCH   6  22
ATOM     22  C   UNL     1      -0.791   6.957  -1.264  0.00  0.00    -0.047 A 
ATOM     23  C   UNL     1      -2.112   6.565  -1.377  0.00  0.00    +0.003 A 
ATOM     24  C   UNL     1      -2.734   6.582  -2.612  0.00  0.00    +0.000 A 
ATOM     25  C   UNL     1      -2.033   6.980  -3.734  0.00  0.00    +0.000 A 
ATOM     26  C   UNL     1      -0.710   7.367  -3.622  0.00  0.00    +0.000 A 
ATOM     27  C   UNL     1      -0.089   7.354  -2.387  0.00  0.00    +0.003 A 
ENDBRANCH   6  22
BRANCH   5  28
ATOM     28  C   UNL     1       3.424   7.633  -0.616  0.00  0.00    -0.023 A 
ATOM     29  C   UNL     1       4.757   7.616  -0.372  0.00  0.00    +0.009 A 
ATOM     30  C   UNL     1       5.610   8.236  -1.265  0.00  0.00    +0.008 A 
ATOM     31  C   UNL     1       5.090   8.842  -2.359  0.00  0.00    +0.045 A 
ATOM     32  S   UNL     1       3.342   8.540  -2.152  0.00  0.00    -0.103 S 
ENDBRANCH   5  28
BRANCH   6  33
ATOM     33  C   UNL     1      -1.090   7.323   1.166  0.00  0.00    +0.301 C 
ATOM     34  O   UNL     1      -1.639   6.462   1.812  0.00  0.00    -0.252 OA
BRANCH  33  35
ATOM     35  O   UNL     1      -1.349   8.616   1.414  0.00  0.00    -0.469 OA
ATOM     36  C   UNL     1      -2.299   8.908   2.473  0.00  0.00    +0.280 C 
ENDBRANCH  33  35
ENDBRANCH   6  33
TORSDOF 6
