REMARK  Name = ZINC49966014
REMARK  5 active torsions:
REMARK  status: ('A' for Active; 'I' for Inactive)
REMARK    1  A    between atoms: C_1  and  C_2
REMARK    2  A    between atoms: C_4  and  C_20
REMARK    3  A    between atoms: C_7  and  C_8
REMARK    4  A    between atoms: N_11  and  C_12
REMARK    5  A    between atoms: N_11  and  C_13
REMARK                            x       y       z     vdW  Elec       q    Type
REMARK                         _______ _______ _______ _____ _____    ______ ____
ROOT
ATOM      1  C   UNL     1       0.565   1.532   0.057  0.00  0.00    +0.045 C 
ATOM      2  C   UNL     1       0.465   0.029   0.033  0.00  0.00    -0.031 A 
ATOM      3  C   UNL     1       0.428  -0.660  -1.166  0.00  0.00    +0.025 A 
ATOM      4  C   UNL     1       0.337  -2.041  -1.157  0.00  0.00    +0.015 A 
ATOM      5  N   UNL     1       0.284  -2.716  -0.026  0.00  0.00    -0.346 N 
ATOM      6  C   UNL     1       0.315  -2.109   1.151  0.00  0.00    +0.118 A 
ATOM      7  C   UNL     1       0.413  -0.707   1.224  0.00  0.00    +0.104 A 
ATOM      8  N   UNL     1       0.257  -2.856   2.312  0.00  0.00    -0.289 N 
ATOM      9  C   UNL     1       1.493  -3.247   2.994  0.00  0.00    +0.137 C 
ATOM     10  C   UNL     1       0.296  -2.787  -2.466  0.00  0.00    +0.063 C 
ATOM     11  H   UNL     1       0.219  -3.683  -0.057  0.00  0.00    +0.167 HD
ENDROOT
BRANCH   8  12
ATOM     12  C   UNL     1      -0.982  -3.240   2.835  0.00  0.00    +0.035 A 
ATOM     13  C   UNL     1      -2.147  -2.981   2.125  0.00  0.00    +0.026 A 
ATOM     14  C   UNL     1      -3.370  -3.361   2.643  0.00  0.00    +0.040 A 
ATOM     15  C   UNL     1      -3.434  -4.000   3.870  0.00  0.00    +0.124 A 
ATOM     16  C   UNL     1      -2.274  -4.260   4.579  0.00  0.00    +0.040 A 
ATOM     17  C   UNL     1      -1.049  -3.887   4.062  0.00  0.00    +0.026 A 
ATOM     18  F   UNL     1      -4.631  -4.371   4.375  0.00  0.00    -0.205 F 
ENDBRANCH   8  12
BRANCH   7  19
ATOM     19  C   UNL     1       0.455  -0.027   2.527  0.00  0.00    +0.390 C 
ATOM     20  O   UNL     1      -0.586   0.245   3.109  0.00  0.00    -0.240 OA
ATOM     21  O   UNL     1       1.532   0.268   3.029  0.00  0.00    -0.240 OA
ENDBRANCH   7  19
TORSDOF 2
