REMARK  Name = ZINC13201224
REMARK  9 active torsions:
REMARK  status: ('A' for Active; 'I' for Inactive)
REMARK    1  A    between atoms: C_1  and  C_2
REMARK    2  A    between atoms: C_2  and  N_3
REMARK    3  A    between atoms: C_9  and  C_27
REMARK    4  A    between atoms: C_13  and  S_14
REMARK    5  A    between atoms: S_14  and  C_15
REMARK    6  A    between atoms: C_15  and  C_16
REMARK    7  A    between atoms: N_18  and  C_19
REMARK    8  A    between atoms: C_21  and  C_26
REMARK    9  A    between atoms: C_24  and  C_25
REMARK                            x       y       z     vdW  Elec       q    Type
REMARK                         _______ _______ _______ _____ _____    ______ ____
ROOT
ATOM      1  N   UNL     1      -1.189  -0.672  -0.020  0.00  0.00    -0.288 N 
ATOM      2  C   UNL     1      -1.219  -2.025  -0.044  0.00  0.00    +0.262 A 
ATOM      3  O   UNL     1      -2.273  -2.632  -0.041  0.00  0.00    -0.267 OA
ATOM      4  C   UNL     1       0.070  -2.735  -0.066  0.00  0.00    +0.065 A 
ATOM      5  C   UNL     1       0.139  -4.127  -0.085  0.00  0.00    +0.016 A 
ATOM      6  C   UNL     1       1.354  -4.748  -0.105  0.00  0.00    +0.016 A 
ATOM      7  C   UNL     1       2.538  -3.999  -0.107  0.00  0.00    +0.065 A 
ATOM      8  C   UNL     1       2.493  -2.611  -0.089  0.00  0.00    +0.043 A 
ATOM      9  C   UNL     1       1.254  -1.964  -0.068  0.00  0.00    +0.080 A 
ATOM     10  N   UNL     1       1.163  -0.613  -0.049  0.00  0.00    -0.223 NA
ATOM     11  C   UNL     1       0.003  -0.004  -0.029  0.00  0.00    +0.173 A 
ENDROOT
BRANCH   7  12
ATOM     12  C   UNL     1       3.845  -4.691  -0.129  0.00  0.00    +0.387 C 
ATOM     13  O   UNL     1       4.874  -4.046  -0.131  0.00  0.00    -0.241 OA
ATOM     14  O   UNL     1       3.895  -6.037  -0.147  0.00  0.00    -0.241 OA
ENDBRANCH   7  12
BRANCH   1  16
ATOM     15  C   UNL     1      -2.902   0.364  -1.424  0.00  0.00    +0.027 C 
ATOM     16  C   UNL     1      -2.444   0.082   0.008  0.00  0.00    +0.124 C 
ENDBRANCH   1  16
BRANCH  11  17
ATOM     17  S   UNL     1      -0.021   1.757  -0.005  0.00  0.00    -0.078 S 
BRANCH  17  18
ATOM     18  C   UNL     1       1.756   2.096  -0.019  0.00  0.00    +0.173 C 
BRANCH  18  19
ATOM     19  C   UNL     1       1.984   3.586  -0.001  0.00  0.00    +0.227 C 
ATOM     20  O   UNL     1       1.037   4.344   0.019  0.00  0.00    -0.275 OA
ATOM     21  N   UNL     1       3.240   4.076  -0.007  0.00  0.00    -0.285 N 
ATOM     22  H   UNL     1       3.996   3.472   0.058  0.00  0.00    +0.155 HD
BRANCH  21  23
ATOM     23  C   UNL     1       3.452   5.455  -0.107  0.00  0.00    +0.037 A 
ATOM     24  C   UNL     1       2.492   6.266  -0.700  0.00  0.00    +0.027 A 
ATOM     25  C   UNL     1       2.702   7.627  -0.792  0.00  0.00    -0.049 A 
ATOM     26  C   UNL     1       3.871   8.183  -0.306  0.00  0.00    +0.004 A 
ATOM     27  C   UNL     1       4.831   7.378   0.280  0.00  0.00    +0.005 A 
ATOM     28  C   UNL     1       4.625   6.016   0.380  0.00  0.00    -0.029 A 
ATOM     29  C   UNL     1       5.671   5.139   1.019  0.00  0.00    +0.045 C 
ATOM     30  C   UNL     1       1.659   8.508  -1.431  0.00  0.00    +0.044 C 
ENDBRANCH  21  23
ENDBRANCH  18  19
ENDBRANCH  17  18
ENDBRANCH  11  17
TORSDOF 6
