REMARK  Name = ZINC29930096
REMARK  11 active torsions:
REMARK  status: ('A' for Active; 'I' for Inactive)
REMARK    1  A    between atoms: C_1  and  N_2
REMARK    2  A    between atoms: N_2  and  C_3
REMARK    3  A    between atoms: N_2  and  C_4
REMARK    4  A    between atoms: C_4  and  C_6
REMARK    5  A    between atoms: C_4  and  C_28
REMARK    6  A    between atoms: C_6  and  N_7
REMARK    7  A    between atoms: C_8  and  C_10
REMARK    8  A    between atoms: C_10  and  C_11
REMARK    9  A    between atoms: C_11  and  S_12
REMARK   10  A    between atoms: S_12  and  C_13
REMARK   11  A    between atoms: C_13  and  C_14
REMARK                            x       y       z     vdW  Elec       q    Type
REMARK                         _______ _______ _______ _____ _____    ______ ____
ROOT
ATOM      1  C   UNL     1      -0.325  -4.672   2.040  0.00  0.00    +0.106 C 
ENDROOT
BRANCH   1   3
ATOM      2  N   UNL     1      -0.964  -2.611   0.830  0.00  0.00    -0.317 N 
ATOM      3  C   UNL     1      -1.054  -3.951   0.934  0.00  0.00    +0.214 C 
ATOM      4  O   UNL     1      -1.720  -4.578   0.139  0.00  0.00    -0.276 OA
ATOM      5  H   UNL     1      -0.430  -2.109   1.467  0.00  0.00    +0.149 HD
BRANCH   2   6
ATOM      6  C   UNL     1      -1.671  -1.911  -0.244  0.00  0.00    +0.093 C 
BRANCH   6   7
ATOM      7  C   UNL     1      -1.510  -0.400  -0.062  0.00  0.00    -0.020 C 
BRANCH   7   8
ATOM      8  C   UNL     1      -0.062  -0.024  -0.246  0.00  0.00    -0.041 A 
ATOM      9  C   UNL     1       0.770   0.082   0.852  0.00  0.00    +0.003 A 
ATOM     10  C   UNL     1       2.098   0.427   0.683  0.00  0.00    +0.000 A 
ATOM     11  C   UNL     1       2.595   0.666  -0.584  0.00  0.00    +0.001 A 
ATOM     12  C   UNL     1       1.764   0.560  -1.684  0.00  0.00    +0.020 A 
ATOM     13  C   UNL     1       0.436   0.210  -1.516  0.00  0.00    +0.043 A 
ATOM     14 CL   UNL     1      -0.607   0.071  -2.897  0.00  0.00    -0.083 Cl
ENDBRANCH   7   8
BRANCH   7  16
ATOM     15  C   UNL     1      -1.832   1.435   1.448  0.00  0.00    -0.096 C 
ATOM     16  N   UNL     1      -1.946  -0.020   1.288  0.00  0.00    +0.382 N 
ATOM     17  C   UNL     1      -3.344  -0.426   1.483  0.00  0.00    -0.096 C 
ATOM     18  H   UNL     1      -1.364  -0.480   1.972  0.00  0.00    -0.082 HD
ENDBRANCH   7  16
ENDBRANCH   6   7
ENDBRANCH   2   6
ENDBRANCH   1   3
BRANCH   1  19
ATOM     19  C   UNL     1      -0.592  -6.174   1.932  0.00  0.00    +0.079 C 
BRANCH  19  20
ATOM     20  S   UNL     1       0.284  -7.041   3.263  0.00  0.00    -0.153 S 
BRANCH  20  21
ATOM     21  C   UNL     1      -0.130  -8.787   2.996  0.00  0.00    +0.143 C 
BRANCH  21  22
ATOM     22  C   UNL     1       0.543  -9.630   4.049  0.00  0.00    +0.121 A 
ATOM     23  N   UNL     1       0.372 -10.977   4.034  0.00  0.00    -0.310 N 
ATOM     24  H   UNL     1      -0.181 -11.378   3.346  0.00  0.00    +0.170 HD
ATOM     25  C   UNL     1       0.955 -11.767   4.956  0.00  0.00    +0.260 A 
ATOM     26  O   UNL     1       0.793 -12.974   4.930  0.00  0.00    -0.267 OA
ATOM     27  C   UNL     1       1.771 -11.161   5.966  0.00  0.00    +0.075 A 
ATOM     28  C   UNL     1       2.498 -11.821   7.061  0.00  0.00    -0.023 A 
ATOM     29  C   UNL     1       3.199 -11.028   7.889  0.00  0.00    -0.004 A 
ATOM     30  S   UNL     1       2.945  -9.380   7.272  0.00  0.00    -0.073 S 
ATOM     31  C   UNL     1       1.889  -9.766   5.900  0.00  0.00    +0.116 A 
ATOM     32  N   UNL     1       1.286  -9.051   4.955  0.00  0.00    -0.226 NA
ATOM     33  C   UNL     1       3.895 -11.810   8.970  0.00  0.00    +0.043 C 
ATOM     34  C   UNL     1       3.188 -13.183   8.972  0.00  0.00    +0.010 C 
ATOM     35  C   UNL     1       2.670 -13.271   7.523  0.00  0.00    +0.037 C 
ENDBRANCH  21  22
ENDBRANCH  20  21
ENDBRANCH  19  20
ENDBRANCH   1  19
TORSDOF 9
