REMARK  Name = ZINC57176048
REMARK  4 active torsions:
REMARK  status: ('A' for Active; 'I' for Inactive)
REMARK    1  A    between atoms: C_1  and  C_2
REMARK    2  A    between atoms: C_2  and  C_3
REMARK    3  A    between atoms: C_3  and  N_4
REMARK    4  A    between atoms: C_14  and  C_17
REMARK                            x       y       z     vdW  Elec       q    Type
REMARK                         _______ _______ _______ _____ _____    ______ ____
ROOT
ATOM      1  N   UNL     1       0.762  -1.980   1.234  0.00  0.00    -0.266 NA
ATOM      2  C   UNL     1       1.640  -2.500   2.291  0.00  0.00    +0.130 C 
ATOM      3  C   UNL     1       1.497  -3.998   2.375  0.00  0.00    +0.051 A 
ATOM      4  C   UNL     1       0.412  -4.641   1.808  0.00  0.00    +0.130 A 
ATOM      5  C   UNL     1       0.287  -6.029   1.895  0.00  0.00    +0.047 A 
ATOM      6  C   UNL     1       1.236  -6.771   2.537  0.00  0.00    +0.019 A 
ATOM      7  C   UNL     1       2.337  -6.136   3.110  0.00  0.00    +0.065 A 
ATOM      8  C   UNL     1       2.471  -4.738   3.036  0.00  0.00    +0.146 A 
ATOM      9  O   UNL     1       3.527  -4.125   3.606  0.00  0.00    -0.462 OA
ATOM     10  C   UNL     1       4.612  -4.802   3.986  0.00  0.00    +0.208 A 
ATOM     11  C   UNL     1       4.627  -6.155   4.116  0.00  0.00    +0.067 A 
ATOM     12  C   UNL     1       3.391  -6.898   3.806  0.00  0.00    +0.200 A 
ATOM     13  O   UNL     1       3.249  -8.071   4.106  0.00  0.00    -0.286 OA
ATOM     14  O   UNL     1      -0.549  -3.936   1.155  0.00  0.00    -0.476 OA
ATOM     15  C   UNL     1      -0.596  -2.527   1.388  0.00  0.00    +0.318 C 
ENDROOT
BRANCH  11  16
ATOM     16  C   UNL     1       5.853  -6.864   4.557  0.00  0.00    +0.024 A 
ATOM     17  C   UNL     1       5.939  -7.373   5.851  0.00  0.00    +0.011 A 
ATOM     18  C   UNL     1       7.081  -8.033   6.257  0.00  0.00    +0.001 A 
ATOM     19  C   UNL     1       8.141  -8.191   5.381  0.00  0.00    +0.003 A 
ATOM     20  C   UNL     1       8.063  -7.688   4.095  0.00  0.00    +0.039 A 
ATOM     21  C   UNL     1       6.922  -7.030   3.676  0.00  0.00    +0.131 A 
ATOM     22  F   UNL     1       6.844  -6.544   2.418  0.00  0.00    -0.205 F 
ENDBRANCH  11  16
BRANCH   1  23
ATOM     23  C   UNL     1       0.742  -0.511   1.242  0.00  0.00    +0.087 C 
BRANCH  23  25
ATOM     24  C   UNL     1      -0.019   1.526   0.010  0.00  0.00    +0.005 C 
ATOM     25  C   UNL     1       0.002  -0.004   0.002  0.00  0.00    +0.012 C 
ENDBRANCH  23  25
ENDBRANCH   1  23
TORSDOF 3
