REMARK  Name = ZINC13739313
REMARK  2 active torsions:
REMARK  status: ('A' for Active; 'I' for Inactive)
REMARK    1  A    between atoms: C_4  and  C_7
REMARK    2  A    between atoms: C_10  and  N_12
REMARK                            x       y       z     vdW  Elec       q    Type
REMARK                         _______ _______ _______ _____ _____    ______ ____
ROOT
ATOM      1  C   UNL     1       3.698  -0.688  -0.038  0.00  0.00    +0.080 A 
ATOM      2  C   UNL     1       3.727  -2.056  -0.051  0.00  0.00    +0.077 A 
ATOM      3  S   UNL     1       5.490  -2.353  -0.068  0.00  0.00    -0.056 S 
ATOM      4  C   UNL     1       6.005  -0.641  -0.057  0.00  0.00    +0.194 A 
ATOM      5  N   UNL     1       4.837  -0.015  -0.047  0.00  0.00    -0.221 NA
ENDROOT
BRANCH   4   6
ATOM      6  N   UNL     1       7.263  -0.119  -0.062  0.00  0.00    -0.211 NA
ATOM      7  C   UNL     1       8.299  -0.913  -0.079  0.00  0.00    +0.098 C 
ATOM      8  C   UNL     1       9.710  -0.331  -0.078  0.00  0.00    +0.071 C 
ATOM      9  C   UNL     1      10.326  -0.644   1.268  0.00  0.00    +0.007 C 
ATOM     10  C   UNL     1      11.037  -1.998   1.311  0.00  0.00    +0.002 C 
ATOM     11  C   UNL     1      10.251  -3.110   0.615  0.00  0.00    +0.019 C 
ATOM     12  C   UNL     1       8.771  -3.078   0.926  0.00  0.00    +0.102 C 
ATOM     13  N   UNL     1       8.130  -2.217  -0.090  0.00  0.00    -0.332 N 
ATOM     14  H   UNL     1       7.576  -2.622  -0.775  0.00  0.00    +0.147 HD
ENDBRANCH   4   6
BRANCH   1  18
ATOM     15  C   UNL     1      -0.017   1.379   0.010  0.00  0.00    +0.000 A 
ATOM     16  C   UNL     1       1.169   2.092   0.002  0.00  0.00    +0.001 A 
ATOM     17  C   UNL     1       2.377   1.427  -0.013  0.00  0.00    +0.010 A 
ATOM     18  C   UNL     1       2.402   0.033  -0.021  0.00  0.00    +0.001 A 
ATOM     19  C   UNL     1       1.205  -0.680  -0.013  0.00  0.00    +0.010 A 
ATOM     20  C   UNL     1       0.002  -0.004   0.002  0.00  0.00    +0.001 A 
ENDBRANCH   1  18
TORSDOF 2
