REMARK  Name = ZINC64520859
REMARK  12 active torsions:
REMARK  status: ('A' for Active; 'I' for Inactive)
REMARK    1  A    between atoms: C_1  and  C_2
REMARK    2  A    between atoms: C_4  and  S_9
REMARK    3  A    between atoms: C_5  and  C_8
REMARK    4  A    between atoms: S_9  and  N_12
REMARK    5  A    between atoms: C_15  and  C_18
REMARK    6  A    between atoms: C_18  and  C_20
REMARK    7  A    between atoms: C_18  and  C_21
REMARK    8  A    between atoms: N_23  and  C_24
REMARK    9  A    between atoms: C_24  and  C_25
REMARK   10  A    between atoms: C_25  and  C_26
REMARK   11  A    between atoms: C_29  and  O_35
REMARK   12  A    between atoms: O_35  and  C_36
REMARK                            x       y       z     vdW  Elec       q    Type
REMARK                         _______ _______ _______ _____ _____    ______ ____
ROOT
ATOM      1  C   UNL     1       0.815   4.511  -6.088  0.00  0.00    +0.075 C 
ATOM      2  C   UNL     1       2.195   4.973  -6.561  0.00  0.00    +0.017 C 
ENDROOT
BRANCH   1   6
ATOM      3  N   UNL     1       0.692   1.342  -3.251  0.00  0.00    -0.177 NA
ATOM      4  C   UNL     1      -0.267   2.433  -3.032  0.00  0.00    +0.110 C 
ATOM      5  C   UNL     1      -0.416   3.227  -4.334  0.00  0.00    +0.021 C 
ATOM      6  C   UNL     1       0.964   3.688  -4.807  0.00  0.00    +0.003 C 
ATOM      7  C   UNL     1       1.845   2.468  -5.084  0.00  0.00    +0.021 C 
ATOM      8  C   UNL     1       2.022   1.666  -3.785  0.00  0.00    +0.110 C 
BRANCH   3   9
ATOM      9  S   UNL     1       0.284  -0.224  -2.897  0.00  0.00    +0.061 S 
ATOM     10  O   UNL     1       1.123  -1.052  -3.691  0.00  0.00    -0.153 OA
ATOM     11  O   UNL     1      -1.134  -0.297  -2.954  0.00  0.00    -0.153 OA
BRANCH   9  14
ATOM     12  C   UNL     1      -0.019   1.526   0.010  0.00  0.00    +0.047 C 
ATOM     13  C   UNL     1       0.002  -0.004   0.002  0.00  0.00    +0.196 C 
ATOM     14  C   UNL     1       0.735  -0.512  -1.218  0.00  0.00    +0.134 C 
ATOM     15  C   UNL     1       1.772  -1.208  -0.801  0.00  0.00    +0.061 C 
ATOM     16  N   UNL     1       1.832  -1.235   0.581  0.00  0.00    -0.268 N 
ATOM     17  O   UNL     1       0.748  -0.498   1.124  0.00  0.00    -0.265 OA
ATOM     18  C   UNL     1       2.763  -1.888  -1.710  0.00  0.00    +0.067 C 
ATOM     19  H   UNL     1       2.513  -1.690   1.100  0.00  0.00    +0.194 HD
ENDBRANCH   9  14
ENDBRANCH   3   9
ENDBRANCH   1   6
BRANCH   1  20
ATOM     20  C   UNL     1      -0.051   5.714  -5.816  0.00  0.00    +0.216 C 
ATOM     21  O   UNL     1      -0.504   5.895  -4.705  0.00  0.00    -0.276 OA
ATOM     22  N   UNL     1      -0.322   6.588  -6.805  0.00  0.00    -0.315 N 
ATOM     23  H   UNL     1       0.041   6.442  -7.693  0.00  0.00    +0.149 HD
BRANCH  22  24
ATOM     24  C   UNL     1      -1.163   7.757  -6.540  0.00  0.00    +0.108 C 
BRANCH  24  25
ATOM     25  C   UNL     1      -1.312   8.579  -7.822  0.00  0.00    +0.052 C 
BRANCH  25  26
ATOM     26  C   UNL     1      -2.178   9.782  -7.549  0.00  0.00    -0.040 C 
ATOM     27  C   UNL     1      -1.761  11.029  -7.233  0.00  0.00    +0.002 A 
ATOM     28  C   UNL     1      -0.430  11.618  -7.054  0.00  0.00    +0.055 A 
ATOM     29  C   UNL     1      -0.318  12.928  -6.729  0.00  0.00    +0.121 A 
ATOM     30  C   UNL     1      -1.440  13.757  -6.555  0.00  0.00    +0.047 A 
ATOM     31  C   UNL     1      -2.705  13.307  -6.697  0.00  0.00    +0.029 A 
ATOM     32  C   UNL     1      -2.943  11.903  -7.048  0.00  0.00    +0.043 A 
ATOM     33  N   UNL     1      -4.046  11.223  -7.243  0.00  0.00    -0.380 N 
ATOM     34  C   UNL     1      -3.689   9.841  -7.580  0.00  0.00    +0.144 C 
ATOM     35  H   UNL     1      -4.947  11.576  -7.179  0.00  0.00    +0.160 HD
BRANCH  29  36
ATOM     36  O   UNL     1       0.922  13.460  -6.566  0.00  0.00    -0.495 OA
ATOM     37  C   UNL     1       0.994  14.846  -6.224  0.00  0.00    +0.277 C 
ENDBRANCH  29  36
ENDBRANCH  25  26
ENDBRANCH  24  25
ENDBRANCH  22  24
ENDBRANCH   1  20
TORSDOF 8
