REMARK  Name = ZINC09250795
REMARK  10 active torsions:
REMARK  status: ('A' for Active; 'I' for Inactive)
REMARK    1  A    between atoms: C_1  and  C_2
REMARK    2  A    between atoms: C_2  and  C_3
REMARK    3  A    between atoms: C_3  and  C_4
REMARK    4  A    between atoms: C_4  and  C_5
REMARK    5  A    between atoms: C_6  and  C_27
REMARK    6  A    between atoms: C_9  and  C_10
REMARK    7  A    between atoms: C_13  and  C_26
REMARK    8  A    between atoms: C_14  and  C_16
REMARK    9  A    between atoms: N_18  and  C_19
REMARK   10  A    between atoms: C_24  and  C_25
REMARK                            x       y       z     vdW  Elec       q    Type
REMARK                         _______ _______ _______ _____ _____    ______ ____
ROOT
ATOM      1  C   UNL     1      -0.760   1.602   1.211  0.00  0.00    -0.004 A 
ATOM      2  C   UNL     1      -1.787   0.934   1.889  0.00  0.00    +0.064 A 
ATOM      3  N   UNL     1      -2.139   1.657   2.920  0.00  0.00    -0.169 NA
ATOM      4  N   UNL     1      -1.348   2.814   2.936  0.00  0.00    -0.212 N 
ATOM      5  C   UNL     1      -0.502   2.753   1.873  0.00  0.00    +0.047 A 
ATOM      6  C   UNL     1       0.533   3.782   1.500  0.00  0.00    +0.066 C 
ATOM      7  C   UNL     1      -1.414   3.838   3.873  0.00  0.00    +0.195 A 
ATOM      8  N   UNL     1      -2.212   3.951   4.922  0.00  0.00    -0.226 NA
ATOM      9  C   UNL     1      -2.151   4.982   5.723  0.00  0.00    +0.060 A 
ATOM     10  C   UNL     1      -1.223   5.972   5.431  0.00  0.00    +0.099 A 
ATOM     11  S   UNL     1      -0.473   5.295   3.958  0.00  0.00    -0.043 S 
ATOM     12  C   UNL     1      -3.062   5.095   6.918  0.00  0.00    +0.067 C 
ATOM     13  C   UNL     1      -2.385  -0.393   1.497  0.00  0.00    +0.068 C 
ENDROOT
BRANCH  10  14
ATOM     14  C   UNL     1      -0.938   7.224   6.136  0.00  0.00    +0.257 C 
ATOM     15  O   UNL     1      -1.565   7.515   7.138  0.00  0.00    -0.269 OA
ATOM     16  N   UNL     1       0.020   8.053   5.676  0.00  0.00    -0.281 N 
ATOM     17  H   UNL     1       0.574   7.785   4.926  0.00  0.00    +0.155 HD
BRANCH  16  18
ATOM     18  C   UNL     1       0.214   9.300   6.279  0.00  0.00    +0.037 A 
ATOM     19  C   UNL     1      -0.829   9.913   6.961  0.00  0.00    +0.023 A 
ATOM     20  C   UNL     1      -0.633  11.141   7.560  0.00  0.00    +0.002 A 
ATOM     21  C   UNL     1       0.598  11.766   7.472  0.00  0.00    +0.000 A 
ATOM     22  C   UNL     1       1.637  11.161   6.789  0.00  0.00    +0.005 A 
ATOM     23  C   UNL     1       1.448   9.930   6.192  0.00  0.00    -0.029 A 
ATOM     24  C   UNL     1       2.581   9.271   5.447  0.00  0.00    +0.045 C 
ENDBRANCH  16  18
ENDBRANCH  10  14
BRANCH   1  25
ATOM     25  C   UNL     1      -0.061   1.121  -0.034  0.00  0.00    +0.039 C 
BRANCH  25  26
ATOM     26  C   UNL     1      -0.803   1.638  -1.268  0.00  0.00    +0.004 C 
BRANCH  26  28
ATOM     27  C   UNL     1      -0.835   1.667  -3.766  0.00  0.00    +0.004 C 
ATOM     28  C   UNL     1      -0.093   1.149  -2.532  0.00  0.00    -0.003 C 
ENDBRANCH  26  28
ENDBRANCH  25  26
ENDBRANCH   1  25
TORSDOF 5
