REMARK  Name = ZINC43207969
REMARK  10 active torsions:
REMARK  status: ('A' for Active; 'I' for Inactive)
REMARK    1  A    between atoms: C_4  and  C_7
REMARK    2  A    between atoms: C_7  and  N_10
REMARK    3  A    between atoms: C_11  and  C_13
REMARK    4  A    between atoms: C_16  and  C_19
REMARK    5  A    between atoms: C_19  and  N_20
REMARK    6  A    between atoms: N_20  and  C_21
REMARK    7  A    between atoms: N_20  and  S_28
REMARK    8  A    between atoms: C_21  and  C_22
REMARK    9  A    between atoms: S_28  and  C_31
REMARK   10  A    between atoms: C_34  and  C_37
REMARK                            x       y       z     vdW  Elec       q    Type
REMARK                         _______ _______ _______ _____ _____    ______ ____
ROOT
ATOM      1  C   UNL     1       9.487   4.889  -0.845  0.00  0.00    +0.145 C 
ENDROOT
BRANCH   1   5
ATOM      2  C   UNL     1       5.778   3.123   0.342  0.00  0.00    +0.037 A 
ATOM      3  C   UNL     1       6.735   2.359  -0.328  0.00  0.00    +0.013 A 
ATOM      4  C   UNL     1       7.929   2.935  -0.709  0.00  0.00    +0.006 A 
ATOM      5  C   UNL     1       8.180   4.266  -0.427  0.00  0.00    -0.032 A 
ATOM      6  C   UNL     1       7.236   5.029   0.238  0.00  0.00    +0.006 A 
ATOM      7  C   UNL     1       6.034   4.467   0.618  0.00  0.00    +0.013 A 
BRANCH   2   9
ATOM      8  N   UNL     1       4.250   1.215   0.484  0.00  0.00    -0.302 N 
ATOM      9  C   UNL     1       4.495   2.513   0.752  0.00  0.00    +0.245 C 
ATOM     10  O   UNL     1       3.661   3.181   1.331  0.00  0.00    -0.270 OA
ATOM     11  H   UNL     1       4.942   0.663   0.086  0.00  0.00    +0.150 HD
BRANCH   8  12
ATOM     12  C   UNL     1       2.940   0.637   0.793  0.00  0.00    +0.060 C 
ATOM     13  C   UNL     1       2.673   0.224   2.242  0.00  0.00    +0.033 C 
ATOM     14  C   UNL     1       2.892  -0.845   1.170  0.00  0.00    +0.033 C 
BRANCH  12  18
ATOM     15  C   UNL     1      -0.341   2.213  -1.444  0.00  0.00    +0.000 A 
ATOM     16  C   UNL     1      -0.569   1.568  -0.242  0.00  0.00    +0.000 A 
ATOM     17  C   UNL     1       0.492   1.058   0.481  0.00  0.00    +0.006 A 
ATOM     18  C   UNL     1       1.782   1.192   0.004  0.00  0.00    -0.024 A 
ATOM     19  C   UNL     1       2.011   1.836  -1.198  0.00  0.00    +0.006 A 
ATOM     20  C   UNL     1       0.949   2.348  -1.921  0.00  0.00    +0.000 A 
ENDBRANCH  12  18
ENDBRANCH   8  12
ENDBRANCH   2   9
ENDBRANCH   1   5
BRANCH   1  21
ATOM     21  N   UNL     1       9.327   5.529  -2.153  0.00  0.00    -0.166 NA
BRANCH  21  22
ATOM     22  S   UNL     1       9.796   4.733  -3.527  0.00  0.00    +0.061 S 
ATOM     23  O   UNL     1      10.184   5.730  -4.462  0.00  0.00    -0.153 OA
ATOM     24  O   UNL     1      10.671   3.692  -3.115  0.00  0.00    -0.153 OA
BRANCH  22  25
ATOM     25  C   UNL     1       8.362   3.952  -4.191  0.00  0.00    +0.106 A 
ATOM     26  C   UNL     1       8.061   2.649  -3.836  0.00  0.00    +0.030 A 
ATOM     27  C   UNL     1       6.940   2.032  -4.352  0.00  0.00    +0.021 A 
ATOM     28  C   UNL     1       6.109   2.725  -5.234  0.00  0.00    +0.052 A 
ATOM     29  C   UNL     1       6.419   4.040  -5.588  0.00  0.00    +0.021 A 
ATOM     30  C   UNL     1       7.540   4.646  -5.061  0.00  0.00    +0.030 A 
BRANCH  28  31
ATOM     31  C   UNL     1       4.945   2.090  -5.774  0.00  0.00    +0.099 C 
ATOM     32  N   UNL     1       4.021   1.587  -6.203  0.00  0.00    -0.191 NA
ENDBRANCH  28  31
ENDBRANCH  22  25
ENDBRANCH  21  22
BRANCH  21  33
ATOM     33  C   UNL     1       8.753   6.873  -2.245  0.00  0.00    +0.165 C 
BRANCH  33  34
ATOM     34  C   UNL     1       9.838   7.899  -2.037  0.00  0.00    +0.057 A 
ATOM     35  C   UNL     1      10.470   8.455  -3.133  0.00  0.00    +0.025 A 
ATOM     36  C   UNL     1      11.467   9.398  -2.930  0.00  0.00    +0.003 A 
ATOM     37  C   UNL     1      11.791   9.746  -1.628  0.00  0.00    +0.020 A 
ATOM     38  C   UNL     1      11.115   9.147  -0.582  0.00  0.00    +0.111 A 
ATOM     39  N   UNL     1      10.168   8.258  -0.812  0.00  0.00    -0.259 NA
ENDBRANCH  33  34
ENDBRANCH  21  33
ENDBRANCH   1  21
TORSDOF 10
