REMARK  Name = ZINC09337854
REMARK  6 active torsions:
REMARK  status: ('A' for Active; 'I' for Inactive)
REMARK    1  A    between atoms: C_1  and  C_2
REMARK    2  A    between atoms: C_13  and  C_15
REMARK    3  A    between atoms: C_15  and  O_16
REMARK    4  A    between atoms: O_16  and  C_17
REMARK    5  A    between atoms: C_17  and  C_19
REMARK    6  A    between atoms: C_23  and  N_25
REMARK                            x       y       z     vdW  Elec       q    Type
REMARK                         _______ _______ _______ _____ _____    ______ ____
ROOT
ATOM      1  O   UNL     1      -2.249   1.043   0.681  0.00  0.00    -0.452 OA
ENDROOT
BRANCH   1   2
ATOM      2  C   UNL     1      -3.531   1.375   0.439  0.00  0.00    +0.340 C 
ATOM      3  O   UNL     1      -3.792   2.421  -0.122  0.00  0.00    -0.245 OA
BRANCH   2   4
ATOM      4  C   UNL     1      -4.621   0.468   0.854  0.00  0.00    +0.061 A 
ATOM      5  C   UNL     1      -4.324  -0.737   1.494  0.00  0.00    +0.015 A 
ATOM      6  C   UNL     1      -5.343  -1.580   1.885  0.00  0.00    +0.003 A 
ATOM      7  C   UNL     1      -6.661  -1.241   1.637  0.00  0.00    +0.023 A 
ATOM      8  C   UNL     1      -6.967  -0.046   0.996  0.00  0.00    +0.036 A 
ATOM      9  C   UNL     1      -5.950   0.810   0.603  0.00  0.00    +0.038 A 
BRANCH   8  10
ATOM     10  N   UNL     1      -8.302   0.292   0.747  0.00  0.00    -0.270 N 
ATOM     11  C   UNL     1      -8.612   1.092  -0.292  0.00  0.00    +0.301 C 
ATOM     12  O   UNL     1      -7.744   1.446  -1.067  0.00  0.00    -0.253 OA
ATOM     13  N   UNL     1      -9.884   1.499  -0.473  0.00  0.00    -0.313 N 
ATOM     14  H   UNL     1      -9.004  -0.049   1.323  0.00  0.00    +0.156 HD
ATOM     15  H   UNL     1     -10.576   1.216   0.144  0.00  0.00    +0.146 HD
ATOM     16  H   UNL     1     -10.107   2.075  -1.222  0.00  0.00    +0.146 HD
ENDBRANCH   8  10
ENDBRANCH   2   4
ENDBRANCH   1   2
BRANCH   1  17
ATOM     17  C   UNL     1      -1.230   1.982   0.246  0.00  0.00    +0.328 C 
BRANCH  17  29
ATOM     18  C   UNL     1      -0.241   4.028  -0.132  0.00  0.00    +0.028 C 
ATOM     19  C   UNL     1       1.140   3.432  -0.413  0.00  0.00    +0.079 C 
ATOM     20  C   UNL     1       2.226   4.316   0.213  0.00  0.00    +0.027 C 
ATOM     21  C   UNL     1       3.597   3.740  -0.141  0.00  0.00    +0.039 C 
ATOM     22  C   UNL     1       3.658   2.275   0.200  0.00  0.00    -0.026 A 
ATOM     23  C   UNL     1       4.896   1.676   0.364  0.00  0.00    +0.005 A 
ATOM     24  C   UNL     1       4.984   0.333   0.675  0.00  0.00    +0.000 A 
ATOM     25  C   UNL     1       3.836  -0.423   0.824  0.00  0.00    +0.002 A 
ATOM     26  C   UNL     1       2.598   0.167   0.663  0.00  0.00    +0.024 A 
ATOM     27  C   UNL     1       2.507   1.521   0.357  0.00  0.00    +0.040 A 
ATOM     28  N   UNL     1       1.240   2.099   0.197  0.00  0.00    -0.266 N 
ATOM     29  C   UNL     1       0.133   1.445   0.600  0.00  0.00    +0.258 C 
ATOM     30  O   UNL     1       0.233   0.422   1.244  0.00  0.00    -0.272 OA
ENDBRANCH  17  29
ENDBRANCH   1  17
TORSDOF 5
