REMARK  Name = ZINC19959819
REMARK  3 active torsions:
REMARK  status: ('A' for Active; 'I' for Inactive)
REMARK    1  A    between atoms: C_1  and  C_2
REMARK    2  A    between atoms: C_7  and  C_19
REMARK    3  A    between atoms: C_12  and  C_14
REMARK                            x       y       z     vdW  Elec       q    Type
REMARK                         _______ _______ _______ _____ _____    ______ ____
ROOT
ATOM      1  C   UNL     1      -3.536   0.624   5.176  0.00  0.00    +0.008 C 
ATOM      2  C   UNL     1      -2.814   0.434   3.841  0.00  0.00    -0.001 C 
ATOM      3  C   UNL     1      -3.827   0.483   2.695  0.00  0.00    +0.055 C 
ATOM      4  C   UNL     1      -3.120   0.250   1.381  0.00  0.00    +0.020 C 
ATOM      5  C   UNL     1      -2.018  -0.527   1.313  0.00  0.00    +0.041 C 
ATOM      6  C   UNL     1      -1.290  -0.779   0.011  0.00  0.00    +0.176 C 
ATOM      7  N   UNL     1      -2.116  -0.355  -1.113  0.00  0.00    -0.220 N 
ATOM      8  C   UNL     1      -3.221   0.419  -0.977  0.00  0.00    +0.219 A 
ATOM      9  N   UNL     1      -3.719   0.622  -2.165  0.00  0.00    -0.189 NA
ATOM     10  C   UNL     1      -2.970  -0.005  -3.078  0.00  0.00    +0.256 A 
ATOM     11  N   UNL     1      -1.980  -0.617  -2.475  0.00  0.00    -0.143 NA
ATOM     12  N   UNL     1      -3.649   0.856   0.266  0.00  0.00    -0.287 N 
ATOM     13  C   UNL     1      -1.496  -1.140   2.466  0.00  0.00    +0.163 C 
ATOM     14  O   UNL     1      -0.515  -1.850   2.369  0.00  0.00    -0.292 OA
ATOM     15  C   UNL     1      -2.125  -0.935   3.816  0.00  0.00    +0.083 C 
ATOM     16  H   UNL     1      -4.390   1.662   0.377  0.00  0.00    +0.155 HD
ENDROOT
BRANCH   6  17
ATOM     17  C   UNL     1       0.002  -0.004   0.002  0.00  0.00    -0.011 A 
ATOM     18  C   UNL     1      -0.004   1.339   0.223  0.00  0.00    +0.006 A 
ATOM     19  C   UNL     1       1.181   2.072   0.219  0.00  0.00    +0.001 A 
ATOM     20  C   UNL     1       2.379   1.467  -0.005  0.00  0.00    +0.008 A 
ATOM     21  C   UNL     1       2.425   0.082  -0.237  0.00  0.00    -0.018 A 
ATOM     22  C   UNL     1       1.220  -0.664  -0.234  0.00  0.00    -0.012 A 
ATOM     23  C   UNL     1       1.266  -2.050  -0.465  0.00  0.00    +0.009 A 
ATOM     24  C   UNL     1       2.465  -2.655  -0.688  0.00  0.00    +0.001 A 
ATOM     25  C   UNL     1       3.650  -1.921  -0.693  0.00  0.00    +0.001 A 
ATOM     26  C   UNL     1       3.643  -0.579  -0.472  0.00  0.00    +0.008 A 
ENDBRANCH   6  17
BRANCH  10  27
ATOM     27  C   UNL     1      -3.225  -0.010  -4.563  0.00  0.00    +0.454 C 
ATOM     28  F   UNL     1      -4.139   1.000  -4.883  0.00  0.00    -0.163 F 
ATOM     29  F   UNL     1      -2.024   0.217  -5.243  0.00  0.00    -0.163 F 
ATOM     30  F   UNL     1      -3.749  -1.250  -4.943  0.00  0.00    -0.163 F 
ENDBRANCH  10  27
TORSDOF 2
