REMARK  Name = ZINC36540909
REMARK  13 active torsions:
REMARK  status: ('A' for Active; 'I' for Inactive)
REMARK    1  A    between atoms: C_1  and  C_2
REMARK    2  A    between atoms: C_2  and  C_3
REMARK    3  A    between atoms: C_3  and  C_4
REMARK    4  A    between atoms: C_3  and  C_6
REMARK    5  A    between atoms: C_4  and  C_5
REMARK    6  A    between atoms: C_6  and  C_8
REMARK    7  A    between atoms: C_6  and  N_22
REMARK    8  A    between atoms: N_10  and  C_11
REMARK    9  A    between atoms: C_11  and  S_12
REMARK   10  A    between atoms: S_12  and  C_15
REMARK   11  A    between atoms: C_18  and  C_21
REMARK   12  A    between atoms: N_22  and  C_23
REMARK   13  A    between atoms: C_30  and  C_32
REMARK                            x       y       z     vdW  Elec       q    Type
REMARK                         _______ _______ _______ _____ _____    ______ ____
ROOT
ATOM      1  C   UNL     1      -1.796  -0.417   0.390  0.00  0.00    +0.170 C 
ENDROOT
BRANCH   1   2
ATOM      2  C   UNL     1      -2.179   0.961  -0.084  0.00  0.00    +0.235 C 
ATOM      3  O   UNL     1      -3.259   1.426   0.212  0.00  0.00    -0.274 OA
ATOM      4  N   UNL     1      -1.320   1.678  -0.836  0.00  0.00    -0.295 N 
ATOM      5  H   UNL     1      -0.487   1.280  -1.133  0.00  0.00    +0.150 HD
BRANCH   4   6
ATOM      6  C   UNL     1      -1.645   3.058  -1.204  0.00  0.00    +0.278 C 
BRANCH   6   7
ATOM      7  S   UNL     1      -0.879   4.197  -0.017  0.00  0.00    +0.013 S 
ATOM      8  O   UNL     1      -1.132   5.543  -0.396  0.00  0.00    -0.168 OA
ATOM      9  O   UNL     1      -1.128   3.759   1.312  0.00  0.00    -0.168 OA
BRANCH   7  10
ATOM     10  C   UNL     1       0.856   3.985  -0.241  0.00  0.00    +0.090 A 
ATOM     11  C   UNL     1       1.537   3.034   0.494  0.00  0.00    +0.027 A 
ATOM     12  C   UNL     1       2.898   2.868   0.318  0.00  0.00    +0.005 A 
ATOM     13  C   UNL     1       3.578   3.653  -0.594  0.00  0.00    -0.050 A 
ATOM     14  C   UNL     1       2.896   4.604  -1.331  0.00  0.00    +0.005 A 
ATOM     15  C   UNL     1       1.535   4.767  -1.158  0.00  0.00    +0.027 A 
ATOM     16  C   UNL     1       5.062   3.473  -0.786  0.00  0.00    +0.044 C 
ENDBRANCH   7  10
ENDBRANCH   6   7
ENDBRANCH   4   6
ENDBRANCH   1   2
BRANCH   1  17
ATOM     17  N   UNL     1      -2.881  -0.974   1.201  0.00  0.00    -0.258 N 
ATOM     18  C   UNL     1      -2.664  -2.068   1.957  0.00  0.00    +0.224 C 
ATOM     19  O   UNL     1      -1.545  -2.525   2.056  0.00  0.00    -0.275 OA
BRANCH  17  20
ATOM     20  C   UNL     1      -4.144  -0.369   1.192  0.00  0.00    +0.055 A 
ATOM     21  C   UNL     1      -5.119  -0.809   0.307  0.00  0.00    +0.025 A 
ATOM     22  C   UNL     1      -6.364  -0.210   0.300  0.00  0.00    +0.002 A 
ATOM     23  C   UNL     1      -6.639   0.827   1.172  0.00  0.00    +0.002 A 
ATOM     24  C   UNL     1      -5.670   1.269   2.054  0.00  0.00    +0.022 A 
ATOM     25  C   UNL     1      -4.425   0.670   2.071  0.00  0.00    +0.062 A 
ATOM     26 CL   UNL     1      -3.211   1.219   3.184  0.00  0.00    -0.082 Cl
ENDBRANCH  17  20
BRANCH  18  27
ATOM     27  C   UNL     1      -3.813  -2.724   2.680  0.00  0.00    +0.076 C 
ATOM     28  C   UNL     1      -3.954  -2.112   4.075  0.00  0.00    +0.013 C 
ATOM     29  C   UNL     1      -5.119  -2.778   4.809  0.00  0.00    +0.001 C 
ATOM     30  C   UNL     1      -4.851  -4.279   4.936  0.00  0.00    +0.000 C 
ATOM     31  C   UNL     1      -4.711  -4.891   3.540  0.00  0.00    +0.001 C 
ATOM     32  C   UNL     1      -3.545  -4.225   2.807  0.00  0.00    +0.013 C 
ENDBRANCH  18  27
ENDBRANCH   1  17
BRANCH   1  33
ATOM     33  C   UNL     1      -1.548  -1.321  -0.820  0.00  0.00    +0.018 C 
BRANCH  33  35
ATOM     34  C   UNL     1       0.362  -2.435   0.343  0.00  0.00    +0.004 C 
ATOM     35  C   UNL     1      -0.984  -2.663  -0.347  0.00  0.00    +0.002 C 
ENDBRANCH  33  35
BRANCH  33  36
ATOM     36  C   UNL     1      -2.867  -1.555  -1.560  0.00  0.00    +0.002 C 
ATOM     37  C   UNL     1      -3.368  -0.231  -2.139  0.00  0.00    +0.004 C 
ENDBRANCH  33  36
ENDBRANCH   1  33
TORSDOF 10
