REMARK  Name = ZINC14230876
REMARK  12 active torsions:
REMARK  status: ('A' for Active; 'I' for Inactive)
REMARK    1  A    between atoms: C_1  and  C_2
REMARK    2  A    between atoms: N_5  and  S_8
REMARK    3  A    between atoms: S_8  and  C_11
REMARK    4  A    between atoms: C_14  and  C_17
REMARK    5  A    between atoms: N_19  and  C_20
REMARK    6  A    between atoms: C_20  and  C_21
REMARK    7  A    between atoms: C_21  and  C_23
REMARK    8  A    between atoms: C_21  and  N_65
REMARK    9  A    between atoms: C_28  and  O_29
REMARK   10  A    between atoms: O_29  and  C_30
REMARK   11  A    between atoms: C_31  and  N_65
REMARK   12  A    between atoms: C_32  and  N_65
REMARK                            x       y       z     vdW  Elec       q    Type
REMARK                         _______ _______ _______ _____ _____    ______ ____
ROOT
ATOM      1  C   UNL     1       3.558   1.808  -6.951  0.00  0.00    +0.244 C 
ATOM      2  O   UNL     1       3.066   1.497  -8.018  0.00  0.00    -0.270 OA
ATOM      3  N   UNL     1       4.865   1.577  -6.718  0.00  0.00    -0.313 N 
ATOM      4  H   UNL     1       5.258   1.826  -5.866  0.00  0.00    +0.149 HD
ENDROOT
BRANCH   1   8
ATOM      5  C   UNL     1       1.156   3.625  -3.955  0.00  0.00    +0.106 A 
ATOM      6  C   UNL     1       2.499   3.394  -3.715  0.00  0.00    +0.029 A 
ATOM      7  C   UNL     1       3.284   2.800  -4.681  0.00  0.00    +0.015 A 
ATOM      8  C   UNL     1       2.722   2.441  -5.908  0.00  0.00    +0.037 A 
ATOM      9  C   UNL     1       1.368   2.682  -6.146  0.00  0.00    +0.015 A 
ATOM     10  C   UNL     1       0.594   3.272  -5.168  0.00  0.00    +0.029 A 
BRANCH   5  11
ATOM     11  S   UNL     1       0.160   4.379  -2.712  0.00  0.00    +0.061 S 
ATOM     12  O   UNL     1      -0.933   4.990  -3.384  0.00  0.00    -0.153 OA
ATOM     13  O   UNL     1       1.043   5.111  -1.873  0.00  0.00    -0.153 OA
BRANCH  11  18
ATOM     14  C   UNL     1      -0.814  -1.008  -1.007  0.00  0.00    +0.007 C 
ATOM     15  C   UNL     1      -0.968   0.512  -0.928  0.00  0.00    -0.012 C 
ATOM     16  C   UNL     1      -1.578   1.031  -2.231  0.00  0.00    +0.020 C 
ATOM     17  C   UNL     1      -1.763   2.549  -2.135  0.00  0.00    +0.110 C 
ATOM     18  N   UNL     1      -0.473   3.161  -1.786  0.00  0.00    -0.177 NA
ATOM     19  C   UNL     1       0.244   2.672  -0.601  0.00  0.00    +0.110 C 
ATOM     20  C   UNL     1       0.406   1.153  -0.715  0.00  0.00    +0.020 C 
ENDBRANCH  11  18
ENDBRANCH   5  11
ENDBRANCH   1   8
BRANCH   3  21
ATOM     21  C   UNL     1       5.694   0.950  -7.751  0.00  0.00    +0.094 C 
BRANCH  21  22
ATOM     22  C   UNL     1       7.127   0.803  -7.236  0.00  0.00    -0.017 C 
BRANCH  22  23
ATOM     23  C   UNL     1       7.949   0.048  -8.248  0.00  0.00    -0.018 A 
ATOM     24  C   UNL     1       7.330  -0.787  -9.158  0.00  0.00    +0.005 A 
ATOM     25  C   UNL     1       8.084  -1.476 -10.090  0.00  0.00    +0.000 A 
ATOM     26  C   UNL     1       9.460  -1.338 -10.108  0.00  0.00    +0.004 A 
ATOM     27  C   UNL     1      10.084  -0.508  -9.197  0.00  0.00    +0.046 A 
ATOM     28  C   UNL     1       9.329   0.188  -8.264  0.00  0.00    +0.122 A 
BRANCH  28  29
ATOM     29  O   UNL     1       9.941   1.005  -7.367  0.00  0.00    -0.495 OA
ATOM     30  C   UNL     1      11.365   1.100  -7.442  0.00  0.00    +0.277 C 
ENDBRANCH  28  29
ENDBRANCH  22  23
BRANCH  22  33
ATOM     31  C   UNL     1       6.745  -1.341  -6.176  0.00  0.00    -0.096 C 
ATOM     32  C   UNL     1       8.414   0.170  -5.285  0.00  0.00    -0.096 C 
ATOM     33  N   UNL     1       7.097   0.077  -5.948  0.00  0.00    +0.382 N 
ATOM     34  H   UNL     1       6.387   0.503  -5.341  0.00  0.00    -0.082 HD
ENDBRANCH  22  33
ENDBRANCH  21  22
ENDBRANCH   3  21
TORSDOF 8
