REMARK  Name = ZINC38546599
REMARK  7 active torsions:
REMARK  status: ('A' for Active; 'I' for Inactive)
REMARK    1  A    between atoms: C_1  and  C_2
REMARK    2  A    between atoms: C_2  and  N_3
REMARK    3  A    between atoms: N_6  and  C_9
REMARK    4  A    between atoms: C_9  and  C_11
REMARK    5  A    between atoms: C_9  and  C_20
REMARK    6  A    between atoms: C_24  and  N_25
REMARK    7  A    between atoms: C_26  and  C_28
REMARK                            x       y       z     vdW  Elec       q    Type
REMARK                         _______ _______ _______ _____ _____    ______ ____
ROOT
ATOM      1  C   UNL     1       1.544  -2.538   4.839  0.00  0.00    +0.120 C 
ENDROOT
BRANCH   1   2
ATOM      2  C   UNL     1       2.967  -2.119   5.107  0.00  0.00    -0.022 A 
ATOM      3  C   UNL     1       3.865  -2.019   4.061  0.00  0.00    +0.009 A 
ATOM      4  C   UNL     1       5.171  -1.634   4.303  0.00  0.00    +0.050 A 
ATOM      5  C   UNL     1       5.582  -1.347   5.594  0.00  0.00    +0.166 A 
ATOM      6  C   UNL     1       4.677  -1.448   6.648  0.00  0.00    +0.167 A 
ATOM      7  C   UNL     1       3.368  -1.829   6.398  0.00  0.00    +0.055 A 
ATOM      8  O   UNL     1       5.317  -1.118   7.807  0.00  0.00    -0.453 OA
ATOM      9  C   UNL     1       6.723  -1.210   7.509  0.00  0.00    +0.466 C 
ATOM     10  O   UNL     1       6.790  -0.954   6.093  0.00  0.00    -0.453 OA
ENDBRANCH   1   2
BRANCH   1  11
ATOM     11  C   UNL     1       1.446  -4.041   4.888  0.00  0.00    +0.006 A 
ATOM     12  C   UNL     1       0.894  -4.670   6.004  0.00  0.00    -0.030 A 
ATOM     13  C   UNL     1       0.841  -6.029   5.974  0.00  0.00    -0.005 A 
ATOM     14  S   UNL     1       1.550  -6.448   4.404  0.00  0.00    -0.078 S 
ATOM     15  C   UNL     1       1.890  -4.787   3.841  0.00  0.00    +0.078 A 
ATOM     16  C   UNL     1       0.306  -6.943   7.028  0.00  0.00    +0.043 C 
ATOM     17  C   UNL     1       0.150  -6.141   8.329  0.00  0.00    +0.005 C 
ATOM     18  C   UNL     1      -0.561  -4.823   8.012  0.00  0.00    +0.005 C 
ATOM     19  C   UNL     1       0.368  -3.905   7.215  0.00  0.00    +0.036 C 
BRANCH  15  20
ATOM     20  N   UNL     1       2.464  -4.366   2.640  0.00  0.00    -0.273 N 
ATOM     21  C   UNL     1       2.949  -5.273   1.770  0.00  0.00    +0.284 C 
ATOM     22  O   UNL     1       2.886  -6.460   2.030  0.00  0.00    -0.266 OA
ATOM     23  H   UNL     1       2.514  -3.419   2.433  0.00  0.00    +0.156 HD
BRANCH  21  24
ATOM     24  C   UNL     1       3.552  -4.830   0.509  0.00  0.00    +0.189 A 
ATOM     25  C   UNL     1       4.073  -5.640  -0.460  0.00  0.00    +0.054 A 
ATOM     26  C   UNL     1       4.537  -4.798  -1.483  0.00  0.00    +0.042 A 
ATOM     27  C   UNL     1       4.281  -3.528  -1.099  0.00  0.00    +0.196 A 
ATOM     28  O   UNL     1       3.683  -3.552   0.099  0.00  0.00    -0.458 OA
ENDBRANCH  21  24
ENDBRANCH  15  20
ENDBRANCH   1  11
BRANCH   1  32
ATOM     29  N   UNL     1      -0.534  -0.621   1.696  0.00  0.00    +0.381 N 
ATOM     30  C   UNL     1      -0.567  -2.089   1.752  0.00  0.00    -0.063 C 
ATOM     31  C   UNL     1      -0.205  -2.554   3.164  0.00  0.00    +0.067 C 
ATOM     32  N   UNL     1       1.137  -2.064   3.509  0.00  0.00    -0.295 NA
ATOM     33  C   UNL     1       1.192  -0.597   3.434  0.00  0.00    +0.067 C 
ATOM     34  C   UNL     1       0.818  -0.148   2.019  0.00  0.00    -0.063 C 
ATOM     35  H   UNL     1      -1.190  -0.245   2.364  0.00  0.00    -0.082 HD
BRANCH  29  37
ATOM     36  C   UNL     1      -2.351  -0.559   0.056  0.00  0.00    -0.017 C 
ATOM     37  C   UNL     1      -0.899  -0.174   0.345  0.00  0.00    -0.082 C 
ENDBRANCH  29  37
ENDBRANCH   1  32
TORSDOF 6
