REMARK  Name = ZINC63830675
REMARK  9 active torsions:
REMARK  status: ('A' for Active; 'I' for Inactive)
REMARK    1  A    between atoms: C_1  and  C_2
REMARK    2  A    between atoms: C_2  and  C_3
REMARK    3  A    between atoms: N_5  and  C_6
REMARK    4  A    between atoms: C_9  and  C_12
REMARK    5  A    between atoms: C_12  and  C_14
REMARK    6  A    between atoms: C_14  and  S_15
REMARK    7  A    between atoms: S_15  and  C_16
REMARK    8  A    between atoms: C_19  and  C_24
REMARK    9  A    between atoms: N_20  and  C_21
REMARK                            x       y       z     vdW  Elec       q    Type
REMARK                         _______ _______ _______ _____ _____    ______ ____
ROOT
ATOM      1  C   UNL     1       5.060  -6.809  -8.025  0.00  0.00    +0.193 A 
ATOM      2  N   UNL     1       4.536  -7.734  -7.235  0.00  0.00    -0.122 NA
ATOM      3  N   UNL     1       4.872  -8.906  -7.643  0.00  0.00    -0.129 NA
ATOM      4  C   UNL     1       5.635  -8.803  -8.722  0.00  0.00    +0.163 A 
ATOM      5  N   UNL     1       5.767  -7.452  -8.994  0.00  0.00    -0.299 N 
ENDROOT
BRANCH   4   6
ATOM      6  C   UNL     1       6.197  -9.862  -9.452  0.00  0.00    +0.025 C 
ATOM      7  C   UNL     1       6.063 -11.226  -9.197  0.00  0.00    +0.006 A 
ATOM      8  C   UNL     1       5.373 -11.946  -8.198  0.00  0.00    +0.010 A 
ATOM      9  C   UNL     1       5.418 -13.303  -8.194  0.00  0.00    +0.001 A 
ATOM     10  C   UNL     1       6.136 -14.014  -9.158  0.00  0.00    +0.002 A 
ATOM     11  C   UNL     1       6.822 -13.388 -10.145  0.00  0.00    +0.026 A 
ATOM     12  C   UNL     1       6.821 -11.971 -10.216  0.00  0.00    +0.043 A 
ATOM     13  N   UNL     1       7.397 -11.140 -11.062  0.00  0.00    -0.380 N 
ATOM     14  C   UNL     1       7.068  -9.761 -10.685  0.00  0.00    +0.152 C 
ATOM     15  H   UNL     1       7.947 -11.399 -11.817  0.00  0.00    +0.160 HD
ENDBRANCH   4   6
BRANCH   5  16
ATOM     16  C   UNL     1       6.517  -6.842 -10.095  0.00  0.00    +0.091 C 
ATOM     17  C   UNL     1       6.856  -5.354  -9.979  0.00  0.00    +0.027 C 
ATOM     18  C   UNL     1       5.784  -5.820 -10.967  0.00  0.00    +0.027 C 
ENDBRANCH   5  16
BRANCH   1  19
ATOM     19  S   UNL     1       4.871  -5.065  -7.857  0.00  0.00    -0.078 S 
BRANCH  19  20
ATOM     20  C   UNL     1       3.828  -4.877  -6.385  0.00  0.00    +0.157 C 
BRANCH  20  21
ATOM     21  C   UNL     1       3.585  -3.413  -6.125  0.00  0.00    +0.173 C 
ATOM     22  O   UNL     1       4.068  -2.578  -6.861  0.00  0.00    -0.291 OA
BRANCH  21  26
ATOM     23  C   UNL     1       1.216  -2.211  -2.826  0.00  0.00    +0.033 A 
ATOM     24  C   UNL     1       1.770  -1.251  -3.668  0.00  0.00    +0.024 A 
ATOM     25  C   UNL     1       2.538  -1.636  -4.737  0.00  0.00    +0.013 A 
ATOM     26  C   UNL     1       2.764  -2.996  -4.981  0.00  0.00    +0.018 A 
ATOM     27  C   UNL     1       2.205  -3.958  -4.130  0.00  0.00    +0.013 A 
ATOM     28  C   UNL     1       1.443  -3.564  -3.061  0.00  0.00    +0.024 A 
BRANCH  23  31
ATOM     29  C   UNL     1       0.486  -2.511  -0.587  0.00  0.00    +0.217 C 
ATOM     30  O   UNL     1       1.143  -3.529  -0.519  0.00  0.00    -0.275 OA
ATOM     31  N   UNL     1       0.437  -1.816  -1.740  0.00  0.00    -0.286 N 
ATOM     32  H   UNL     1      -0.141  -1.040  -1.815  0.00  0.00    +0.155 HD
BRANCH  29  34
ATOM     33  C   UNL     1      -0.051  -2.989   1.786  0.00  0.00    +0.013 C 
ATOM     34  C   UNL     1      -0.275  -2.025   0.619  0.00  0.00    +0.093 C 
ENDBRANCH  29  34
ENDBRANCH  23  31
ENDBRANCH  21  26
ENDBRANCH  20  21
ENDBRANCH  19  20
ENDBRANCH   1  19
TORSDOF 8
