REMARK  Name = ZINC01626331
REMARK  5 active torsions:
REMARK  status: ('A' for Active; 'I' for Inactive)
REMARK    1  A    between atoms: C_1  and  C_2
REMARK    2  A    between atoms: C_4  and  C_18
REMARK    3  A    between atoms: C_4  and  C_19
REMARK    4  A    between atoms: C_9  and  C_11
REMARK    5  A    between atoms: C_14  and  N_17
REMARK                            x       y       z     vdW  Elec       q    Type
REMARK                         _______ _______ _______ _____ _____    ______ ____
ROOT
ATOM      1  C   UNL     1       6.426   2.654  -0.043  0.00  0.00    +0.063 C 
ATOM      2  C   UNL     1       6.149   1.172  -0.049  0.00  0.00    +0.032 C 
ATOM      3  C   UNL     1       7.166   0.340  -0.064  0.00  0.00    +0.023 C 
ATOM      4  C   UNL     1       6.887  -1.148  -0.070  0.00  0.00    +0.079 C 
ATOM      5  N   UNL     1       5.468  -1.545  -0.059  0.00  0.00    -0.251 NA
ATOM      6  C   UNL     1       4.560  -0.620  -0.045  0.00  0.00    +0.183 C 
ATOM      7  N   UNL     1       4.813   0.734  -0.040  0.00  0.00    -0.173 N 
ATOM      8  N   UNL     1       3.686   1.559  -0.030  0.00  0.00    -0.166 NA
ATOM      9  C   UNL     1       2.478   1.071  -0.016  0.00  0.00    +0.130 C 
ATOM     10  S   UNL     1       2.781  -0.688  -0.029  0.00  0.00    -0.031 S 
ATOM     11  C   UNL     1       7.540  -1.750  -1.316  0.00  0.00    +0.040 C 
ATOM     12  C   UNL     1       7.563  -1.764   1.157  0.00  0.00    +0.040 C 
ENDROOT
BRANCH   9  13
ATOM     13  C   UNL     1       1.186   1.791   0.000  0.00  0.00    +0.009 A 
ATOM     14  C   UNL     1      -0.013   1.076   0.008  0.00  0.00    +0.012 A 
ATOM     15  C   UNL     1      -1.215   1.749   0.017  0.00  0.00    +0.023 A 
ATOM     16  C   UNL     1      -1.234   3.140   0.030  0.00  0.00    +0.025 A 
ATOM     17  C   UNL     1      -0.042   3.855   0.022  0.00  0.00    +0.023 A 
ATOM     18  C   UNL     1       1.163   3.187   0.008  0.00  0.00    +0.012 A 
BRANCH  16  19
ATOM     19  N   UNL     1      -2.453   3.818   0.044  0.00  0.00    -0.358 N 
ATOM     20  H   UNL     1      -2.468   4.788   0.050  0.00  0.00    +0.142 HD
ATOM     21  H   UNL     1      -3.285   3.321   0.050  0.00  0.00    +0.142 HD
ENDBRANCH  16  19
ENDBRANCH   9  13
TORSDOF 2
