REMARK  Name = ZINC24836601
REMARK  6 active torsions:
REMARK  status: ('A' for Active; 'I' for Inactive)
REMARK    1  A    between atoms: C_4  and  O_29
REMARK    2  A    between atoms: C_5  and  C_7
REMARK    3  A    between atoms: N_9  and  N_10
REMARK    4  A    between atoms: C_11  and  C_13
REMARK    5  A    between atoms: N_16  and  C_22
REMARK    6  A    between atoms: C_17  and  C_18
REMARK                            x       y       z     vdW  Elec       q    Type
REMARK                         _______ _______ _______ _____ _____    ______ ____
ROOT
ATOM      1  N   UNL     1      -0.067  -0.103   4.900  0.00  0.00    -0.230 N 
ATOM      2  C   UNL     1       0.027  -0.751   6.078  0.00  0.00    +0.264 C 
ATOM      3  O   UNL     1       0.090  -1.965   6.100  0.00  0.00    -0.269 OA
ATOM      4  H   UNL     1      -0.124   0.996   4.880  0.00  0.00    +0.173 HD
ENDROOT
BRANCH   2   5
ATOM      5  C   UNL     1       0.053   0.012   7.339  0.00  0.00    +0.088 A 
ATOM      6  C   UNL     1      -0.013   1.417   7.471  0.00  0.00    +0.148 A 
ATOM      7  N   UNL     1       0.038   1.707   8.742  0.00  0.00    -0.173 NA
ATOM      8  N   UNL     1       0.138   0.519   9.475  0.00  0.00    -0.225 N 
ATOM      9  C   UNL     1       0.140  -0.514   8.613  0.00  0.00    +0.159 A 
BRANCH   8  10
ATOM     10  C   UNL     1       0.215   0.422  10.871  0.00  0.00    +0.101 A 
ATOM     11  C   UNL     1      -0.666  -0.399  11.561  0.00  0.00    +0.031 A 
ATOM     12  C   UNL     1      -0.588  -0.493  12.937  0.00  0.00    +0.002 A 
ATOM     13  C   UNL     1       0.368   0.229  13.629  0.00  0.00    +0.003 A 
ATOM     14  C   UNL     1       1.248   1.048  12.946  0.00  0.00    +0.040 A 
ATOM     15  C   UNL     1       1.178   1.143  11.568  0.00  0.00    +0.149 A 
ATOM     16  F   UNL     1       2.042   1.939  10.900  0.00  0.00    -0.203 F 
ENDBRANCH   8  10
BRANCH   9  17
ATOM     17  C   UNL     1       0.225  -1.975   8.972  0.00  0.00    +0.435 C 
ATOM     18  F   UNL     1      -1.059  -2.529   8.977  0.00  0.00    -0.164 F 
ATOM     19  F   UNL     1       1.017  -2.641   8.030  0.00  0.00    -0.164 F 
ATOM     20  F   UNL     1       0.797  -2.111  10.241  0.00  0.00    -0.164 F 
ENDBRANCH   9  17
ENDBRANCH   2   5
BRANCH   1  23
ATOM     21  C   UNL     1      -0.186  -0.180   2.524  0.00  0.00    +0.264 C 
ATOM     22  O   UNL     1      -0.249   1.034   2.501  0.00  0.00    -0.269 OA
ATOM     23  N   UNL     1      -0.092  -0.828   3.701  0.00  0.00    -0.230 N 
ATOM     24  H   UNL     1      -0.035  -1.926   3.722  0.00  0.00    +0.173 HD
BRANCH  21  29
ATOM     25  C   UNL     1      -0.164  -3.045   0.100  0.00  0.00    +0.001 A 
ATOM     26  C   UNL     1      -0.260  -2.379  -1.111  0.00  0.00    +0.004 A 
ATOM     27  C   UNL     1      -0.339  -1.001  -1.146  0.00  0.00    +0.046 A 
ATOM     28  C   UNL     1      -0.310  -0.273   0.034  0.00  0.00    +0.129 A 
ATOM     29  C   UNL     1      -0.212  -0.943   1.261  0.00  0.00    +0.079 A 
ATOM     30  C   UNL     1      -0.139  -2.338   1.282  0.00  0.00    +0.017 A 
BRANCH  28  31
ATOM     31  O   UNL     1      -0.381   1.081   0.001  0.00  0.00    -0.506 OA
ATOM     32  H   UNL     1      -0.358   1.656   0.939  0.00  0.00    +0.292 HD
ENDBRANCH  28  31
ENDBRANCH  21  29
ENDBRANCH   1  23
TORSDOF 6
