REMARK  Name = ZINC43553491
REMARK  11 active torsions:
REMARK  status: ('A' for Active; 'I' for Inactive)
REMARK    1  A    between atoms: C_1  and  C_2
REMARK    2  A    between atoms: C_5  and  O_37
REMARK    3  A    between atoms: C_7  and  C_34
REMARK    4  A    between atoms: C_7  and  C_35
REMARK    5  A    between atoms: C_17  and  C_19
REMARK    6  A    between atoms: C_24  and  C_26
REMARK    7  A    between atoms: C_26  and  C_27
REMARK    8  A    between atoms: N_29  and  C_30
REMARK    9  A    between atoms: N_29  and  C_31
REMARK   10  A    between atoms: C_31  and  C_32
REMARK   11  A    between atoms: C_35  and  O_36
REMARK                            x       y       z     vdW  Elec       q    Type
REMARK                         _______ _______ _______ _____ _____    ______ ____
ROOT
ATOM      1  C   UNL     1       0.116   1.506  -0.019  0.00  0.00    +0.012 C 
ATOM      2  C   UNL     1       0.117  -0.030  -0.009  0.00  0.00    -0.019 C 
ATOM      3  C   UNL     1      -1.325  -0.518   0.067  0.00  0.00    +0.010 C 
ATOM      4  C   UNL     1      -1.977   0.040   1.333  0.00  0.00    +0.032 C 
ATOM      5  C   UNL     1      -1.232  -0.383   2.586  0.00  0.00    +0.123 C 
ATOM      6  C   UNL     1       0.274  -0.192   2.529  0.00  0.00    +0.021 C 
ATOM      7  C   UNL     1       0.891  -0.577   1.185  0.00  0.00    +0.011 C 
ATOM      8  C   UNL     1       0.935  -2.117   1.139  0.00  0.00    +0.049 C 
ATOM      9  C   UNL     1       1.033  -2.629  -0.253  0.00  0.00    +0.015 A 
ATOM     10  C   UNL     1       0.947  -1.923  -1.407  0.00  0.00    +0.058 A 
ATOM     11  N   UNL     1       1.042  -2.642  -2.520  0.00  0.00    -0.229 NA
ATOM     12  C   UNL     1       1.229  -3.944  -2.488  0.00  0.00    +0.165 A 
ATOM     13  S   UNL     1       1.287  -4.283  -0.838  0.00  0.00    -0.057 S 
ATOM     14  N   UNL     1       1.350  -4.824  -3.555  0.00  0.00    -0.258 N 
ATOM     15  C   UNL     1       1.540  -6.139  -3.325  0.00  0.00    +0.285 C 
ATOM     16  O   UNL     1       1.605  -6.554  -2.183  0.00  0.00    -0.266 OA
ATOM     17  C   UNL     1       0.783  -0.419  -1.332  0.00  0.00    +0.054 C 
ATOM     18  C   UNL     1       0.645   1.238   2.945  0.00  0.00    +0.016 C 
ATOM     19  H   UNL     1       1.298  -4.493  -4.465  0.00  0.00    +0.157 HD
ENDROOT
BRANCH  15  20
ATOM     20  C   UNL     1       1.668  -7.068  -4.452  0.00  0.00    +0.189 A 
ATOM     21  C   UNL     1       1.857  -8.418  -4.361  0.00  0.00    +0.054 A 
ATOM     22  C   UNL     1       1.923  -8.905  -5.676  0.00  0.00    +0.042 A 
ATOM     23  C   UNL     1       1.773  -7.845  -6.501  0.00  0.00    +0.196 A 
ATOM     24  O   UNL     1       1.614  -6.741  -5.760  0.00  0.00    -0.458 OA
ENDBRANCH  15  20
BRANCH   5  25
ATOM     25  O   UNL     1      -1.546  -1.744   2.899  0.00  0.00    -0.391 OA
ATOM     26  H   UNL     1      -2.485  -1.904   3.062  0.00  0.00    +0.210 HD
ENDBRANCH   5  25
BRANCH  17  27
ATOM     27  C   UNL     1      -0.030   0.091  -2.518  0.00  0.00    +0.106 C 
BRANCH  27  28
ATOM     28  C   UNL     1       0.712  -0.200  -3.798  0.00  0.00    +0.216 C 
ATOM     29  O   UNL     1       1.786  -0.761  -3.762  0.00  0.00    -0.276 OA
ATOM     30  N   UNL     1       0.180   0.164  -4.982  0.00  0.00    -0.301 N 
ATOM     31  C   UNL     1      -1.118   0.842  -5.025  0.00  0.00    +0.132 C 
BRANCH  30  32
ATOM     32  C   UNL     1       0.901  -0.118  -6.226  0.00  0.00    +0.134 C 
BRANCH  32  33
ATOM     33  C   UNL     1       0.495  -1.473  -6.745  0.00  0.00    -0.016 C 
ATOM     34  C   UNL     1       0.033  -1.595  -7.965  0.00  0.00    +0.005 C 
ENDBRANCH  32  33
ENDBRANCH  30  32
ENDBRANCH  27  28
ENDBRANCH  17  27
BRANCH   6  35
ATOM     35  C   UNL     1       0.888  -1.105   3.624  0.00  0.00    +0.165 C 
BRANCH  35  36
ATOM     36  O   UNL     1       0.378  -0.724   4.903  0.00  0.00    -0.394 OA
ATOM     37  H   UNL     1       0.719  -1.253   5.636  0.00  0.00    +0.209 HD
ENDBRANCH  35  36
ENDBRANCH   6  35
TORSDOF 8
