REMARK  Name = ZINC21883477
REMARK  3 active torsions:
REMARK  status: ('A' for Active; 'I' for Inactive)
REMARK    1  A    between atoms: C_3  and  C_17
REMARK    2  A    between atoms: C_6  and  C_7
REMARK    3  A    between atoms: C_9  and  C_12
REMARK                            x       y       z     vdW  Elec       q    Type
REMARK                         _______ _______ _______ _____ _____    ______ ____
ROOT
ATOM      1  C   UNL     1       2.419   4.200   0.002  0.00  0.00    +0.012 A 
ATOM      2  C   UNL     1       1.235   3.496   0.009  0.00  0.00    +0.014 A 
ATOM      3  C   UNL     1       1.253   2.100   0.001  0.00  0.00    +0.037 A 
ATOM      4  C   UNL     1       2.473   1.418  -0.008  0.00  0.00    +0.014 A 
ATOM      5  C   UNL     1       3.655   2.124  -0.022  0.00  0.00    +0.012 A 
ATOM      6  C   UNL     1       3.635   3.519  -0.014  0.00  0.00    +0.022 A 
ENDROOT
BRANCH   3   7
ATOM      7  C   UNL     1      -0.016   1.344   0.009  0.00  0.00    +0.250 C 
ATOM      8  O   UNL     1      -1.077   1.937   0.018  0.00  0.00    -0.270 OA
ATOM      9  N   UNL     1       0.002  -0.004   0.002  0.00  0.00    -0.261 N 
ATOM     10  C   UNL     1      -1.191  -0.715   0.010  0.00  0.00    +0.165 A 
ATOM     11  N   UNL     1      -2.428  -0.257   0.030  0.00  0.00    -0.233 NA
ATOM     12  C   UNL     1      -3.460  -1.078   0.029  0.00  0.00    +0.120 A 
ATOM     13  C   UNL     1      -3.224  -2.413   0.020  0.00  0.00    +0.068 A 
ATOM     14  S   UNL     1      -1.437  -2.434   0.003  0.00  0.00    -0.061 S 
ATOM     15  H   UNL     1       0.962  -0.541  -0.010  0.00  0.00    +0.157 HD
ENDBRANCH   3   7
BRANCH   6  16
ATOM     16  C   UNL     1       4.910   4.278  -0.023  0.00  0.00    +0.202 A 
ATOM     17  N   UNL     1       6.157   3.754  -0.033  0.00  0.00    -0.191 NA
ATOM     18  C   UNL     1       6.970   4.780  -0.041  0.00  0.00    +0.231 A 
ATOM     19  O   UNL     1       6.213   5.882  -0.028  0.00  0.00    -0.337 OA
ATOM     20  N   UNL     1       5.039   5.579  -0.018  0.00  0.00    -0.056 NA
BRANCH  18  21
ATOM     21  C   UNL     1       8.476   4.729  -0.055  0.00  0.00    +0.078 C 
ATOM     22  C   UNL     1       9.042   5.490   1.162  0.00  0.00    +0.013 C 
ATOM     23  C   UNL     1      10.317   6.182   0.618  0.00  0.00    +0.001 C 
ATOM     24  C   UNL     1       9.891   6.609  -0.809  0.00  0.00    +0.001 C 
ATOM     25  C   UNL     1       9.016   5.440  -1.308  0.00  0.00    +0.013 C 
ENDBRANCH  18  21
ENDBRANCH   6  16
TORSDOF 3
