REMARK  Name = ZINC21679166
REMARK  11 active torsions:
REMARK  status: ('A' for Active; 'I' for Inactive)
REMARK    1  A    between atoms: C_1  and  C_2
REMARK    2  A    between atoms: C_2  and  C_4
REMARK    3  A    between atoms: C_2  and  O_17
REMARK    4  A    between atoms: N_6  and  C_7
REMARK    5  A    between atoms: N_6  and  C_11
REMARK    6  A    between atoms: C_7  and  C_8
REMARK    7  A    between atoms: C_8  and  C_9
REMARK    8  A    between atoms: O_17  and  C_18
REMARK    9  A    between atoms: C_18  and  C_20
REMARK   10  A    between atoms: C_20  and  C_21
REMARK   11  A    between atoms: C_26  and  N_27
REMARK                            x       y       z     vdW  Elec       q    Type
REMARK                         _______ _______ _______ _____ _____    ______ ____
ROOT
ATOM      1  C   UNL     1       6.988  -3.688  -0.143  0.00  0.00    +0.062 C 
ATOM      2  C   UNL     1       6.125  -3.940  -1.380  0.00  0.00    +0.259 C 
ENDROOT
BRANCH   2   3
ATOM      3  C   UNL     1       4.715  -4.259  -0.953  0.00  0.00    +0.260 C 
ATOM      4  O   UNL     1       4.332  -5.410  -0.934  0.00  0.00    -0.271 OA
ATOM      5  N   UNL     1       3.880  -3.265  -0.590  0.00  0.00    -0.267 N 
BRANCH   5   6
ATOM      6  C   UNL     1       2.585  -3.564  -0.153  0.00  0.00    +0.036 A 
ATOM      7  C   UNL     1       2.130  -4.876  -0.171  0.00  0.00    +0.023 A 
ATOM      8  C   UNL     1       0.851  -5.168   0.261  0.00  0.00    +0.002 A 
ATOM      9  C   UNL     1       0.023  -4.155   0.709  0.00  0.00    +0.000 A 
ATOM     10  C   UNL     1       0.473  -2.848   0.728  0.00  0.00    +0.002 A 
ATOM     11  C   UNL     1       1.751  -2.550   0.298  0.00  0.00    +0.023 A 
ENDBRANCH   5   6
BRANCH   5  12
ATOM     12  C   UNL     1       4.328  -1.872  -0.653  0.00  0.00    +0.128 C 
BRANCH  12  13
ATOM     13  C   UNL     1       4.781  -1.418   0.736  0.00  0.00    +0.138 C 
BRANCH  13  14
ATOM     14  C   UNL     1       5.363  -0.069   0.646  0.00  0.00    +0.064 C 
ATOM     15  N   UNL     1       5.812   0.972   0.576  0.00  0.00    -0.197 NA
ENDBRANCH  13  14
ENDBRANCH  12  13
ENDBRANCH   5  12
ENDBRANCH   2   3
BRANCH   2  16
ATOM     16  O   UNL     1       6.667  -5.059  -2.130  0.00  0.00    -0.452 OA
BRANCH  16  17
ATOM     17  C   UNL     1       7.578  -4.775  -3.075  0.00  0.00    +0.312 C 
ATOM     18  O   UNL     1       7.910  -3.630  -3.269  0.00  0.00    -0.250 OA
BRANCH  17  19
ATOM     19  C   UNL     1       8.185  -5.885  -3.893  0.00  0.00    +0.158 C 
BRANCH  19  20
ATOM     20  C   UNL     1       9.170  -5.304  -4.875  0.00  0.00    -0.007 A 
ATOM     21  C   UNL     1       8.764  -4.994  -6.159  0.00  0.00    +0.006 A 
ATOM     22  C   UNL     1       9.665  -4.456  -7.058  0.00  0.00    +0.000 A 
ATOM     23  C   UNL     1      10.976  -4.239  -6.676  0.00  0.00    +0.002 A 
ATOM     24  C   UNL     1      11.384  -4.555  -5.394  0.00  0.00    +0.033 A 
ATOM     25  C   UNL     1      10.481  -5.087  -4.493  0.00  0.00    +0.130 A 
BRANCH  25  26
ATOM     26  N   UNL     1      10.917  -5.426  -3.120  0.00  0.00    +0.057 N 
ATOM     27  O   UNL     1      10.172  -5.226  -2.177  0.00  0.00    -0.126 OA
ATOM     28  O   UNL     1      12.021  -5.904  -2.932  0.00  0.00    -0.126 OA
ENDBRANCH  25  26
ENDBRANCH  19  20
ENDBRANCH  17  19
ENDBRANCH  16  17
ENDBRANCH   2  16
TORSDOF 10
