REMARK  Name = ZINC34835427
REMARK  19 active torsions:
REMARK  status: ('A' for Active; 'I' for Inactive)
REMARK    1  A    between atoms: C_1  and  C_2
REMARK    2  A    between atoms: C_2  and  C_3
REMARK    3  A    between atoms: C_3  and  C_4
REMARK    4  A    between atoms: C_4  and  C_5
REMARK    5  A    between atoms: C_5  and  C_7
REMARK    6  A    between atoms: C_5  and  C_9
REMARK    7  A    between atoms: C_7  and  C_8
REMARK    8  A    between atoms: N_11  and  C_12
REMARK    9  A    between atoms: N_11  and  C_15
REMARK   10  A    between atoms: C_12  and  C_13
REMARK   11  A    between atoms: C_13  and  C_14
REMARK   12  A    between atoms: C_15  and  C_16
REMARK   13  A    between atoms: C_17  and  C_37
REMARK   14  A    between atoms: N_19  and  C_30
REMARK   15  A    between atoms: C_20  and  N_21
REMARK   16  A    between atoms: N_24  and  C_27
REMARK   17  A    between atoms: C_27  and  C_28
REMARK   18  A    between atoms: C_27  and  C_29
REMARK   19  A    between atoms: C_37  and  C_38
REMARK                            x       y       z     vdW  Elec       q    Type
REMARK                         _______ _______ _______ _____ _____    ______ ____
ROOT
ATOM      1  C   UNL     1       0.949  -6.359  -4.290  0.00  0.00    +0.033 A 
ATOM      2  C   UNL     1      -0.389  -6.009  -4.087  0.00  0.00    +0.070 A 
ATOM      3  N   UNL     1      -1.061  -6.290  -5.174  0.00  0.00    -0.169 NA
ATOM      4  N   UNL     1      -0.176  -6.830  -6.115  0.00  0.00    -0.218 N 
ATOM      5  C   UNL     1       1.062  -6.860  -5.552  0.00  0.00    +0.130 A 
ENDROOT
BRANCH   5   6
ATOM      6  N   UNL     1       2.230  -7.321  -6.153  0.00  0.00    -0.318 N 
ATOM      7  C   UNL     1       2.684  -8.707  -5.960  0.00  0.00    +0.088 C 
ATOM      8  C   UNL     1       2.979  -9.317  -7.335  0.00  0.00    -0.059 C 
ATOM      9  N   UNL     1       3.932  -8.462  -8.054  0.00  0.00    +0.383 N 
ATOM     10  C   UNL     1       3.323  -7.153  -8.325  0.00  0.00    -0.059 C 
ATOM     11  C   UNL     1       3.042  -6.438  -7.004  0.00  0.00    +0.088 C 
ATOM     12  H   UNL     1       4.760  -8.336  -7.492  0.00  0.00    -0.081 HD
BRANCH   9  13
ATOM     13  C   UNL     1       4.299  -9.102  -9.324  0.00  0.00    -0.075 C 
ATOM     14  C   UNL     1       5.292  -8.212 -10.075  0.00  0.00    -0.014 C 
ATOM     15  C   UNL     1       4.944 -10.461  -9.043  0.00  0.00    -0.014 C 
ENDBRANCH   9  13
ENDBRANCH   5   6
BRANCH   4  16
ATOM     16  C   UNL     1      -0.506  -7.260  -7.409  0.00  0.00    +0.068 A 
ATOM     17  C   UNL     1       0.273  -6.869  -8.490  0.00  0.00    +0.030 A 
ATOM     18  C   UNL     1      -0.054  -7.293  -9.763  0.00  0.00    +0.040 A 
ATOM     19  C   UNL     1      -1.157  -8.106  -9.962  0.00  0.00    +0.124 A 
ATOM     20  C   UNL     1      -1.935  -8.496  -8.884  0.00  0.00    +0.040 A 
ATOM     21  C   UNL     1      -1.608  -8.079  -7.609  0.00  0.00    +0.030 A 
ATOM     22  F   UNL     1      -1.475  -8.520 -11.208  0.00  0.00    -0.205 F 
ENDBRANCH   4  16
BRANCH   2  23
ATOM     23  C   UNL     1      -0.960  -5.411  -2.827  0.00  0.00    +0.054 C 
ATOM     24  C   UNL     1      -1.059  -3.892  -2.983  0.00  0.00    +0.010 C 
ENDBRANCH   2  23
BRANCH   1  25
ATOM     25  C   UNL     1       2.069  -6.204  -3.293  0.00  0.00    +0.148 C 
BRANCH  25  28
ATOM     26  C   UNL     1       2.148  -3.920  -2.449  0.00  0.00    +0.219 C 
ATOM     27  O   UNL     1       1.280  -4.213  -1.654  0.00  0.00    -0.275 OA
ATOM     28  N   UNL     1       2.579  -4.832  -3.343  0.00  0.00    -0.297 N 
BRANCH  26  29
ATOM     29  C   UNL     1       2.744  -2.536  -2.438  0.00  0.00    +0.075 C 
BRANCH  29  30
ATOM     30  C   UNL     1       2.812  -2.021  -0.999  0.00  0.00    +0.009 C 
ATOM     31  C   UNL     1       3.780  -2.889  -0.192  0.00  0.00    +0.004 C 
ENDBRANCH  29  30
BRANCH  29  32
ATOM     32  C   UNL     1       1.871  -1.598  -3.274  0.00  0.00    +0.013 C 
BRANCH  32  33
ATOM     33  C   UNL     1       2.540  -0.225  -3.366  0.00  0.00    +0.000 C 
BRANCH  33  35
ATOM     34  C   UNL     1       2.336   2.086  -4.294  0.00  0.00    +0.004 C 
ATOM     35  C   UNL     1       1.667   0.713  -4.202  0.00  0.00    -0.003 C 
ENDBRANCH  33  35
ENDBRANCH  32  33
ENDBRANCH  29  32
ENDBRANCH  26  29
BRANCH  28  36
ATOM     36  C   UNL     1       3.559  -4.451  -4.363  0.00  0.00    +0.108 C 
BRANCH  36  37
ATOM     37  C   UNL     1       4.966  -4.806  -3.877  0.00  0.00    +0.016 C 
ATOM     38  C   UNL     1       5.998  -4.295  -4.885  0.00  0.00    +0.005 C 
ENDBRANCH  36  37
ENDBRANCH  28  36
ENDBRANCH  25  28
ENDBRANCH   1  25
TORSDOF 13
