REMARK  Name = ZINC05739213
REMARK  16 active torsions:
REMARK  status: ('A' for Active; 'I' for Inactive)
REMARK    1  A    between atoms: C_1  and  C_2
REMARK    2  A    between atoms: C_2  and  O_33
REMARK    3  A    between atoms: C_6  and  C_26
REMARK    4  A    between atoms: C_8  and  C_19
REMARK    5  A    between atoms: C_10  and  C_12
REMARK    6  A    between atoms: C_12  and  O_14
REMARK    7  A    between atoms: O_14  and  C_15
REMARK    8  A    between atoms: C_15  and  C_16
REMARK    9  A    between atoms: C_15  and  C_17
REMARK   10  A    between atoms: C_15  and  C_18
REMARK   11  A    between atoms: C_23  and  N_25
REMARK   12  A    between atoms: C_26  and  O_28
REMARK   13  A    between atoms: O_28  and  C_29
REMARK   14  A    between atoms: C_29  and  C_30
REMARK   15  A    between atoms: C_29  and  C_31
REMARK   16  A    between atoms: C_29  and  C_32
REMARK                            x       y       z     vdW  Elec       q    Type
REMARK                         _______ _______ _______ _____ _____    ______ ____
ROOT
ATOM      1  C   UNL     1      -4.615   1.006   2.645  0.00  0.00    +0.042 C 
ATOM      2  C   UNL     1      -4.385  -0.505   2.574  0.00  0.00    +0.083 C 
ATOM      3  C   UNL     1      -3.502  -0.943   3.747  0.00  0.00    +0.110 C 
ATOM      4  C   UNL     1      -3.179  -2.412   3.583  0.00  0.00    +0.150 C 
ATOM      5  O   UNL     1      -3.361  -3.191   4.488  0.00  0.00    -0.296 OA
ATOM      6  C   UNL     1      -2.621  -2.879   2.257  0.00  0.00    +0.172 C 
ATOM      7  C   UNL     1      -3.535  -2.371   1.138  0.00  0.00    +0.056 C 
ATOM      8  C   UNL     1      -3.689  -0.854   1.257  0.00  0.00    +0.138 C 
ENDROOT
BRANCH   7   9
ATOM      9  C   UNL     1      -2.929  -2.711  -0.199  0.00  0.00    -0.040 A 
ATOM     10  C   UNL     1      -3.734  -2.795  -1.321  0.00  0.00    +0.004 A 
ATOM     11  C   UNL     1      -3.181  -3.102  -2.551  0.00  0.00    +0.002 A 
ATOM     12  C   UNL     1      -1.824  -3.336  -2.661  0.00  0.00    +0.023 A 
ATOM     13  C   UNL     1      -1.014  -3.257  -1.536  0.00  0.00    +0.025 A 
ATOM     14  C   UNL     1      -1.572  -2.944  -0.302  0.00  0.00    +0.026 A 
BRANCH  13  15
ATOM     15  N   UNL     1       0.359  -3.494  -1.643  0.00  0.00    -0.358 N 
ATOM     16  H   UNL     1       0.923  -3.439  -0.856  0.00  0.00    +0.142 HD
ATOM     17  H   UNL     1       0.747  -3.713  -2.505  0.00  0.00    +0.142 HD
ENDBRANCH  13  15
ENDBRANCH   7   9
BRANCH   8  18
ATOM     18  C   UNL     1      -2.328  -0.208   1.224  0.00  0.00    +0.314 C 
ATOM     19  O   UNL     1      -1.333  -0.893   1.248  0.00  0.00    -0.250 OA
BRANCH  18  20
ATOM     20  O   UNL     1      -2.220   1.129   1.166  0.00  0.00    -0.459 OA
BRANCH  20  21
ATOM     21  C   UNL     1      -0.878   1.682   1.137  0.00  0.00    +0.105 C 
ATOM     22  C   UNL     1      -0.137   1.156  -0.095  0.00  0.00    +0.055 C 
ATOM     23  C   UNL     1      -0.126   1.263   2.401  0.00  0.00    +0.055 C 
ATOM     24  C   UNL     1      -0.956   3.208   1.072  0.00  0.00    +0.055 C 
ENDBRANCH  20  21
ENDBRANCH  18  20
ENDBRANCH   8  18
BRANCH   6  25
ATOM     25  C   UNL     1      -2.576  -4.385   2.230  0.00  0.00    +0.319 C 
ATOM     26  O   UNL     1      -3.196  -4.993   1.389  0.00  0.00    -0.250 OA
BRANCH  25  27
ATOM     27  O   UNL     1      -1.847  -5.052   3.139  0.00  0.00    -0.458 OA
BRANCH  27  28
ATOM     28  C   UNL     1      -1.851  -6.502   3.052  0.00  0.00    +0.105 C 
ATOM     29  C   UNL     1      -1.303  -6.932   1.690  0.00  0.00    +0.055 C 
ATOM     30  C   UNL     1      -0.972  -7.081   4.162  0.00  0.00    +0.055 C 
ATOM     31  C   UNL     1      -3.282  -7.019   3.213  0.00  0.00    +0.055 C 
ENDBRANCH  27  28
ENDBRANCH  25  27
ENDBRANCH   6  25
BRANCH   2  32
ATOM     32  O   UNL     1      -5.641  -1.182   2.643  0.00  0.00    -0.388 OA
ATOM     33  H   UNL     1      -6.138  -1.007   3.454  0.00  0.00    +0.210 HD
ENDBRANCH   2  32
TORSDOF 9
