REMARK  Name = ZINC03288694
REMARK  6 active torsions:
REMARK  status: ('A' for Active; 'I' for Inactive)
REMARK    1  A    between atoms: C_1  and  C_2
REMARK    2  A    between atoms: C_7  and  O_8
REMARK    3  A    between atoms: O_8  and  C_9
REMARK    4  A    between atoms: C_9  and  C_10
REMARK    5  A    between atoms: C_13  and  C_30
REMARK    6  A    between atoms: C_19  and  C_20
REMARK                            x       y       z     vdW  Elec       q    Type
REMARK                         _______ _______ _______ _____ _____    ______ ____
ROOT
ATOM      1  C   UNL     1       0.286   0.128   4.848  0.00  0.00    +0.270 C 
ATOM      2  O   UNL     1       0.233   1.330   4.702  0.00  0.00    -0.270 OA
ATOM      3  N   UNL     1       0.150  -0.409   6.076  0.00  0.00    -0.208 N 
ATOM      4  C   UNL     1      -0.075   0.318   7.339  0.00  0.00    +0.155 C 
ATOM      5  C   UNL     1      -0.151  -0.756   8.390  0.00  0.00    -0.021 C 
ATOM      6  C   UNL     1       0.014  -1.939   7.771  0.00  0.00    +0.049 C 
ATOM      7  N   UNL     1       0.187  -1.772   6.409  0.00  0.00    -0.261 N 
ATOM      8  C   UNL     1      -0.006  -3.209   8.536  0.00  0.00    -0.024 C 
ATOM      9  C   UNL     1      -0.075  -4.409   7.932  0.00  0.00    +0.013 C 
ATOM     10  C   UNL     1       0.056  -3.064  10.047  0.00  0.00    +0.037 C 
ATOM     11  C   UNL     1      -0.873  -1.917  10.459  0.00  0.00    +0.009 C 
ATOM     12  C   UNL     1      -0.370  -0.595   9.870  0.00  0.00    +0.035 C 
ATOM     13  H   UNL     1       0.319  -2.494   5.774  0.00  0.00    +0.170 HD
ENDROOT
BRANCH   9  14
ATOM     14  C   UNL     1       0.076  -5.641   8.724  0.00  0.00    -0.025 A 
ATOM     15  C   UNL     1      -0.605  -6.803   8.351  0.00  0.00    +0.011 A 
ATOM     16  C   UNL     1      -0.459  -7.954   9.096  0.00  0.00    +0.039 A 
ATOM     17  C   UNL     1       0.361  -7.960  10.213  0.00  0.00    +0.123 A 
ATOM     18  C   UNL     1       1.039  -6.811  10.589  0.00  0.00    +0.039 A 
ATOM     19  C   UNL     1       0.906  -5.656   9.849  0.00  0.00    +0.011 A 
ATOM     20  F   UNL     1       0.499  -9.091  10.940  0.00  0.00    -0.205 F 
ENDBRANCH   9  14
BRANCH   4  21
ATOM     21  C   UNL     1      -1.368   1.089   7.277  0.00  0.00    -0.021 A 
ATOM     22  C   UNL     1      -2.474   0.535   6.659  0.00  0.00    +0.008 A 
ATOM     23  C   UNL     1      -3.660   1.241   6.603  0.00  0.00    +0.038 A 
ATOM     24  C   UNL     1      -3.742   2.503   7.166  0.00  0.00    +0.123 A 
ATOM     25  C   UNL     1      -2.634   3.057   7.785  0.00  0.00    +0.038 A 
ATOM     26  C   UNL     1      -1.450   2.347   7.845  0.00  0.00    +0.008 A 
ATOM     27  F   UNL     1      -4.901   3.195   7.111  0.00  0.00    -0.205 F 
ENDBRANCH   4  21
BRANCH   1  28
ATOM     28  C   UNL     1       0.506  -0.767   3.655  0.00  0.00    +0.326 C 
BRANCH  28  29
ATOM     29  O   UNL     1       0.619   0.031   2.475  0.00  0.00    -0.482 OA
BRANCH  29  36
ATOM     30  C   UNL     1       0.846   1.591   0.131  0.00  0.00    +0.047 C 
ATOM     31  C   UNL     1       0.941   0.087   0.119  0.00  0.00    -0.009 A 
ATOM     32  C   UNL     1       1.152  -0.583  -1.071  0.00  0.00    +0.007 A 
ATOM     33  C   UNL     1       1.239  -1.962  -1.083  0.00  0.00    +0.000 A 
ATOM     34  C   UNL     1       1.114  -2.676   0.095  0.00  0.00    +0.004 A 
ATOM     35  C   UNL     1       0.903  -2.011   1.287  0.00  0.00    +0.046 A 
ATOM     36  C   UNL     1       0.821  -0.626   1.303  0.00  0.00    +0.124 A 
ENDBRANCH  29  36
ENDBRANCH  28  29
ENDBRANCH   1  28
TORSDOF 5
