REMARK  Name = ZINC17048436
REMARK  13 active torsions:
REMARK  status: ('A' for Active; 'I' for Inactive)
REMARK    1  A    between atoms: C_1  and  C_2
REMARK    2  A    between atoms: C_2  and  C_4
REMARK    3  A    between atoms: C_2  and  O_16
REMARK    4  A    between atoms: N_6  and  C_7
REMARK    5  A    between atoms: C_12  and  C_13
REMARK    6  A    between atoms: C_13  and  C_15
REMARK    7  A    between atoms: O_16  and  C_17
REMARK    8  A    between atoms: C_17  and  C_19
REMARK    9  A    between atoms: C_19  and  N_20
REMARK   10  A    between atoms: C_26  and  C_29
REMARK   11  A    between atoms: C_29  and  C_30
REMARK   12  A    between atoms: C_29  and  C_31
REMARK   13  A    between atoms: C_29  and  C_32
REMARK                            x       y       z     vdW  Elec       q    Type
REMARK                         _______ _______ _______ _____ _____    ______ ____
ROOT
ATOM      1  C   UNL     1       2.796   7.861  -2.170  0.00  0.00    +0.326 C 
ATOM      2  O   UNL     1       3.473   7.133  -1.483  0.00  0.00    -0.249 OA
ENDROOT
BRANCH   1   3
ATOM      3  O   UNL     1       3.213   9.107  -2.442  0.00  0.00    -0.451 OA
BRANCH   3   5
ATOM      4  C   UNL     1       4.259  10.140  -0.501  0.00  0.00    +0.062 C 
ATOM      5  C   UNL     1       4.487   9.514  -1.878  0.00  0.00    +0.259 C 
BRANCH   5   6
ATOM      6  C   UNL     1       5.140  10.523  -2.787  0.00  0.00    +0.258 C 
ATOM      7  O   UNL     1       4.547  10.934  -3.762  0.00  0.00    -0.271 OA
ATOM      8  N   UNL     1       6.383  10.969  -2.517  0.00  0.00    -0.282 N 
ATOM      9  H   UNL     1       6.832  10.691  -1.703  0.00  0.00    +0.155 HD
BRANCH   8  10
ATOM     10  C   UNL     1       7.022  11.829  -3.405  0.00  0.00    +0.044 A 
ATOM     11  C   UNL     1       6.290  12.779  -4.106  0.00  0.00    +0.024 A 
ATOM     12  C   UNL     1       6.927  13.634  -4.982  0.00  0.00    +0.002 A 
ATOM     13  C   UNL     1       8.296  13.547  -5.180  0.00  0.00    +0.001 A 
ATOM     14  C   UNL     1       9.040  12.608  -4.500  0.00  0.00    +0.013 A 
ATOM     15  C   UNL     1       8.410  11.736  -3.603  0.00  0.00    +0.038 A 
BRANCH  15  16
ATOM     16  C   UNL     1       9.195  10.733  -2.874  0.00  0.00    +0.162 C 
ATOM     17  O   UNL     1       8.635   9.918  -2.172  0.00  0.00    -0.292 OA
ATOM     18  C   UNL     1      10.697  10.715  -2.999  0.00  0.00    +0.091 C 
ENDBRANCH  15  16
ENDBRANCH   8  10
ENDBRANCH   5   6
ENDBRANCH   3   5
ENDBRANCH   1   3
BRANCH   1  19
ATOM     19  C   UNL     1       1.482   7.368  -2.721  0.00  0.00    +0.238 C 
BRANCH  19  20
ATOM     20  N   UNL     1       1.256   5.988  -2.284  0.00  0.00    -0.213 N 
ATOM     21  C   UNL     1       0.617   5.648  -1.147  0.00  0.00    +0.247 C 
ATOM     22  O   UNL     1       0.137   6.397  -0.323  0.00  0.00    -0.273 OA
ATOM     23  C   UNL     1       0.623   4.137  -1.116  0.00  0.00    +0.113 C 
ATOM     24  C   UNL     1       1.379   3.633   0.109  0.00  0.00    +0.035 C 
ATOM     25  C   UNL     1       1.398   2.103   0.107  0.00  0.00    +0.006 C 
ATOM     26  C   UNL     1      -0.038   1.576   0.121  0.00  0.00    -0.005 C 
ATOM     27  C   UNL     1      -0.776   2.069  -1.126  0.00  0.00    +0.006 C 
ATOM     28  C   UNL     1      -0.804   3.599  -1.129  0.00  0.00    +0.035 C 
ATOM     29  N   UNL     1       1.327   3.758  -2.348  0.00  0.00    -0.285 N 
ATOM     30  C   UNL     1       1.659   4.908  -2.965  0.00  0.00    +0.310 C 
ATOM     31  O   UNL     1       2.258   4.959  -4.022  0.00  0.00    -0.252 OA
ATOM     32  H   UNL     1       1.516   2.858  -2.656  0.00  0.00    +0.151 HD
BRANCH  26  33
ATOM     33  C   UNL     1      -0.020   0.046   0.132  0.00  0.00    -0.035 C 
ATOM     34  C   UNL     1       0.716  -0.447   1.379  0.00  0.00    +0.011 C 
ATOM     35  C   UNL     1      -1.457  -0.481   0.146  0.00  0.00    +0.011 C 
ATOM     36  C   UNL     1       0.698  -0.464  -1.120  0.00  0.00    +0.011 C 
ENDBRANCH  26  33
ENDBRANCH  19  20
ENDBRANCH   1  19
TORSDOF 8
