REMARK  Name = ZINC58987129
REMARK  8 active torsions:
REMARK  status: ('A' for Active; 'I' for Inactive)
REMARK    1  A    between atoms: C_3  and  C_8
REMARK    2  A    between atoms: N_9  and  N_10
REMARK    3  A    between atoms: C_11  and  C_13
REMARK    4  A    between atoms: C_13  and  S_14
REMARK    5  A    between atoms: S_14  and  C_15
REMARK    6  A    between atoms: C_18  and  C_21
REMARK    7  A    between atoms: N_19  and  N_20
REMARK    8  A    between atoms: C_25  and  N_27
REMARK                            x       y       z     vdW  Elec       q    Type
REMARK                         _______ _______ _______ _____ _____    ______ ____
ROOT
ATOM      1  C   UNL     1      11.277   2.222  -0.096  0.00  0.00    +0.209 A 
ATOM      2  N   UNL     1      11.283   3.536  -0.083  0.00  0.00    -0.121 NA
ATOM      3  N   UNL     1      12.492   3.972  -0.094  0.00  0.00    -0.127 NA
ATOM      4  C   UNL     1      13.332   2.963  -0.114  0.00  0.00    +0.182 A 
ATOM      5  N   UNL     1      12.579   1.812  -0.111  0.00  0.00    -0.224 N 
ENDROOT
BRANCH   4   6
ATOM      6  C   UNL     1      14.807   3.049  -0.131  0.00  0.00    +0.023 A 
ATOM      7  C   UNL     1      15.571   1.930  -0.470  0.00  0.00    +0.012 A 
ATOM      8  C   UNL     1      16.947   2.017  -0.484  0.00  0.00    +0.003 A 
ATOM      9  C   UNL     1      17.572   3.209  -0.163  0.00  0.00    +0.033 A 
ATOM     10  C   UNL     1      16.821   4.322   0.173  0.00  0.00    +0.127 A 
ATOM     11  C   UNL     1      15.443   4.250   0.185  0.00  0.00    +0.044 A 
BRANCH  10  12
ATOM     12  N   UNL     1      17.498   5.593   0.515  0.00  0.00    +0.056 N 
ATOM     13  O   UNL     1      18.705   5.659   0.500  0.00  0.00    -0.126 OA
ATOM     14  O   UNL     1      16.843   6.566   0.809  0.00  0.00    -0.126 OA
ENDBRANCH  10  12
ENDBRANCH   4   6
BRANCH   5  15
ATOM     15  N   UNL     1      13.039   0.525  -0.122  0.00  0.00    -0.295 N 
ATOM     16  H   UNL     1      13.152   0.190  -1.067  0.00  0.00    +0.163 HD
ATOM     17  H   UNL     1      13.902   0.445   0.396  0.00  0.00    +0.163 HD
ENDBRANCH   5  15
BRANCH   1  18
ATOM     18  S   UNL     1       9.854   1.183  -0.087  0.00  0.00    -0.075 S 
BRANCH  18  19
ATOM     19  C   UNL     1       8.462   2.346  -0.068  0.00  0.00    +0.174 C 
BRANCH  19  21
ATOM     20  N   UNL     1       5.991   2.238  -0.044  0.00  0.00    -0.206 N 
ATOM     21  C   UNL     1       7.165   1.577  -0.059  0.00  0.00    +0.242 C 
ATOM     22  O   UNL     1       7.179   0.364  -0.065  0.00  0.00    -0.273 OA
ATOM     23  H   UNL     1       5.979   3.208  -0.039  0.00  0.00    +0.177 HD
BRANCH  20  25
ATOM     24  C   UNL     1       3.654   2.159  -0.022  0.00  0.00    +0.138 C 
ATOM     25  N   UNL     1       4.785   1.524  -0.036  0.00  0.00    -0.188 NA
BRANCH  24  28
ATOM     26  C   UNL     1      -0.017   1.379   0.010  0.00  0.00    +0.002 A 
ATOM     27  C   UNL     1       1.167   2.088   0.002  0.00  0.00    +0.009 A 
ATOM     28  C   UNL     1       2.386   1.407  -0.013  0.00  0.00    -0.004 A 
ATOM     29  C   UNL     1       2.398   0.011  -0.021  0.00  0.00    +0.024 A 
ATOM     30  C   UNL     1       1.207  -0.686  -0.013  0.00  0.00    +0.018 A 
ATOM     31  C   UNL     1       0.002  -0.004   0.002  0.00  0.00    +0.015 A 
ATOM     32 BR   UNL     1       1.220  -2.577  -0.024  0.00  0.00    -0.050 Br
ENDBRANCH  24  28
ENDBRANCH  20  25
ENDBRANCH  19  21
ENDBRANCH  18  19
ENDBRANCH   1  18
TORSDOF 8
