REMARK  Name = ZINC20699460
REMARK  2 active torsions:
REMARK  status: ('A' for Active; 'I' for Inactive)
REMARK    1  A    between atoms: C_6  and  C_7
REMARK    2  A    between atoms: C_17  and  N_24
REMARK                            x       y       z     vdW  Elec       q    Type
REMARK                         _______ _______ _______ _____ _____    ______ ____
ROOT
ATOM      1  C   UNL     1       0.891   1.877   0.586  0.00  0.00    +0.105 C 
ATOM      2  C   UNL     1      -0.564   1.437   0.535  0.00  0.00    +0.029 C 
ATOM      3  C   UNL     1      -1.411   2.261   1.536  0.00  0.00    +0.033 C 
ATOM      4  C   UNL     1      -2.787   2.293   0.843  0.00  0.00    -0.030 C 
ATOM      5  C   UNL     1      -2.665   2.064  -0.440  0.00  0.00    -0.023 C 
ATOM      6  C   UNL     1      -1.206   1.842  -0.807  0.00  0.00    +0.051 C 
ATOM      7  C   UNL     1      -0.643   3.167  -1.291  0.00  0.00    +0.014 A 
ATOM      8  C   UNL     1      -1.190   3.711  -2.447  0.00  0.00    +0.132 A 
ATOM      9  C   UNL     1      -0.713   4.901  -2.958  0.00  0.00    +0.036 A 
ATOM     10  C   UNL     1       0.318   5.565  -2.318  0.00  0.00    +0.042 A 
ATOM     11  C   UNL     1       0.867   5.034  -1.168  0.00  0.00    +0.145 A 
ATOM     12  C   UNL     1       0.385   3.830  -0.650  0.00  0.00    +0.069 A 
ATOM     13  N   UNL     1       0.974   3.337   0.516  0.00  0.00    -0.334 N 
ATOM     14  F   UNL     1       1.873   5.681  -0.542  0.00  0.00    -0.204 F 
ATOM     15  H   UNL     1       1.459   3.899   1.327  0.00  0.00    +0.147 HD
ENDROOT
BRANCH   1  21
ATOM     16  C   UNL     1       1.232   0.064  -1.106  0.00  0.00    +0.007 A 
ATOM     17  C   UNL     1       1.912  -0.485  -2.177  0.00  0.00    +0.020 A 
ATOM     18  C   UNL     1       3.003   0.175  -2.715  0.00  0.00    +0.041 A 
ATOM     19  C   UNL     1       3.409   1.386  -2.183  0.00  0.00    +0.020 A 
ATOM     20  C   UNL     1       2.725   1.936  -1.116  0.00  0.00    +0.007 A 
ATOM     21  C   UNL     1       1.635   1.276  -0.579  0.00  0.00    -0.027 A 
ATOM     22 CL   UNL     1       3.862  -0.517  -4.055  0.00  0.00    -0.084 Cl
ENDBRANCH   1  21
BRANCH   8  23
ATOM     23  N   UNL     1      -2.293   3.007  -3.138  0.00  0.00    +0.057 N 
ATOM     24  O   UNL     1      -2.292   1.791  -3.206  0.00  0.00    -0.126 OA
ATOM     25  O   UNL     1      -3.203   3.644  -3.639  0.00  0.00    -0.126 OA
ENDBRANCH   8  23
TORSDOF 2
