REMARK  Name = ZINC03201688
REMARK  11 active torsions:
REMARK  status: ('A' for Active; 'I' for Inactive)
REMARK    1  A    between atoms: C_1  and  C_2
REMARK    2  A    between atoms: C_3  and  C_25
REMARK    3  A    between atoms: C_6  and  N_24
REMARK    4  A    between atoms: C_7  and  C_11
REMARK    5  A    between atoms: C_11  and  C_13
REMARK    6  A    between atoms: C_15  and  C_22
REMARK    7  A    between atoms: C_16  and  S_20
REMARK    8  A    between atoms: C_18  and  C_19
REMARK    9  A    between atoms: S_20  and  C_21
REMARK   10  A    between atoms: C_25  and  O_27
REMARK   11  A    between atoms: O_27  and  C_28
REMARK                            x       y       z     vdW  Elec       q    Type
REMARK                         _______ _______ _______ _____ _____    ______ ____
ROOT
ATOM      1  C   UNL     1      10.135   3.381   0.702  0.00  0.00    +0.066 C 
ATOM      2  C   UNL     1       9.125   2.278   0.514  0.00  0.00    +0.053 A 
ATOM      3  C   UNL     1       9.534   0.939   0.570  0.00  0.00    +0.081 A 
ATOM      4  C   UNL     1       8.604  -0.081   0.398  0.00  0.00    +0.029 A 
ATOM      5  C   UNL     1       7.252   0.259   0.167  0.00  0.00    +0.030 A 
ATOM      6  C   UNL     1       6.117  -0.628  -0.040  0.00  0.00    +0.052 A 
ATOM      7  C   UNL     1       4.876  -0.064  -0.249  0.00  0.00    +0.083 A 
ATOM      8  S   UNL     1       5.200   1.687  -0.181  0.00  0.00    -0.064 S 
ATOM      9  C   UNL     1       6.949   1.642   0.130  0.00  0.00    +0.111 A 
ATOM     10  N   UNL     1       7.862   2.577   0.298  0.00  0.00    -0.244 NA
ENDROOT
BRANCH   6  11
ATOM     11  N   UNL     1       6.279  -2.004  -0.028  0.00  0.00    -0.356 N 
ATOM     12  H   UNL     1       5.514  -2.584  -0.167  0.00  0.00    +0.142 HD
ATOM     13  H   UNL     1       7.158  -2.388   0.120  0.00  0.00    +0.142 HD
ENDBRANCH   6  11
BRANCH   7  14
ATOM     14  C   UNL     1       3.640  -0.718  -0.471  0.00  0.00    +0.203 C 
ATOM     15  O   UNL     1       3.572  -1.933  -0.393  0.00  0.00    -0.286 OA
BRANCH  14  16
ATOM     16  C   UNL     1       2.435   0.070  -0.798  0.00  0.00    +0.045 A 
ATOM     17  C   UNL     1       1.417   0.233   0.149  0.00  0.00    +0.035 A 
ATOM     18  C   UNL     1       0.299   0.986  -0.206  0.00  0.00    +0.084 A 
ATOM     19  C   UNL     1       0.239   1.550  -1.496  0.00  0.00    +0.114 A 
ATOM     20  N   UNL     1       1.229   1.369  -2.360  0.00  0.00    -0.244 NA
ATOM     21  C   UNL     1       2.297   0.663  -2.056  0.00  0.00    +0.050 A 
ATOM     22  C   UNL     1       3.389   0.492  -3.080  0.00  0.00    +0.066 C 
BRANCH  19  23
ATOM     23  S   UNL     1      -1.161   2.513  -1.963  0.00  0.00    -0.108 S 
ATOM     24  C   UNL     1      -0.686   2.958  -3.652  0.00  0.00    +0.091 C 
ENDBRANCH  19  23
BRANCH  18  25
ATOM     25  C   UNL     1      -0.771   1.185   0.725  0.00  0.00    +0.102 C 
ATOM     26  N   UNL     1      -1.620   1.342   1.463  0.00  0.00    -0.191 NA
ENDBRANCH  18  25
ENDBRANCH  14  16
ENDBRANCH   7  14
BRANCH   3  27
ATOM     27  C   UNL     1      10.951   0.611   0.812  0.00  0.00    +0.341 C 
ATOM     28  O   UNL     1      11.748   1.497   1.048  0.00  0.00    -0.245 OA
BRANCH  27  29
ATOM     29  O   UNL     1      11.363  -0.671   0.772  0.00  0.00    -0.464 OA
ATOM     30  C   UNL     1      12.771  -0.920   1.019  0.00  0.00    +0.280 C 
ENDBRANCH  27  29
ENDBRANCH   3  27
TORSDOF 7
