REMARK  Name = ZINC39732562
REMARK  2 active torsions:
REMARK  status: ('A' for Active; 'I' for Inactive)
REMARK    1  A    between atoms: C_2  and  C_3
REMARK    2  A    between atoms: C_3  and  N_4
REMARK                            x       y       z     vdW  Elec       q    Type
REMARK                         _______ _______ _______ _____ _____    ______ ____
ROOT
ATOM      1  N   UNL     1      -1.318  -1.700  -1.126  0.00  0.00    -0.244 N 
ATOM      2  C   UNL     1      -1.825  -1.275  -2.300  0.00  0.00    +0.255 C 
ATOM      3  O   UNL     1      -2.256  -0.145  -2.426  0.00  0.00    -0.269 OA
ATOM      4  C   UNL     1      -1.839  -2.237  -3.443  0.00  0.00    +0.067 C 
ATOM      5  C   UNL     1      -2.428  -2.028  -4.672  0.00  0.00    -0.042 C 
ATOM      6  C   UNL     1      -3.366  -0.864  -4.728  0.00  0.00    +0.033 C 
ATOM      7  C   UNL     1      -4.785  -1.303  -4.349  0.00  0.00    +0.004 C 
ATOM      8  C   UNL     1      -5.236  -2.306  -5.369  0.00  0.00    +0.000 C 
ATOM      9  C   UNL     1      -4.480  -3.609  -5.393  0.00  0.00    +0.001 C 
ATOM     10  C   UNL     1      -3.353  -3.559  -6.411  0.00  0.00    +0.019 C 
ATOM     11  C   UNL     1      -2.086  -3.089  -5.666  0.00  0.00    +0.079 C 
ATOM     12  S   UNL     1      -1.372  -4.446  -4.676  0.00  0.00    -0.100 S 
ATOM     13  C   UNL     1      -1.258  -3.560  -3.141  0.00  0.00    +0.101 C 
ATOM     14  N   UNL     1      -0.802  -3.841  -1.948  0.00  0.00    -0.185 NA
ATOM     15  C   UNL     1      -0.830  -2.938  -0.965  0.00  0.00    +0.164 C 
ATOM     16  S   UNL     1      -0.223  -3.384   0.573  0.00  0.00    -0.016 S 
ENDROOT
BRANCH   1  17
ATOM     17  C   UNL     1      -1.293  -0.775   0.010  0.00  0.00    +0.142 C 
BRANCH  17  19
ATOM     18  C   UNL     1      -0.016   1.306   0.009  0.00  0.00    +0.005 C 
ATOM     19  C   UNL     1       0.002  -0.004   0.002  0.00  0.00    -0.015 C 
ENDBRANCH  17  19
ENDBRANCH   1  17
TORSDOF 2
