REMARK  Name = ZINC23474428
REMARK  9 active torsions:
REMARK  status: ('A' for Active; 'I' for Inactive)
REMARK    1  A    between atoms: C_1  and  C_2
REMARK    2  A    between atoms: C_2  and  C_3
REMARK    3  A    between atoms: C_3  and  C_25
REMARK    4  A    between atoms: N_6  and  C_10
REMARK    5  A    between atoms: C_10  and  N_11
REMARK    6  A    between atoms: N_14  and  C_17
REMARK    7  A    between atoms: C_17  and  C_18
REMARK    8  A    between atoms: C_28  and  O_31
REMARK    9  A    between atoms: O_31  and  C_32
REMARK                            x       y       z     vdW  Elec       q    Type
REMARK                         _______ _______ _______ _____ _____    ______ ____
ROOT
ATOM      1  C   UNL     1      -6.595   0.020   5.906  0.00  0.00    +0.138 C 
ATOM      2  C   UNL     1      -6.164   1.347   5.312  0.00  0.00    +0.252 C 
ATOM      3  O   UNL     1      -6.878   2.196   4.823  0.00  0.00    -0.272 OA
ATOM      4  N   UNL     1      -4.823   1.385   5.440  0.00  0.00    -0.210 N 
ATOM      5  C   UNL     1      -4.352   0.282   6.032  0.00  0.00    +0.311 C 
ATOM      6  O   UNL     1      -3.174   0.088   6.260  0.00  0.00    -0.252 OA
ATOM      7  N   UNL     1      -5.328  -0.589   6.347  0.00  0.00    -0.281 N 
ATOM      8  H   UNL     1      -5.331  -1.578   6.829  0.00  0.00    +0.152 HD
ENDROOT
BRANCH   1   9
ATOM      9  C   UNL     1      -7.515   0.238   7.079  0.00  0.00    -0.015 A 
ATOM     10  C   UNL     1      -8.885   0.214   6.895  0.00  0.00    +0.010 A 
ATOM     11  C   UNL     1      -9.730   0.409   7.970  0.00  0.00    +0.046 A 
ATOM     12  C   UNL     1      -9.204   0.640   9.233  0.00  0.00    +0.120 A 
ATOM     13  C   UNL     1      -7.829   0.669   9.413  0.00  0.00    +0.046 A 
ATOM     14  C   UNL     1      -6.987   0.468   8.336  0.00  0.00    +0.010 A 
BRANCH  12  15
ATOM     15  O   UNL     1     -10.034   0.838  10.291  0.00  0.00    -0.495 OA
ATOM     16  C   UNL     1     -11.438   0.794  10.031  0.00  0.00    +0.277 C 
ENDBRANCH  12  15
ENDBRANCH   1   9
BRANCH   1  18
ATOM     17  C   UNL     1      -6.293  -1.119   3.702  0.00  0.00    +0.007 C 
ATOM     18  C   UNL     1      -7.272  -0.854   4.848  0.00  0.00    +0.037 C 
ENDBRANCH   1  18
BRANCH   4  19
ATOM     19  C   UNL     1      -3.986   2.500   4.991  0.00  0.00    +0.205 C 
BRANCH  19  20
ATOM     20  N   UNL     1      -3.565   2.269   3.603  0.00  0.00    -0.290 NA
ATOM     21  C   UNL     1      -3.258   3.537   2.927  0.00  0.00    +0.067 C 
ATOM     22  C   UNL     1      -2.901   3.260   1.465  0.00  0.00    -0.063 C 
ATOM     23  N   UNL     1      -1.753   2.345   1.408  0.00  0.00    +0.384 N 
ATOM     24  C   UNL     1      -2.060   1.077   2.084  0.00  0.00    -0.063 C 
ATOM     25  C   UNL     1      -2.416   1.354   3.546  0.00  0.00    +0.067 C 
ATOM     26  H   UNL     1      -0.914   2.819   1.940  0.00  0.00    -0.081 HD
BRANCH  23  27
ATOM     27  C   UNL     1      -1.332   2.114   0.020  0.00  0.00    -0.043 C 
BRANCH  27  28
ATOM     28  C   UNL     1      -0.017   1.378   0.010  0.00  0.00    -0.064 A 
ATOM     29  C   UNL     1       1.171   2.086   0.002  0.00  0.00    +0.003 A 
ATOM     30  C   UNL     1       2.377   1.412  -0.013  0.00  0.00    +0.020 A 
ATOM     31  C   UNL     1       2.397   0.029  -0.021  0.00  0.00    +0.041 A 
ATOM     32  C   UNL     1       1.208  -0.679  -0.013  0.00  0.00    +0.020 A 
ATOM     33  C   UNL     1       0.002  -0.004   0.002  0.00  0.00    +0.003 A 
ATOM     34 CL   UNL     1       3.912  -0.818  -0.039  0.00  0.00    -0.084 Cl
ENDBRANCH  27  28
ENDBRANCH  23  27
ENDBRANCH  19  20
ENDBRANCH   4  19
TORSDOF 7
