REMARK  Name = ZINC29193885
REMARK  8 active torsions:
REMARK  status: ('A' for Active; 'I' for Inactive)
REMARK    1  A    between atoms: C_1  and  C_2
REMARK    2  A    between atoms: C_2  and  C_4
REMARK    3  A    between atoms: C_2  and  N_12
REMARK    4  A    between atoms: C_13  and  C_15
REMARK    5  A    between atoms: C_15  and  N_16
REMARK    6  A    between atoms: N_19  and  S_22
REMARK    7  A    between atoms: S_22  and  C_25
REMARK    8  A    between atoms: C_28  and  C_31
REMARK                            x       y       z     vdW  Elec       q    Type
REMARK                         _______ _______ _______ _____ _____    ______ ____
ROOT
ATOM      1  N   UNL     1       0.659  -2.295  -0.900  0.00  0.00    +0.387 N 
ATOM      2  C   UNL     1       0.154  -2.852   0.361  0.00  0.00    -0.061 C 
ATOM      3  C   UNL     1      -0.392  -4.262   0.111  0.00  0.00    +0.091 C 
ATOM      4  N   UNL     1       0.655  -5.059  -0.546  0.00  0.00    -0.180 NA
ATOM      5  C   UNL     1       1.306  -4.502  -1.742  0.00  0.00    +0.091 C 
ATOM      6  C   UNL     1       1.786  -3.083  -1.418  0.00  0.00    -0.061 C 
ATOM      7  H   UNL     1      -0.154  -2.348  -1.639  0.00  0.00    -0.081 HD
ENDROOT
BRANCH   4   8
ATOM      8  S   UNL     1       1.089  -6.543   0.044  0.00  0.00    +0.061 S 
ATOM      9  O   UNL     1      -0.023  -7.028   0.784  0.00  0.00    -0.153 OA
ATOM     10  O   UNL     1       1.653  -7.264  -1.043  0.00  0.00    -0.153 OA
BRANCH   8  11
ATOM     11  C   UNL     1       2.390  -6.283   1.204  0.00  0.00    +0.106 A 
ATOM     12  C   UNL     1       3.706  -6.301   0.777  0.00  0.00    +0.030 A 
ATOM     13  C   UNL     1       4.730  -6.092   1.679  0.00  0.00    +0.021 A 
ATOM     14  C   UNL     1       4.435  -5.874   3.026  0.00  0.00    +0.052 A 
ATOM     15  C   UNL     1       3.105  -5.863   3.450  0.00  0.00    +0.021 A 
ATOM     16  C   UNL     1       2.091  -6.067   2.537  0.00  0.00    +0.030 A 
BRANCH  14  17
ATOM     17  C   UNL     1       5.492  -5.662   3.968  0.00  0.00    +0.099 C 
ATOM     18  N   UNL     1       6.331  -5.494   4.716  0.00  0.00    -0.191 NA
ENDBRANCH  14  17
ENDBRANCH   8  11
ENDBRANCH   4   8
BRANCH   1  19
ATOM     19  C   UNL     1       1.034  -0.883  -0.740  0.00  0.00    +0.019 C 
BRANCH  19  21
ATOM     20  N   UNL     1      -0.096   1.264  -0.260  0.00  0.00    -0.310 N 
ATOM     21  C   UNL     1      -0.198  -0.067  -0.446  0.00  0.00    +0.197 C 
ATOM     22  O   UNL     1      -1.282  -0.607  -0.378  0.00  0.00    -0.278 OA
ATOM     23  H   UNL     1       0.887   1.754  -0.318  0.00  0.00    +0.149 HD
BRANCH  20  25
ATOM     24  C   UNL     1      -1.562   2.066   1.526  0.00  0.00    +0.033 C 
ATOM     25  C   UNL     1      -1.295   2.059   0.019  0.00  0.00    +0.101 C 
BRANCH  25  26
ATOM     26  C   UNL     1      -1.084   3.472  -0.460  0.00  0.00    -0.009 A 
ATOM     27  C   UNL     1       0.194   3.995  -0.527  0.00  0.00    +0.008 A 
ATOM     28  C   UNL     1       0.389   5.291  -0.966  0.00  0.00    +0.020 A 
ATOM     29  C   UNL     1      -0.696   6.066  -1.339  0.00  0.00    +0.042 A 
ATOM     30  C   UNL     1      -1.975   5.542  -1.273  0.00  0.00    +0.040 A 
ATOM     31  C   UNL     1      -2.168   4.243  -0.838  0.00  0.00    +0.047 A 
ATOM     32 CL   UNL     1      -3.772   3.583  -0.762  0.00  0.00    -0.083 Cl
ATOM     33 CL   UNL     1      -0.452   7.693  -1.891  0.00  0.00    -0.083 Cl
ENDBRANCH  25  26
ENDBRANCH  20  25
ENDBRANCH  19  21
ENDBRANCH   1  19
TORSDOF 7
