REMARK  Name = ZINC12683503
REMARK  6 active torsions:
REMARK  status: ('A' for Active; 'I' for Inactive)
REMARK    1  A    between atoms: C_12  and  C_18
REMARK    2  A    between atoms: C_18  and  O_20
REMARK    3  A    between atoms: O_20  and  C_21
REMARK    4  A    between atoms: C_21  and  C_22
REMARK    5  A    between atoms: N_24  and  C_25
REMARK    6  A    between atoms: C_26  and  C_30
REMARK                            x       y       z     vdW  Elec       q    Type
REMARK                         _______ _______ _______ _____ _____    ______ ____
ROOT
ATOM      1  C   UNL     1      -0.014   1.210   0.009  0.00  0.00    +0.341 C 
ATOM      2  O   UNL     1       0.002  -0.004   0.002  0.00  0.00    -0.245 OA
ENDROOT
BRANCH   1  14
ATOM      3  C   UNL     1      -8.690   3.258   0.060  0.00  0.00    +0.001 A 
ATOM      4  C   UNL     1      -8.679   1.875   0.051  0.00  0.00    +0.001 A 
ATOM      5  C   UNL     1      -7.480   1.184   0.042  0.00  0.00    +0.012 A 
ATOM      6  C   UNL     1      -6.276   1.882   0.042  0.00  0.00    +0.033 A 
ATOM      7  C   UNL     1      -6.287   3.289   0.050  0.00  0.00    +0.033 A 
ATOM      8  C   UNL     1      -7.502   3.969   0.059  0.00  0.00    +0.012 A 
ATOM      9  C   UNL     1      -5.014   4.038   0.049  0.00  0.00    +0.195 C 
ATOM     10  O   UNL     1      -5.024   5.253   0.056  0.00  0.00    -0.287 OA
ATOM     11  C   UNL     1      -3.727   3.307   0.039  0.00  0.00    +0.035 A 
ATOM     12  C   UNL     1      -2.525   4.009   0.037  0.00  0.00    +0.013 A 
ATOM     13  C   UNL     1      -1.323   3.327   0.032  0.00  0.00    +0.017 A 
ATOM     14  C   UNL     1      -1.304   1.932   0.019  0.00  0.00    +0.078 A 
ATOM     15  C   UNL     1      -2.505   1.216   0.021  0.00  0.00    +0.066 A 
ATOM     16  C   UNL     1      -3.718   1.900   0.030  0.00  0.00    +0.052 A 
ATOM     17  C   UNL     1      -4.992   1.152   0.032  0.00  0.00    +0.196 C 
ATOM     18  O   UNL     1      -4.983  -0.063   0.025  0.00  0.00    -0.287 OA
ATOM     19 CL   UNL     1      -2.484  -0.520   0.011  0.00  0.00    -0.082 Cl
ENDBRANCH   1  14
BRANCH   1  20
ATOM     20  O   UNL     1       1.143   1.900   0.001  0.00  0.00    -0.452 OA
BRANCH  20  21
ATOM     21  C   UNL     1       2.371   1.125  -0.015  0.00  0.00    +0.328 C 
BRANCH  21  22
ATOM     22  C   UNL     1       3.554   2.060  -0.021  0.00  0.00    +0.255 C 
ATOM     23  O   UNL     1       3.378   3.260  -0.013  0.00  0.00    -0.272 OA
ATOM     24  N   UNL     1       4.806   1.562  -0.035  0.00  0.00    -0.277 N 
ATOM     25  H   UNL     1       4.946   0.602  -0.042  0.00  0.00    +0.155 HD
BRANCH  24  26
ATOM     26  C   UNL     1       5.894   2.421  -0.041  0.00  0.00    +0.084 A 
ATOM     27  C   UNL     1       7.247   2.102  -0.050  0.00  0.00    +0.065 A 
ATOM     28  C   UNL     1       8.175   3.207  -0.058  0.00  0.00    +0.022 A 
ATOM     29  C   UNL     1       7.653   4.447  -0.046  0.00  0.00    +0.048 A 
ATOM     30  S   UNL     1       5.897   4.153  -0.031  0.00  0.00    -0.081 S 
BRANCH  27  31
ATOM     31  C   UNL     1       7.708   0.710  -0.055  0.00  0.00    +0.244 C 
ATOM     32  O   UNL     1       6.899  -0.200  -0.051  0.00  0.00    -0.270 OA
ATOM     33  N   UNL     1       9.028   0.438  -0.064  0.00  0.00    -0.325 N 
ATOM     34  H   UNL     1       9.673   1.163  -0.067  0.00  0.00    +0.145 HD
ATOM     35  H   UNL     1       9.333  -0.483  -0.067  0.00  0.00    +0.145 HD
ENDBRANCH  27  31
ENDBRANCH  24  26
ENDBRANCH  21  22
ENDBRANCH  20  21
ENDBRANCH   1  20
TORSDOF 6
