REMARK  Name = ZINC09070860
REMARK  15 active torsions:
REMARK  status: ('A' for Active; 'I' for Inactive)
REMARK    1  A    between atoms: C_1  and  C_2
REMARK    2  A    between atoms: C_2  and  O_3
REMARK    3  A    between atoms: O_3  and  C_4
REMARK    4  A    between atoms: C_4  and  C_6
REMARK    5  A    between atoms: C_7  and  C_36
REMARK    6  A    between atoms: C_8  and  C_13
REMARK    7  A    between atoms: C_9  and  C_12
REMARK    8  A    between atoms: C_13  and  C_15
REMARK    9  A    between atoms: N_19  and  C_29
REMARK   10  A    between atoms: C_20  and  C_22
REMARK   11  A    between atoms: C_29  and  C_30
REMARK   12  A    between atoms: C_30  and  C_31
REMARK   13  A    between atoms: C_31  and  N_32
REMARK   14  A    between atoms: N_32  and  C_33
REMARK   15  A    between atoms: N_32  and  C_34
REMARK                            x       y       z     vdW  Elec       q    Type
REMARK                         _______ _______ _______ _____ _____    ______ ____
ROOT
ATOM      1  C   UNL     1       3.446  -4.037  -6.573  0.00  0.00    +0.076 C 
ATOM      2  C   UNL     1       3.873  -4.872  -7.548  0.00  0.00    +0.249 C 
ATOM      3  C   UNL     1       4.911  -4.191  -8.350  0.00  0.00    +0.288 C 
ATOM      4  O   UNL     1       5.489  -4.679  -9.301  0.00  0.00    -0.266 OA
ATOM      5  N   UNL     1       5.121  -2.951  -7.872  0.00  0.00    -0.284 N 
ATOM      6  C   UNL     1       4.222  -2.750  -6.730  0.00  0.00    +0.145 C 
ATOM      7  O   UNL     1       3.420  -6.130  -7.757  0.00  0.00    -0.282 OA
ENDROOT
BRANCH   6   8
ATOM      8  C   UNL     1       3.279  -1.607  -7.003  0.00  0.00    -0.021 A 
ATOM      9  C   UNL     1       2.636  -1.518  -8.223  0.00  0.00    +0.006 A 
ATOM     10  C   UNL     1       1.771  -0.470  -8.475  0.00  0.00    +0.002 A 
ATOM     11  C   UNL     1       1.549   0.491  -7.506  0.00  0.00    +0.020 A 
ATOM     12  C   UNL     1       2.192   0.403  -6.285  0.00  0.00    +0.041 A 
ATOM     13  C   UNL     1       3.053  -0.650  -6.032  0.00  0.00    +0.025 A 
ATOM     14 CL   UNL     1       1.914   1.609  -5.068  0.00  0.00    -0.084 Cl
ENDBRANCH   6   8
BRANCH   1  15
ATOM     15  C   UNL     1       2.424  -4.324  -5.561  0.00  0.00    +0.197 C 
ATOM     16  O   UNL     1       1.250  -4.118  -5.807  0.00  0.00    -0.287 OA
BRANCH  15  19
ATOM     17  C   UNL     1       2.730  -5.693  -2.175  0.00  0.00    +0.128 A 
ATOM     18  C   UNL     1       1.948  -5.259  -3.206  0.00  0.00    -0.008 A 
ATOM     19  C   UNL     1       2.818  -4.862  -4.246  0.00  0.00    +0.046 A 
ATOM     20  C   UNL     1       4.110  -5.075  -3.798  0.00  0.00    +0.025 A 
ATOM     21  N   UNL     1       4.050  -5.569  -2.551  0.00  0.00    -0.352 N 
ATOM     22  H   UNL     1       4.815  -5.804  -2.003  0.00  0.00    +0.166 HD
ATOM     23  C   UNL     1       5.370  -4.794  -4.575  0.00  0.00    +0.064 C 
ATOM     24  C   UNL     1       0.442  -5.212  -3.230  0.00  0.00    +0.047 C 
BRANCH  17  25
ATOM     25  C   UNL     1       2.248  -6.198  -0.886  0.00  0.00    +0.356 C 
ATOM     26  O   UNL     1       1.054  -6.262  -0.665  0.00  0.00    -0.243 OA
BRANCH  25  27
ATOM     27  O   UNL     1       3.129  -6.593   0.056  0.00  0.00    -0.460 OA
BRANCH  27  29
ATOM     28  C   UNL     1       3.733  -7.472   2.225  0.00  0.00    +0.048 C 
ATOM     29  C   UNL     1       2.590  -7.074   1.288  0.00  0.00    +0.229 C 
ENDBRANCH  27  29
ENDBRANCH  25  27
ENDBRANCH  17  25
ENDBRANCH  15  19
ENDBRANCH   1  15
BRANCH   5  30
ATOM     30  C   UNL     1       6.073  -1.973  -8.403  0.00  0.00    +0.107 C 
BRANCH  30  31
ATOM     31  C   UNL     1       5.386  -1.119  -9.470  0.00  0.00    +0.000 C 
BRANCH  31  32
ATOM     32  C   UNL     1       6.381  -0.097 -10.024  0.00  0.00    -0.078 C 
BRANCH  32  33
ATOM     33  N   UNL     1       5.721   0.723 -11.049  0.00  0.00    +0.376 N 
ATOM     34  C   UNL     1       4.653   1.518 -10.428  0.00  0.00    -0.097 C 
ATOM     35  C   UNL     1       6.706   1.623 -11.665  0.00  0.00    -0.097 C 
ATOM     36  H   UNL     1       5.326   0.122 -11.757  0.00  0.00    -0.083 HD
ENDBRANCH  32  33
ENDBRANCH  31  32
ENDBRANCH  30  31
ENDBRANCH   5  30
TORSDOF 10
