REMARK  Name = ZINC09646744
REMARK  4 active torsions:
REMARK  status: ('A' for Active; 'I' for Inactive)
REMARK    1  A    between atoms: C_3  and  N_8
REMARK    2  A    between atoms: C_13  and  C_14
REMARK    3  A    between atoms: C_13  and  N_51
REMARK    4  A    between atoms: C_20  and  C_25
REMARK                            x       y       z     vdW  Elec       q    Type
REMARK                         _______ _______ _______ _____ _____    ______ ____
ROOT
ATOM      1  C   UNL     1      -1.220   3.239   0.031  0.00  0.00    +0.094 A 
ATOM      2  N   UNL     1      -1.183   1.882   0.018  0.00  0.00    -0.312 N 
ATOM      3  H   UNL     1      -2.015   1.384   0.019  0.00  0.00    +0.170 HD
ATOM      4  C   UNL     1      -0.015   1.215   0.009  0.00  0.00    +0.260 A 
ATOM      5  O   UNL     1       0.002  -0.004   0.002  0.00  0.00    -0.267 OA
ATOM      6  C   UNL     1       1.209   1.958   0.001  0.00  0.00    +0.080 A 
ATOM      7  C   UNL     1       2.583   1.473  -0.015  0.00  0.00    +0.004 A 
ATOM      8  C   UNL     1       3.593   2.376  -0.020  0.00  0.00    +0.056 A 
ATOM      9  S   UNL     1       2.745   3.943  -0.004  0.00  0.00    -0.076 S 
ATOM     10  C   UNL     1       1.071   3.356   0.010  0.00  0.00    +0.116 A 
ATOM     11  N   UNL     1      -0.121   3.945   0.025  0.00  0.00    -0.229 NA
ENDROOT
BRANCH   7  12
ATOM     12  C   UNL     1       2.871   0.018  -0.026  0.00  0.00    -0.016 A 
ATOM     13  C   UNL     1       2.259  -0.822   0.903  0.00  0.00    +0.011 A 
ATOM     14  C   UNL     1       2.526  -2.176   0.886  0.00  0.00    +0.039 A 
ATOM     15  C   UNL     1       3.408  -2.699  -0.045  0.00  0.00    +0.123 A 
ATOM     16  C   UNL     1       4.022  -1.867  -0.967  0.00  0.00    +0.039 A 
ATOM     17  C   UNL     1       3.758  -0.512  -0.962  0.00  0.00    +0.011 A 
ATOM     18  F   UNL     1       3.670  -4.024  -0.055  0.00  0.00    -0.205 F 
ENDBRANCH   7  12
BRANCH   1  19
ATOM     19  C   UNL     1      -2.553   3.943   0.048  0.00  0.00    -0.003 C 
BRANCH  19  25
ATOM     20  N   UNL     1      -2.686   8.053   1.017  0.00  0.00    -0.333 N 
ATOM     21  C   UNL     1      -3.323   7.620  -0.235  0.00  0.00    +0.086 C 
ATOM     22  C   UNL     1      -3.600   6.116  -0.169  0.00  0.00    -0.059 C 
ATOM     23  C   UNL     1      -1.702   5.830   1.305  0.00  0.00    -0.059 C 
ATOM     24  C   UNL     1      -1.424   7.334   1.239  0.00  0.00    +0.086 C 
ATOM     25  N   UNL     1      -2.321   5.404   0.033  0.00  0.00    +0.386 N 
ATOM     26  H   UNL     1      -1.686   5.633  -0.741  0.00  0.00    -0.081 HD
BRANCH  20  29
ATOM     27  C   UNL     1      -2.667  11.566  -0.062  0.00  0.00    +0.003 A 
ATOM     28  C   UNL     1      -2.866  10.199  -0.072  0.00  0.00    +0.023 A 
ATOM     29  C   UNL     1      -2.482   9.435   1.022  0.00  0.00    +0.031 A 
ATOM     30  C   UNL     1      -1.891  10.047   2.120  0.00  0.00    +0.043 A 
ATOM     31  C   UNL     1      -1.690  11.414   2.122  0.00  0.00    +0.043 A 
ATOM     32  C   UNL     1      -2.078  12.173   1.031  0.00  0.00    +0.020 A 
ATOM     33 CL   UNL     1      -0.950  12.181   3.493  0.00  0.00    -0.083 Cl
ENDBRANCH  20  29
ENDBRANCH  19  25
ENDBRANCH   1  19
TORSDOF 4
