REMARK  Name = ZINC08686620
REMARK  2 active torsions:
REMARK  status: ('A' for Active; 'I' for Inactive)
REMARK    1  A    between atoms: C_6  and  C_7
REMARK    2  A    between atoms: C_17  and  C_19
REMARK                            x       y       z     vdW  Elec       q    Type
REMARK                         _______ _______ _______ _____ _____    ______ ____
ROOT
ATOM      1  C   UNL     1      -1.262  -0.761   0.011  0.00  0.00    +0.013 C 
ATOM      2  C   UNL     1      -1.244  -2.101  -0.098  0.00  0.00    -0.023 C 
ATOM      3  C   UNL     1       0.064  -2.864  -0.112  0.00  0.00    +0.037 C 
ATOM      4  C   UNL     1      -0.066  -3.957  -1.182  0.00  0.00    +0.009 C 
ATOM      5  C   UNL     1      -1.188  -4.909  -0.780  0.00  0.00    +0.035 C 
ATOM      6  C   UNL     1      -2.472  -4.171  -0.514  0.00  0.00    -0.022 C 
ATOM      7  C   UNL     1      -2.498  -2.871  -0.202  0.00  0.00    +0.045 C 
ATOM      8  N   UNL     1      -3.709  -2.209   0.029  0.00  0.00    -0.337 N 
ATOM      9  C   UNL     1      -4.898  -2.808  -0.283  0.00  0.00    +0.144 C 
ATOM     10  N   UNL     1      -4.867  -4.035  -0.900  0.00  0.00    -0.314 N 
ATOM     11  C   UNL     1      -3.770  -4.949  -0.572  0.00  0.00    +0.131 C 
ATOM     12  S   UNL     1      -6.343  -2.073   0.075  0.00  0.00    -0.016 SA
ATOM     13  H   UNL     1      -5.549  -4.289  -1.541  0.00  0.00    +0.149 HD
ATOM     14  H   UNL     1      -3.706  -1.318   0.414  0.00  0.00    +0.168 HD
ENDROOT
BRANCH   1  20
ATOM     15  C   UNL     1       0.177   1.253  -0.244  0.00  0.00    +0.011 A 
ATOM     16  C   UNL     1       1.347   1.935   0.015  0.00  0.00    +0.039 A 
ATOM     17  C   UNL     1       2.333   1.353   0.797  0.00  0.00    +0.123 A 
ATOM     18  C   UNL     1       2.149   0.084   1.323  0.00  0.00    +0.039 A 
ATOM     19  C   UNL     1       0.984  -0.608   1.071  0.00  0.00    +0.011 A 
ATOM     20  C   UNL     1      -0.014  -0.027   0.283  0.00  0.00    -0.025 A 
ATOM     21  F   UNL     1       3.478   2.026   1.047  0.00  0.00    -0.205 F 
ENDBRANCH   1  20
BRANCH  11  22
ATOM     22  C   UNL     1      -4.042  -5.577   0.770  0.00  0.00    -0.023 A 
ATOM     23  C   UNL     1      -4.590  -4.819   1.789  0.00  0.00    +0.008 A 
ATOM     24  C   UNL     1      -4.840  -5.393   3.021  0.00  0.00    +0.038 A 
ATOM     25  C   UNL     1      -4.543  -6.728   3.234  0.00  0.00    +0.123 A 
ATOM     26  C   UNL     1      -3.994  -7.487   2.214  0.00  0.00    +0.038 A 
ATOM     27  C   UNL     1      -3.750  -6.911   0.981  0.00  0.00    +0.008 A 
ATOM     28  F   UNL     1      -4.787  -7.291   4.438  0.00  0.00    -0.205 F 
ENDBRANCH  11  22
TORSDOF 2
