REMARK  Name = ZINC37190738
REMARK  5 active torsions:
REMARK  status: ('A' for Active; 'I' for Inactive)
REMARK    1  A    between atoms: C_4  and  C_7
REMARK    2  A    between atoms: C_9  and  C_12
REMARK    3  A    between atoms: C_12  and  S_13
REMARK    4  A    between atoms: S_13  and  C_14
REMARK    5  A    between atoms: C_15  and  N_20
REMARK                            x       y       z     vdW  Elec       q    Type
REMARK                         _______ _______ _______ _____ _____    ______ ____
ROOT
ATOM      1  C   UNL     1       3.699  -0.689  -0.037  0.00  0.00    +0.202 A 
ATOM      2  N   UNL     1       3.853  -2.025  -0.051  0.00  0.00    -0.191 NA
ATOM      3  C   UNL     1       5.120  -2.328  -0.065  0.00  0.00    +0.238 A 
ATOM      4  O   UNL     1       5.828  -1.191  -0.059  0.00  0.00    -0.337 OA
ATOM      5  N   UNL     1       4.884  -0.131  -0.046  0.00  0.00    -0.056 NA
ENDROOT
BRANCH   1   9
ATOM      6  C   UNL     1      -0.017   1.379   0.010  0.00  0.00    +0.000 A 
ATOM      7  C   UNL     1       1.169   2.092   0.002  0.00  0.00    +0.001 A 
ATOM      8  C   UNL     1       2.377   1.426  -0.013  0.00  0.00    +0.012 A 
ATOM      9  C   UNL     1       2.402   0.033  -0.021  0.00  0.00    +0.022 A 
ATOM     10  C   UNL     1       1.205  -0.680  -0.013  0.00  0.00    +0.012 A 
ATOM     11  C   UNL     1       0.002  -0.004   0.002  0.00  0.00    +0.001 A 
ENDBRANCH   1   9
BRANCH   3  12
ATOM     12  C   UNL     1       5.692  -3.722  -0.082  0.00  0.00    +0.174 C 
BRANCH  12  13
ATOM     13  S   UNL     1       5.907  -4.266  -1.799  0.00  0.00    -0.095 S 
BRANCH  13  14
ATOM     14  C   UNL     1       6.574  -5.890  -1.651  0.00  0.00    +0.118 A 
ATOM     15  C   UNL     1       6.876  -6.624  -2.802  0.00  0.00    +0.057 A 
ATOM     16  C   UNL     1       7.401  -7.901  -2.667  0.00  0.00    +0.027 A 
ATOM     17  C   UNL     1       7.606  -8.400  -1.387  0.00  0.00    +0.022 A 
ATOM     18  C   UNL     1       7.284  -7.619  -0.296  0.00  0.00    +0.112 A 
ATOM     19  N   UNL     1       6.791  -6.404  -0.451  0.00  0.00    -0.247 NA
BRANCH  15  20
ATOM     20  N   UNL     1       6.652  -6.078  -4.072  0.00  0.00    -0.356 N 
ATOM     21  H   UNL     1       6.285  -5.184  -4.158  0.00  0.00    +0.142 HD
ATOM     22  H   UNL     1       6.865  -6.593  -4.866  0.00  0.00    +0.142 HD
ENDBRANCH  15  20
ENDBRANCH  13  14
ENDBRANCH  12  13
ENDBRANCH   3  12
TORSDOF 5
