REMARK  Name = ZINC39634236
REMARK  6 active torsions:
REMARK  status: ('A' for Active; 'I' for Inactive)
REMARK    1  A    between atoms: C_1  and  C_2
REMARK    2  A    between atoms: C_5  and  C_8
REMARK    3  A    between atoms: C_8  and  N_9
REMARK    4  A    between atoms: C_10  and  C_12
REMARK    5  A    between atoms: C_23  and  C_25
REMARK    6  A    between atoms: C_31  and  C_33
REMARK                            x       y       z     vdW  Elec       q    Type
REMARK                         _______ _______ _______ _____ _____    ______ ____
ROOT
ATOM      1  C   UNL     1       3.137  -6.551  -0.051  0.00  0.00    +0.100 C 
ATOM      2  C   UNL     1       3.900  -6.003   1.176  0.00  0.00    +0.121 C 
ATOM      3  N   UNL     1       3.805  -7.081   2.188  0.00  0.00    -0.299 N 
ATOM      4  C   UNL     1       3.966  -8.333   1.411  0.00  0.00    +0.115 C 
ATOM      5  C   UNL     1       3.185  -8.081   0.105  0.00  0.00    -0.004 C 
ATOM      6  C   UNL     1       1.772  -8.645   0.219  0.00  0.00    -0.010 C 
ATOM      7  C   UNL     1       1.844 -10.171   0.316  0.00  0.00    -0.082 C 
ATOM      8  N   UNL     1       2.512 -10.709  -0.875  0.00  0.00    +0.379 N 
ATOM      9  C   UNL     1       3.901 -10.234  -0.927  0.00  0.00    -0.082 C 
ATOM     10  C   UNL     1       3.916  -8.710  -1.077  0.00  0.00    -0.010 C 
ATOM     11  C   UNL     1       3.615  -6.952   3.517  0.00  0.00    +0.236 C 
ATOM     12  O   UNL     1       3.560  -7.939   4.220  0.00  0.00    -0.274 OA
ATOM     13  H   UNL     1       2.504 -11.717  -0.838  0.00  0.00    -0.086 HD
ATOM     14  H   UNL     1       2.022 -10.401  -1.702  0.00  0.00    -0.086 HD
ENDROOT
BRANCH  11  15
ATOM     15  C   UNL     1       3.472  -5.582   4.128  0.00  0.00    +0.162 C 
ATOM     16  C   UNL     1       4.864  -4.944   4.316  0.00  0.00    +0.033 C 
ATOM     17  C   UNL     1       4.728  -4.208   5.676  0.00  0.00    +0.021 C 
ATOM     18  C   UNL     1       3.808  -5.175   6.462  0.00  0.00    +0.109 C 
ATOM     19  N   UNL     1       2.854  -5.690   5.457  0.00  0.00    -0.283 N 
ATOM     20  C   UNL     1       1.624  -6.176   5.714  0.00  0.00    +0.320 C 
ATOM     21  O   UNL     1       0.926  -6.573   4.805  0.00  0.00    -0.266 OA
BRANCH  20  22
ATOM     22  C   UNL     1       1.115  -6.228   7.132  0.00  0.00    +0.470 C 
ATOM     23  F   UNL     1      -0.176  -6.768   7.145  0.00  0.00    -0.162 F 
ATOM     24  F   UNL     1       1.964  -7.030   7.903  0.00  0.00    -0.162 F 
ATOM     25  F   UNL     1       1.085  -4.935   7.664  0.00  0.00    -0.162 F 
ENDBRANCH  20  22
ENDBRANCH  11  15
BRANCH   1  27
ATOM     26  N   UNL     1       1.040  -5.919  -1.200  0.00  0.00    -0.311 N 
ATOM     27  C   UNL     1       1.710  -6.067  -0.040  0.00  0.00    +0.218 C 
ATOM     28  O   UNL     1       1.164  -5.812   1.012  0.00  0.00    -0.275 OA
ATOM     29  H   UNL     1       1.477  -6.124  -2.042  0.00  0.00    +0.149 HD
BRANCH  26  30
ATOM     30  C   UNL     1      -0.347  -5.449  -1.190  0.00  0.00    +0.139 C 
BRANCH  30  35
ATOM     31  C   UNL     1      -2.322  -5.146  -6.613  0.00  0.00    +0.044 C 
ATOM     32  C   UNL     1      -1.807  -5.225  -5.199  0.00  0.00    -0.050 A 
ATOM     33  C   UNL     1      -1.953  -6.393  -4.474  0.00  0.00    +0.003 A 
ATOM     34  C   UNL     1      -1.480  -6.466  -3.177  0.00  0.00    +0.005 A 
ATOM     35  C   UNL     1      -0.861  -5.370  -2.605  0.00  0.00    -0.030 A 
ATOM     36  C   UNL     1      -0.714  -4.202  -3.329  0.00  0.00    +0.005 A 
ATOM     37  C   UNL     1      -1.183  -4.131  -4.628  0.00  0.00    +0.003 A 
ENDBRANCH  30  35
ENDBRANCH  26  30
ENDBRANCH   1  27
TORSDOF 5
