REMARK  Name = ZINC64525977
REMARK  6 active torsions:
REMARK  status: ('A' for Active; 'I' for Inactive)
REMARK    1  A    between atoms: C_1  and  C_2
REMARK    2  A    between atoms: N_4  and  C_5
REMARK    3  A    between atoms: C_8  and  C_11
REMARK    4  A    between atoms: C_14  and  C_17
REMARK    5  A    between atoms: C_24  and  C_26
REMARK    6  A    between atoms: C_26  and  C_27
REMARK                            x       y       z     vdW  Elec       q    Type
REMARK                         _______ _______ _______ _____ _____    ______ ____
ROOT
ATOM      1  C   UNL     1      -0.539  -9.225  -2.802  0.00  0.00    +0.068 C 
ATOM      2  C   UNL     1      -0.541 -10.642  -2.225  0.00  0.00    +0.012 C 
ATOM      3  C   UNL     1      -1.696 -11.441  -2.833  0.00  0.00    +0.019 C 
ATOM      4  C   UNL     1      -3.023 -10.769  -2.470  0.00  0.00    +0.108 C 
ATOM      5  N   UNL     1      -2.973  -9.363  -2.894  0.00  0.00    -0.301 N 
ATOM      6  C   UNL     1      -1.853  -8.527  -2.440  0.00  0.00    +0.116 C 
ATOM      7  C   UNL     1      -3.936  -8.849  -3.685  0.00  0.00    +0.220 C 
ATOM      8  O   UNL     1      -3.883  -7.687  -4.028  0.00  0.00    -0.275 OA
ENDROOT
BRANCH   1  12
ATOM      9  C   UNL     1       0.438  -6.296  -1.424  0.00  0.00    +0.168 C 
ATOM     10  N   UNL     1       0.450  -7.075  -0.393  0.00  0.00    -0.067 NA
ATOM     11  O   UNL     1       0.570  -8.430  -0.784  0.00  0.00    -0.369 OA
ATOM     12  C   UNL     1       0.636  -8.437  -2.218  0.00  0.00    +0.296 C 
ATOM     13  N   UNL     1       0.540  -7.019  -2.599  0.00  0.00    -0.289 N 
ATOM     14  H   UNL     1       0.550  -6.660  -3.500  0.00  0.00    +0.151 HD
BRANCH   9  18
ATOM     15  C   UNL     1       0.109  -2.063  -1.232  0.00  0.00    +0.033 A 
ATOM     16  C   UNL     1       0.118  -2.812  -0.061  0.00  0.00    +0.024 A 
ATOM     17  C   UNL     1       0.224  -4.184  -0.120  0.00  0.00    +0.013 A 
ATOM     18  C   UNL     1       0.323  -4.822  -1.357  0.00  0.00    +0.018 A 
ATOM     19  C   UNL     1       0.313  -4.068  -2.532  0.00  0.00    +0.013 A 
ATOM     20  C   UNL     1       0.201  -2.696  -2.466  0.00  0.00    +0.024 A 
BRANCH  15  24
ATOM     21  C   UNL     1       0.558   1.512  -0.148  0.00  0.00    +0.109 C 
ATOM     22  C   UNL     1       0.586   0.005  -0.161  0.00  0.00    +0.214 C 
ATOM     23  O   UNL     1       1.136  -0.599   0.736  0.00  0.00    -0.276 OA
ATOM     24  N   UNL     1       0.000  -0.672  -1.169  0.00  0.00    -0.286 N 
ATOM     25  H   UNL     1      -0.497  -0.192  -1.850  0.00  0.00    +0.155 HD
ENDBRANCH  15  24
ENDBRANCH   9  18
ENDBRANCH   1  12
BRANCH   7  26
ATOM     26  C   UNL     1      -5.078  -9.719  -4.144  0.00  0.00    +0.129 C 
BRANCH  26  27
ATOM     27  C   UNL     1      -6.009  -8.910  -5.010  0.00  0.00    -0.033 C 
ATOM     28  C   UNL     1      -6.005  -8.836  -6.360  0.00  0.00    -0.001 A 
ATOM     29  C   UNL     1      -5.164  -9.462  -7.388  0.00  0.00    +0.010 A 
ATOM     30  C   UNL     1      -5.406  -9.189  -8.690  0.00  0.00    +0.001 A 
ATOM     31  C   UNL     1      -6.438  -8.325  -9.082  0.00  0.00    +0.002 A 
ATOM     32  C   UNL     1      -7.252  -7.713  -8.197  0.00  0.00    +0.026 A 
ATOM     33  C   UNL     1      -7.088  -7.928  -6.800  0.00  0.00    +0.043 A 
ATOM     34  N   UNL     1      -7.737  -7.459  -5.762  0.00  0.00    -0.380 N 
ATOM     35  C   UNL     1      -7.141  -8.022  -4.545  0.00  0.00    +0.145 C 
ATOM     36  H   UNL     1      -8.487  -6.846  -5.794  0.00  0.00    +0.160 HD
ENDBRANCH  26  27
ENDBRANCH   7  26
TORSDOF 5
