REMARK  Name = ZINC61676570
REMARK  6 active torsions:
REMARK  status: ('A' for Active; 'I' for Inactive)
REMARK    1  A    between atoms: C_1  and  C_2
REMARK    2  A    between atoms: C_2  and  C_3
REMARK    3  A    between atoms: C_3  and  C_5
REMARK    4  A    between atoms: C_3  and  N_8
REMARK    5  A    between atoms: N_8  and  C_9
REMARK    6  A    between atoms: C_12  and  C_16
REMARK                            x       y       z     vdW  Elec       q    Type
REMARK                         _______ _______ _______ _____ _____    ______ ____
ROOT
ATOM      1  N   UNL     1      -0.217  -0.178  -2.479  0.00  0.00    -0.331 N 
ATOM      2  H   UNL     1      -0.239  -1.018  -2.965  0.00  0.00    +0.147 HD
ENDROOT
BRANCH   1   3
ATOM      3  C   UNL     1      -0.016   1.022  -3.167  0.00  0.00    +0.056 A 
ATOM      4  C   UNL     1       1.130   1.773  -2.937  0.00  0.00    +0.040 A 
ATOM      5  C   UNL     1       1.325   2.959  -3.619  0.00  0.00    +0.020 A 
ATOM      6  C   UNL     1       0.381   3.399  -4.528  0.00  0.00    -0.048 A 
ATOM      7  C   UNL     1      -0.762   2.655  -4.759  0.00  0.00    +0.020 A 
ATOM      8  C   UNL     1      -0.960   1.465  -4.085  0.00  0.00    +0.040 A 
ATOM      9 BR   UNL     1      -2.519   0.444  -4.407  0.00  0.00    -0.048 Br
ATOM     10  C   UNL     1       0.597   4.694  -5.269  0.00  0.00    +0.044 C 
ATOM     11 BR   UNL     1       2.422   1.173  -1.693  0.00  0.00    -0.048 Br
ENDBRANCH   1   3
BRANCH   1  12
ATOM     12  C   UNL     1      -0.393  -0.169  -1.025  0.00  0.00    +0.156 C 
BRANCH  12  13
ATOM     13  C   UNL     1       0.388  -1.306  -0.417  0.00  0.00    +0.231 C 
ATOM     14  O   UNL     1       1.028  -2.051  -1.129  0.00  0.00    -0.274 OA
ATOM     15  N   UNL     1       0.374  -1.496   0.917  0.00  0.00    -0.328 N 
ATOM     16  H   UNL     1      -0.138  -0.900   1.486  0.00  0.00    +0.145 HD
ATOM     17  H   UNL     1       0.876  -2.228   1.308  0.00  0.00    +0.145 HD
ENDBRANCH  12  13
BRANCH  12  19
ATOM     18  C   UNL     1      -2.642   0.912  -1.144  0.00  0.00    +0.006 C 
ATOM     19  C   UNL     1      -1.877  -0.332  -0.690  0.00  0.00    +0.028 C 
ENDBRANCH  12  19
ENDBRANCH   1  12
TORSDOF 4
