REMARK  Name = ZINC29649603
REMARK  9 active torsions:
REMARK  status: ('A' for Active; 'I' for Inactive)
REMARK    1  A    between atoms: C_1  and  C_2
REMARK    2  A    between atoms: C_7  and  C_8
REMARK    3  A    between atoms: N_10  and  C_11
REMARK    4  A    between atoms: C_11  and  C_13
REMARK    5  A    between atoms: C_11  and  C_16
REMARK    6  A    between atoms: C_13  and  C_14
REMARK    7  A    between atoms: C_13  and  C_15
REMARK    8  A    between atoms: C_16  and  N_18
REMARK    9  A    between atoms: N_20  and  C_24
REMARK                            x       y       z     vdW  Elec       q    Type
REMARK                         _______ _______ _______ _____ _____    ______ ____
ROOT
ATOM      1  C   UNL     1       0.578   0.067   4.894  0.00  0.00    +0.164 C 
ENDROOT
BRANCH   1   4
ATOM      2  C   UNL     1       0.242   0.021   2.481  0.00  0.00    +0.245 C 
ATOM      3  O   UNL     1       0.135   1.232   2.503  0.00  0.00    -0.270 OA
ATOM      4  N   UNL     1       0.465  -0.656   3.625  0.00  0.00    -0.300 N 
ATOM      5  H   UNL     1       0.551  -1.622   3.607  0.00  0.00    +0.150 HD
BRANCH   2  12
ATOM      6  C   UNL     1      -0.511   1.452   0.082  0.00  0.00    +0.044 C 
ATOM      7  C   UNL     1      -0.234  -0.028   0.036  0.00  0.00    -0.038 A 
ATOM      8  C   UNL     1      -0.334  -0.714  -1.157  0.00  0.00    +0.004 A 
ATOM      9  C   UNL     1      -0.080  -2.073  -1.200  0.00  0.00    +0.000 A 
ATOM     10  C   UNL     1       0.275  -2.754  -0.049  0.00  0.00    +0.001 A 
ATOM     11  C   UNL     1       0.378  -2.081   1.150  0.00  0.00    +0.013 A 
ATOM     12  C   UNL     1       0.128  -0.708   1.200  0.00  0.00    +0.040 A 
ENDBRANCH   2  12
ENDBRANCH   1   4
BRANCH   1  13
ATOM     13  C   UNL     1      -0.818   0.298   5.475  0.00  0.00    +0.012 C 
ATOM     14  C   UNL     1      -1.650   1.123   4.491  0.00  0.00    +0.009 C 
ATOM     15  C   UNL     1      -1.501  -1.050   5.715  0.00  0.00    +0.009 C 
ENDBRANCH   1  13
BRANCH   1  16
ATOM     16  C   UNL     1       1.397  -0.746   5.863  0.00  0.00    +0.259 C 
ATOM     17  O   UNL     1       1.845  -1.826   5.526  0.00  0.00    -0.272 OA
BRANCH  16  18
ATOM     18  N   UNL     1       1.631  -0.283   7.085  0.00  0.00    -0.155 NA
ATOM     19  C   UNL     1       2.357  -1.003   7.943  0.00  0.00    +0.165 A 
ATOM     20  N   UNL     1       2.694  -0.700   9.226  0.00  0.00    -0.331 N 
ATOM     21  C   UNL     1       3.449  -1.584   9.932  0.00  0.00    +0.094 A 
ATOM     22  C   UNL     1       3.816  -2.710   9.311  0.00  0.00    +0.066 A 
ATOM     23  S   UNL     1       3.070  -2.507   7.704  0.00  0.00    -0.061 S 
ATOM     24  C   UNL     1       2.253   0.557   9.835  0.00  0.00    +0.150 C 
ENDBRANCH  16  18
ENDBRANCH   1  16
TORSDOF 5
