REMARK  Name = ZINC17343842
REMARK  4 active torsions:
REMARK  status: ('A' for Active; 'I' for Inactive)
REMARK    1  A    between atoms: C_1  and  C_2
REMARK    2  A    between atoms: C_6  and  C_16
REMARK    3  A    between atoms: N_8  and  C_9
REMARK    4  A    between atoms: C_21  and  C_24
REMARK                            x       y       z     vdW  Elec       q    Type
REMARK                         _______ _______ _______ _____ _____    ______ ____
ROOT
ATOM      1  C   UNL     1      -3.022   8.794   0.203  0.00  0.00    +0.274 C 
ATOM      2  O   UNL     1      -4.197   8.514   0.061  0.00  0.00    -0.268 OA
ATOM      3  N   UNL     1      -2.117   7.818   0.416  0.00  0.00    -0.259 N 
ATOM      4  C   UNL     1      -2.527   6.493   0.475  0.00  0.00    +0.165 A 
ATOM      5  N   UNL     1      -1.799   5.412   0.672  0.00  0.00    -0.225 NA
ATOM      6  C   UNL     1      -2.352   4.208   0.700  0.00  0.00    +0.082 A 
ATOM      7  C   UNL     1      -3.703   4.117   0.512  0.00  0.00    +0.077 A 
ATOM      8  S   UNL     1      -4.127   5.841   0.306  0.00  0.00    -0.060 S 
ATOM      9  H   UNL     1      -1.180   8.042   0.529  0.00  0.00    +0.157 HD
ENDROOT
BRANCH   6  10
ATOM     10  C   UNL     1      -1.528   2.994   0.922  0.00  0.00    +0.026 A 
ATOM     11  C   UNL     1      -1.970   1.715   0.966  0.00  0.00    +0.093 A 
ATOM     12  N   UNL     1      -0.918   0.870   1.193  0.00  0.00    -0.360 N 
ATOM     13  H   UNL     1      -0.986  -0.095   1.267  0.00  0.00    +0.165 HD
ATOM     14  C   UNL     1       0.253   1.589   1.296  0.00  0.00    +0.047 A 
ATOM     15  C   UNL     1      -0.073   2.947   1.132  0.00  0.00    +0.009 A 
ATOM     16  C   UNL     1       0.928   3.916   1.188  0.00  0.00    +0.010 A 
ATOM     17  C   UNL     1       2.225   3.540   1.404  0.00  0.00    +0.001 A 
ATOM     18  C   UNL     1       2.553   2.202   1.567  0.00  0.00    +0.002 A 
ATOM     19  C   UNL     1       1.578   1.229   1.514  0.00  0.00    +0.026 A 
ENDBRANCH   6  10
BRANCH   1  25
ATOM     20  C   UNL     1      -1.162  14.184  -0.006  0.00  0.00    +0.066 C 
ATOM     21  C   UNL     1      -1.733  12.790   0.035  0.00  0.00    +0.044 A 
ATOM     22  C   UNL     1      -3.064  12.608  -0.138  0.00  0.00    +0.076 A 
ATOM     23  C   UNL     1      -3.562  11.280  -0.092  0.00  0.00    +0.213 A 
ATOM     24  O   UNL     1      -4.751  11.040  -0.239  0.00  0.00    -0.285 OA
ATOM     25  C   UNL     1      -2.586  10.203   0.141  0.00  0.00    +0.193 A 
ATOM     26  N   UNL     1      -1.318  10.521   0.297  0.00  0.00    -0.158 NA
ATOM     27  N   UNL     1      -0.909  11.734   0.244  0.00  0.00    -0.236 N 
BRANCH  27  28
ATOM     28  C   UNL     1       0.457  11.982   0.416  0.00  0.00    +0.066 A 
ATOM     29  C   UNL     1       1.395  11.212  -0.259  0.00  0.00    +0.029 A 
ATOM     30  C   UNL     1       2.743  11.463  -0.091  0.00  0.00    +0.022 A 
ATOM     31  C   UNL     1       3.159  12.473   0.758  0.00  0.00    +0.041 A 
ATOM     32  C   UNL     1       2.227  13.239   1.436  0.00  0.00    +0.022 A 
ATOM     33  C   UNL     1       0.878  12.996   1.268  0.00  0.00    +0.029 A 
ATOM     34 CL   UNL     1       4.854  12.781   0.972  0.00  0.00    -0.084 Cl
ENDBRANCH  27  28
ENDBRANCH   1  25
TORSDOF 3
