REMARK  Name = ZINC12848373
REMARK  11 active torsions:
REMARK  status: ('A' for Active; 'I' for Inactive)
REMARK    1  A    between atoms: C_1  and  C_2
REMARK    2  A    between atoms: C_2  and  C_3
REMARK    3  A    between atoms: C_3  and  N_4
REMARK    4  A    between atoms: N_4  and  C_5
REMARK    5  A    between atoms: C_5  and  C_6
REMARK    6  A    between atoms: N_8  and  C_9
REMARK    7  A    between atoms: C_18  and  C_20
REMARK    8  A    between atoms: C_20  and  N_21
REMARK    9  A    between atoms: C_26  and  C_33
REMARK   10  A    between atoms: C_29  and  C_31
REMARK   11  A    between atoms: C_29  and  C_32
REMARK                            x       y       z     vdW  Elec       q    Type
REMARK                         _______ _______ _______ _____ _____    ______ ____
ROOT
ATOM      1  N   UNL     1      -5.137  -1.678   2.889  0.00  0.00    -0.291 N 
ATOM      2  C   UNL     1      -3.964  -1.209   2.419  0.00  0.00    +0.234 C 
ATOM      3  O   UNL     1      -3.639  -0.061   2.638  0.00  0.00    -0.274 OA
ENDROOT
BRANCH   1   4
ATOM      4  C   UNL     1      -5.530  -3.065   2.624  0.00  0.00    +0.108 C 
BRANCH   4   6
ATOM      5  C   UNL     1      -5.423  -5.412   3.472  0.00  0.00    +0.005 C 
ATOM      6  C   UNL     1      -5.013  -3.965   3.748  0.00  0.00    +0.016 C 
ENDBRANCH   4   6
ENDBRANCH   1   4
BRANCH   1   7
ATOM      7  C   UNL     1      -6.019  -0.802   3.663  0.00  0.00    +0.203 C 
BRANCH   7   8
ATOM      8  C   UNL     1      -6.965  -0.090   2.732  0.00  0.00    +0.235 C 
ATOM      9  O   UNL     1      -6.909  -0.295   1.537  0.00  0.00    -0.274 OA
ATOM     10  N   UNL     1      -7.875   0.773   3.225  0.00  0.00    -0.282 N 
ATOM     11  H   UNL     1      -7.961   0.891   4.184  0.00  0.00    +0.155 HD
BRANCH  10  12
ATOM     12  C   UNL     1      -8.695   1.501   2.353  0.00  0.00    +0.072 A 
ATOM     13  C   UNL     1      -9.128   0.927   1.165  0.00  0.00    +0.029 A 
ATOM     14  C   UNL     1      -9.938   1.645   0.306  0.00  0.00    +0.043 A 
ATOM     15  C   UNL     1     -10.319   2.937   0.627  0.00  0.00    +0.161 A 
ATOM     16  C   UNL     1      -9.889   3.514   1.812  0.00  0.00    +0.195 A 
ATOM     17  C   UNL     1      -9.082   2.796   2.678  0.00  0.00    +0.182 A 
ATOM     18  F   UNL     1      -8.666   3.355   3.836  0.00  0.00    -0.200 F 
ATOM     19  F   UNL     1     -10.261   4.775   2.123  0.00  0.00    -0.199 F 
ATOM     20  F   UNL     1     -11.111   3.635  -0.215  0.00  0.00    -0.202 F 
ENDBRANCH  10  12
ENDBRANCH   7   8
ENDBRANCH   1   7
BRANCH   2  21
ATOM     21  C   UNL     1      -3.057  -2.111   1.621  0.00  0.00    +0.213 C 
BRANCH  21  22
ATOM     22  N   UNL     1      -1.855  -1.370   1.229  0.00  0.00    -0.215 N 
ATOM     23  C   UNL     1      -1.739  -0.664   0.086  0.00  0.00    +0.247 C 
ATOM     24  O   UNL     1      -2.577  -0.525  -0.779  0.00  0.00    -0.273 OA
ATOM     25  C   UNL     1      -0.345  -0.081   0.111  0.00  0.00    +0.113 C 
ATOM     26  C   UNL     1      -0.405   1.443   0.101  0.00  0.00    +0.038 C 
ATOM     27  C   UNL     1       1.016   2.011   0.163  0.00  0.00    -0.011 C 
ATOM     28  C   UNL     1       1.817   1.507  -1.039  0.00  0.00    +0.009 C 
ATOM     29  C   UNL     1       1.887  -0.021  -1.005  0.00  0.00    -0.032 C 
ATOM     30  C   UNL     1       0.469  -0.596  -1.070  0.00  0.00    +0.041 C 
ATOM     31  C   UNL     1       2.561  -0.472   0.293  0.00  0.00    +0.011 C 
ATOM     32  C   UNL     1       2.697  -0.522  -2.202  0.00  0.00    +0.011 C 
ATOM     33  C   UNL     1       0.956   3.539   0.132  0.00  0.00    +0.007 C 
ATOM     34  N   UNL     1       0.221  -0.565   1.376  0.00  0.00    -0.285 N 
ATOM     35  C   UNL     1      -0.736  -1.311   1.961  0.00  0.00    +0.310 C 
ATOM     36  O   UNL     1      -0.598  -1.868   3.032  0.00  0.00    -0.252 OA
ATOM     37  H   UNL     1       1.109  -0.384   1.723  0.00  0.00    +0.151 HD
ENDBRANCH  21  22
ENDBRANCH   2  21
TORSDOF 7
