REMARK  Name = ZINC62613435
REMARK  14 active torsions:
REMARK  status: ('A' for Active; 'I' for Inactive)
REMARK    1  A    between atoms: C_1  and  C_2
REMARK    2  A    between atoms: C_2  and  C_3
REMARK    3  A    between atoms: C_3  and  C_4
REMARK    4  A    between atoms: C_4  and  C_6
REMARK    5  A    between atoms: C_4  and  N_7
REMARK    6  A    between atoms: C_8  and  C_10
REMARK    7  A    between atoms: N_15  and  C_17
REMARK    8  A    between atoms: C_17  and  C_18
REMARK    9  A    between atoms: C_18  and  C_19
REMARK   10  A    between atoms: N_21  and  C_22
REMARK   11  A    between atoms: C_24  and  S_29
REMARK   12  A    between atoms: S_29  and  N_32
REMARK   13  A    between atoms: N_32  and  C_33
REMARK   14  A    between atoms: N_32  and  C_34
REMARK                            x       y       z     vdW  Elec       q    Type
REMARK                         _______ _______ _______ _____ _____    ______ ____
ROOT
ATOM      1  C   UNL     1       2.491  -8.031  -4.835  0.00  0.00    +0.077 C 
ENDROOT
BRANCH   1   2
ATOM      2  C   UNL     1       3.016  -9.432  -4.649  0.00  0.00    +0.215 C 
ATOM      3  O   UNL     1       2.999  -9.944  -3.550  0.00  0.00    -0.276 OA
ATOM      4  N   UNL     1       3.503 -10.114  -5.704  0.00  0.00    -0.284 N 
ATOM      5  H   UNL     1       3.457  -9.731  -6.593  0.00  0.00    +0.155 HD
BRANCH   4   6
ATOM      6  C   UNL     1       4.076 -11.378  -5.515  0.00  0.00    +0.054 A 
ATOM      7  C   UNL     1       3.571 -12.234  -4.546  0.00  0.00    +0.053 A 
ATOM      8  C   UNL     1       4.138 -13.480  -4.363  0.00  0.00    +0.107 A 
ATOM      9  C   UNL     1       5.209 -13.875  -5.143  0.00  0.00    +0.030 A 
ATOM     10  C   UNL     1       5.715 -13.026  -6.109  0.00  0.00    +0.024 A 
ATOM     11  C   UNL     1       5.149 -11.780  -6.302  0.00  0.00    +0.062 A 
ATOM     12 CL   UNL     1       5.780 -10.717  -7.520  0.00  0.00    -0.082 Cl
BRANCH   8  13
ATOM     13  S   UNL     1       3.497 -14.566  -3.133  0.00  0.00    +0.060 S 
ATOM     14  O   UNL     1       4.549 -15.458  -2.790  0.00  0.00    -0.153 OA
ATOM     15  O   UNL     1       2.846 -13.749  -2.169  0.00  0.00    -0.153 OA
BRANCH  13  16
ATOM     16  N   UNL     1       2.318 -15.480  -3.853  0.00  0.00    -0.183 NA
ATOM     17  C   UNL     1       2.664 -16.754  -4.488  0.00  0.00    +0.131 C 
ATOM     18  C   UNL     1       0.929 -15.014  -3.855  0.00  0.00    +0.131 C 
ENDBRANCH  13  16
ENDBRANCH   8  13
ENDBRANCH   4   6
ENDBRANCH   1   2
BRANCH   1  19
ATOM     19  C   UNL     1       2.001  -7.487  -3.491  0.00  0.00    -0.070 C 
BRANCH  19  24
ATOM     20  C   UNL     1       0.296  -4.260  -2.619  0.00  0.00    +0.058 C 
ATOM     21  C   UNL     1       1.394  -3.291  -3.068  0.00  0.00    +0.009 C 
ATOM     22  C   UNL     1       2.049  -3.832  -4.342  0.00  0.00    -0.018 C 
ATOM     23  C   UNL     1       2.591  -5.238  -4.072  0.00  0.00    -0.079 C 
ATOM     24  N   UNL     1       1.489  -6.122  -3.673  0.00  0.00    +0.381 N 
ATOM     25  C   UNL     1       0.902  -5.650  -2.413  0.00  0.00    -0.066 C 
ATOM     26  H   UNL     1       0.782  -6.123  -4.393  0.00  0.00    -0.082 HD
BRANCH  20  28
ATOM     27  N   UNL     1      -0.895  -2.567  -1.265  0.00  0.00    -0.313 N 
ATOM     28  C   UNL     1      -0.303  -3.776  -1.323  0.00  0.00    +0.215 C 
ATOM     29  O   UNL     1      -0.252  -4.475  -0.333  0.00  0.00    -0.276 OA
ATOM     30  H   UNL     1      -0.935  -2.008  -2.056  0.00  0.00    +0.149 HD
BRANCH  27  31
ATOM     31  C   UNL     1      -1.478  -2.096  -0.005  0.00  0.00    +0.070 C 
ATOM     32  C   UNL     1      -2.902  -2.638   0.131  0.00  0.00    +0.028 C 
BRANCH  31  33
ATOM     33  C   UNL     1      -1.510  -0.567   0.002  0.00  0.00    +0.022 C 
BRANCH  33  35
ATOM     34  C   UNL     1      -0.112   1.504  -0.003  0.00  0.00    +0.004 C 
ATOM     35  C   UNL     1      -0.079  -0.026  -0.009  0.00  0.00    -0.002 C 
ENDBRANCH  33  35
ENDBRANCH  31  33
ENDBRANCH  27  31
ENDBRANCH  20  28
ENDBRANCH  19  24
ENDBRANCH   1  19
TORSDOF 10
