REMARK  Name = ZINC33738405
REMARK  25 active torsions:
REMARK  status: ('A' for Active; 'I' for Inactive)
REMARK    1  A    between atoms: C_1  and  C_2
REMARK    2  A    between atoms: C_2  and  C_3
REMARK    3  A    between atoms: C_2  and  C_4
REMARK    4  A    between atoms: C_2  and  C_5
REMARK    5  A    between atoms: C_7  and  C_16
REMARK    6  A    between atoms: C_9  and  C_12
REMARK    7  A    between atoms: C_10  and  O_11
REMARK    8  A    between atoms: C_12  and  C_13
REMARK    9  A    between atoms: C_12  and  C_14
REMARK   10  A    between atoms: C_12  and  C_15
REMARK   11  A    between atoms: C_16  and  C_17
REMARK   12  A    between atoms: C_17  and  C_18
REMARK   13  A    between atoms: C_18  and  O_20
REMARK   14  A    between atoms: O_20  and  C_21
REMARK   15  A    between atoms: C_21  and  C_22
REMARK   16  A    between atoms: C_22  and  C_24
REMARK   17  A    between atoms: C_22  and  O_36
REMARK   18  A    between atoms: C_24  and  C_26
REMARK   19  A    between atoms: C_24  and  O_35
REMARK   20  A    between atoms: C_26  and  C_28
REMARK   21  A    between atoms: C_26  and  O_34
REMARK   22  A    between atoms: C_28  and  C_30
REMARK   23  A    between atoms: C_28  and  O_33
REMARK   24  A    between atoms: C_30  and  N_31
REMARK   25  A    between atoms: N_31  and  C_32
REMARK                            x       y       z     vdW  Elec       q    Type
REMARK                         _______ _______ _______ _____ _____    ______ ____
ROOT
ATOM      1  C   UNL     1       5.507  -0.953   3.097  0.00  0.00    +0.307 C 
ATOM      2  O   UNL     1       5.410  -2.156   3.036  0.00  0.00    -0.251 OA
ENDROOT
BRANCH   1   3
ATOM      3  O   UNL     1       6.716  -0.373   3.026  0.00  0.00    -0.462 OA
BRANCH   3   4
ATOM      4  C   UNL     1       7.861  -1.253   2.875  0.00  0.00    +0.266 C 
BRANCH   4   5
ATOM      5  C   UNL     1       9.141  -0.417   2.812  0.00  0.00    +0.183 C 
BRANCH   5   6
ATOM      6  O   UNL     1       9.338   0.248   4.061  0.00  0.00    -0.386 OA
ATOM      7  H   UNL     1      10.212   0.899   4.206  0.00  0.00    +0.210 HD
ENDBRANCH   5   6
BRANCH   5   8
ATOM      8  C   UNL     1      10.334  -1.332   2.528  0.00  0.00    +0.177 C 
BRANCH   8   9
ATOM      9  O   UNL     1      10.380  -2.372   3.508  0.00  0.00    -0.386 OA
ATOM     10  H   UNL     1      11.175  -3.131   3.466  0.00  0.00    +0.210 HD
ENDBRANCH   8   9
BRANCH   8  11
ATOM     11  C   UNL     1      11.628  -0.517   2.589  0.00  0.00    +0.172 C 
BRANCH  11  12
ATOM     12  O   UNL     1      11.582   0.522   1.609  0.00  0.00    -0.387 OA
ATOM     13  H   UNL     1      12.429   1.216   1.503  0.00  0.00    +0.210 HD
ENDBRANCH  11  12
BRANCH  11  14
ATOM     14  C   UNL     1      12.821  -1.433   2.305  0.00  0.00    +0.129 C 
BRANCH  14  15
ATOM     15  O   UNL     1      12.867  -2.472   3.284  0.00  0.00    -0.391 OA
ATOM     16  H   UNL     1      13.661  -3.232   3.243  0.00  0.00    +0.210 HD
ENDBRANCH  14  15
BRANCH  14  17
ATOM     17  C   UNL     1      14.114  -0.618   2.366  0.00  0.00    -0.049 C 
BRANCH  17  18
ATOM     18  N   UNL     1      15.247  -1.468   1.977  0.00  0.00    +0.379 N 
ATOM     19  C   UNL     1      16.509  -0.717   2.023  0.00  0.00    -0.100 C 
ATOM     20  H   UNL     1      15.319  -2.321   2.667  0.00  0.00    -0.086 HD
ATOM     21  H   UNL     1      15.094  -1.837   0.952  0.00  0.00    -0.086 HD
ENDBRANCH  17  18
ENDBRANCH  14  17
ENDBRANCH  11  14
ENDBRANCH   8  11
ENDBRANCH   5   8
ENDBRANCH   4   5
ENDBRANCH   3   4
ENDBRANCH   1   3
BRANCH   1  22
ATOM     22  C   UNL     1       4.272  -0.104   3.254  0.00  0.00    +0.125 C 
BRANCH  22  23
ATOM     23  C   UNL     1       3.037  -1.005   3.310  0.00  0.00    +0.046 C 
BRANCH  23  26
ATOM     24  C   UNL     1       0.000   1.080   2.488  0.00  0.00    -0.000 A 
ATOM     25  C   UNL     1       1.133   0.302   2.347  0.00  0.00    +0.011 A 
ATOM     26  C   UNL     1       1.802  -0.156   3.466  0.00  0.00    -0.046 A 
ATOM     27  C   UNL     1       1.340   0.163   4.730  0.00  0.00    +0.011 A 
ATOM     28  C   UNL     1       0.208   0.942   4.876  0.00  0.00    -0.000 A 
ATOM     29  C   UNL     1      -0.463   1.406   3.754  0.00  0.00    +0.124 A 
BRANCH  24  31
ATOM     30  C   UNL     1      -0.013   1.086   0.008  0.00  0.00    +0.015 C 
ATOM     31  C   UNL     1      -0.729   1.579   1.267  0.00  0.00    -0.009 C 
ATOM     32  C   UNL     1      -0.750   3.109   1.275  0.00  0.00    +0.015 C 
ATOM     33  C   UNL     1      -2.164   1.050   1.278  0.00  0.00    +0.015 C 
ENDBRANCH  24  31
BRANCH  28  34
ATOM     34  C   UNL     1      -0.295   1.290   6.253  0.00  0.00    -0.009 C 
ATOM     35  C   UNL     1       0.622   0.662   7.305  0.00  0.00    +0.015 C 
ATOM     36  C   UNL     1      -0.301   2.810   6.425  0.00  0.00    +0.015 C 
ATOM     37  C   UNL     1      -1.716   0.751   6.429  0.00  0.00    +0.015 C 
ENDBRANCH  28  34
BRANCH  29  38
ATOM     38  O   UNL     1      -1.573   2.176   3.896  0.00  0.00    -0.506 OA
ATOM     39  H   UNL     1      -1.939   2.435   4.900  0.00  0.00    +0.292 HD
ENDBRANCH  29  38
ENDBRANCH  23  26
ENDBRANCH  22  23
ENDBRANCH   1  22
TORSDOF 18
