REMARK  Name = ZINC21449858
REMARK  7 active torsions:
REMARK  status: ('A' for Active; 'I' for Inactive)
REMARK    1  A    between atoms: C_1  and  C_2
REMARK    2  A    between atoms: C_6  and  C_13
REMARK    3  A    between atoms: C_13  and  S_14
REMARK    4  A    between atoms: S_14  and  C_15
REMARK    5  A    between atoms: C_18  and  C_26
REMARK    6  A    between atoms: N_19  and  C_20
REMARK    7  A    between atoms: C_20  and  C_21
REMARK                            x       y       z     vdW  Elec       q    Type
REMARK                         _______ _______ _______ _____ _____    ______ ____
ROOT
ATOM      1  S   UNL     1       2.570  -0.994  -1.733  0.00  0.00    -0.081 S 
ENDROOT
BRANCH   1   2
ATOM      2  C   UNL     1       2.660  -2.731  -1.452  0.00  0.00    +0.192 A 
ATOM      3  N   UNL     1       2.702  -3.332  -0.286  0.00  0.00    -0.122 NA
ATOM      4  N   UNL     1       2.764  -4.605  -0.452  0.00  0.00    -0.133 NA
ATOM      5  C   UNL     1       2.767  -4.890  -1.724  0.00  0.00    +0.138 A 
ATOM      6  N   UNL     1       2.695  -3.707  -2.406  0.00  0.00    -0.298 N 
BRANCH   5   7
ATOM      7  C   UNL     1       2.831  -6.269  -2.330  0.00  0.00    +0.057 C 
ATOM      8  C   UNL     1       2.693  -7.463  -1.384  0.00  0.00    +0.012 C 
ATOM      9  C   UNL     1       4.053  -7.129  -2.002  0.00  0.00    +0.012 C 
ENDBRANCH   5   7
BRANCH   6  10
ATOM     10  C   UNL     1       2.665  -3.525  -3.860  0.00  0.00    +0.199 C 
BRANCH  10  11
ATOM     11  C   UNL     1       4.073  -3.393  -4.379  0.00  0.00    +0.125 A 
ATOM     12  C   UNL     1       4.862  -4.406  -4.781  0.00  0.00    +0.046 A 
ATOM     13  C   UNL     1       6.088  -3.833  -5.189  0.00  0.00    +0.041 A 
ATOM     14  C   UNL     1       5.979  -2.505  -5.003  0.00  0.00    +0.195 A 
ATOM     15  O   UNL     1       4.756  -2.244  -4.512  0.00  0.00    -0.466 OA
ENDBRANCH  10  11
ENDBRANCH   6  10
ENDBRANCH   1   2
BRANCH   1  16
ATOM     16  C   UNL     1       2.557  -0.400  -0.024  0.00  0.00    +0.113 C 
BRANCH  16  22
ATOM     17  C   UNL     1      -2.555   3.853   0.047  0.00  0.00    +0.044 C 
ATOM     18  C   UNL     1      -1.231   3.133   0.031  0.00  0.00    -0.047 A 
ATOM     19  C   UNL     1      -1.204   1.746   0.017  0.00  0.00    +0.004 A 
ATOM     20  C   UNL     1      -0.013   1.076   0.008  0.00  0.00    +0.012 A 
ATOM     21  C   UNL     1       1.187   1.794   0.000  0.00  0.00    +0.022 A 
ATOM     22  C   UNL     1       2.481   1.105  -0.016  0.00  0.00    -0.020 A 
ATOM     23  C   UNL     1       3.609   1.860  -0.024  0.00  0.00    +0.097 A 
ATOM     24  C   UNL     1       3.510   3.269  -0.016  0.00  0.00    +0.338 A 
ATOM     25  O   UNL     1       4.530   3.935  -0.023  0.00  0.00    -0.245 OA
ATOM     26  O   UNL     1       2.322   3.892  -0.001  0.00  0.00    -0.422 OA
ATOM     27  C   UNL     1       1.163   3.200   0.008  0.00  0.00    +0.140 A 
ATOM     28  C   UNL     1      -0.059   3.860   0.023  0.00  0.00    +0.050 A 
ENDBRANCH  16  22
ENDBRANCH   1  16
TORSDOF 6
