REMARK  Name = ZINC32800391
REMARK  11 active torsions:
REMARK  status: ('A' for Active; 'I' for Inactive)
REMARK    1  A    between atoms: C_1  and  C_2
REMARK    2  A    between atoms: C_2  and  O_3
REMARK    3  A    between atoms: O_3  and  C_4
REMARK    4  A    between atoms: C_4  and  C_6
REMARK    5  A    between atoms: C_7  and  C_32
REMARK    6  A    between atoms: C_13  and  C_17
REMARK    7  A    between atoms: C_17  and  C_19
REMARK    8  A    between atoms: C_17  and  N_20
REMARK    9  A    between atoms: N_20  and  C_21
REMARK   10  A    between atoms: C_21  and  C_23
REMARK   11  A    between atoms: C_21  and  C_24
REMARK                            x       y       z     vdW  Elec       q    Type
REMARK                         _______ _______ _______ _____ _____    ______ ____
ROOT
ATOM      1  C   UNL     1      -6.729   0.471   1.909  0.00  0.00    +0.102 A 
ATOM      2  C   UNL     1      -5.781  -0.482   1.671  0.00  0.00    -0.015 A 
ATOM      3  C   UNL     1      -4.441  -0.112   1.547  0.00  0.00    +0.076 A 
ATOM      4  C   UNL     1      -3.255  -0.962   1.292  0.00  0.00    +0.260 A 
ATOM      5  O   UNL     1      -3.368  -2.167   1.156  0.00  0.00    -0.267 OA
ATOM      6  N   UNL     1      -2.050  -0.367   1.208  0.00  0.00    -0.312 N 
ATOM      7  H   UNL     1      -1.151  -0.970   1.010  0.00  0.00    +0.170 HD
ATOM      8  C   UNL     1      -1.911   0.973   1.361  0.00  0.00    +0.097 A 
ATOM      9  N   UNL     1      -2.935   1.751   1.587  0.00  0.00    -0.228 NA
ATOM     10  C   UNL     1      -4.168   1.269   1.683  0.00  0.00    +0.116 A 
ATOM     11  S   UNL     1      -5.770   1.975   1.974  0.00  0.00    -0.062 S 
ATOM     12  C   UNL     1      -6.181  -1.929   1.543  0.00  0.00    +0.046 C 
ENDROOT
BRANCH   1  13
ATOM     13  C   UNL     1      -8.175   0.302   2.072  0.00  0.00    +0.346 C 
ATOM     14  O   UNL     1      -8.670  -0.807   1.997  0.00  0.00    -0.244 OA
BRANCH  13  15
ATOM     15  O   UNL     1      -8.958   1.375   2.304  0.00  0.00    -0.461 OA
BRANCH  15  17
ATOM     16  C   UNL     1     -11.101   2.459   2.711  0.00  0.00    +0.048 C 
ATOM     17  C   UNL     1     -10.382   1.133   2.455  0.00  0.00    +0.229 C 
ENDBRANCH  15  17
ENDBRANCH  13  15
ENDBRANCH   1  13
BRANCH   8  18
ATOM     18  C   UNL     1      -0.537   1.583   1.263  0.00  0.00    -0.007 C 
ATOM     19  C   UNL     1       0.104   1.183  -0.067  0.00  0.00    -0.006 C 
BRANCH  18  20
ATOM     20  N   UNL     1      -0.644   3.046   1.335  0.00  0.00    +0.390 N 
ATOM     21  H   UNL     1       0.209   3.503   0.812  0.00  0.00    -0.084 HD
ATOM     22  H   UNL     1      -1.582   3.369   0.859  0.00  0.00    -0.084 HD
BRANCH  20  23
ATOM     23  C   UNL     1      -0.642   3.506   2.730  0.00  0.00    -0.042 C 
ATOM     24  C   UNL     1       0.798   3.583   3.240  0.00  0.00    -0.009 C 
BRANCH  23  25
ATOM     25  C   UNL     1      -1.276   4.871   2.810  0.00  0.00    -0.043 A 
ATOM     26  C   UNL     1      -1.370   5.657   1.677  0.00  0.00    +0.005 A 
ATOM     27  C   UNL     1      -1.951   6.909   1.749  0.00  0.00    +0.020 A 
ATOM     28  C   UNL     1      -2.440   7.376   2.957  0.00  0.00    +0.042 A 
ATOM     29  C   UNL     1      -2.346   6.590   4.091  0.00  0.00    +0.040 A 
ATOM     30  C   UNL     1      -1.770   5.335   4.016  0.00  0.00    +0.044 A 
ATOM     31 CL   UNL     1      -1.659   4.345   5.438  0.00  0.00    -0.083 Cl
ATOM     32 CL   UNL     1      -3.170   8.949   3.047  0.00  0.00    -0.083 Cl
ENDBRANCH  23  25
ENDBRANCH  20  23
ENDBRANCH  18  20
ENDBRANCH   8  18
TORSDOF 7
