REMARK  Name = ZINC13064952
REMARK  11 active torsions:
REMARK  status: ('A' for Active; 'I' for Inactive)
REMARK    1  A    between atoms: C_1  and  C_2
REMARK    2  A    between atoms: C_2  and  C_3
REMARK    3  A    between atoms: C_3  and  C_5
REMARK    4  A    between atoms: C_3  and  N_72
REMARK    5  A    between atoms: N_9  and  C_10
REMARK    6  A    between atoms: C_10  and  C_11
REMARK    7  A    between atoms: C_18  and  C_19
REMARK    8  A    between atoms: C_18  and  N_72
REMARK    9  A    between atoms: C_22  and  C_32
REMARK   10  A    between atoms: C_24  and  C_31
REMARK   11  A    between atoms: C_33  and  N_72
REMARK                            x       y       z     vdW  Elec       q    Type
REMARK                         _______ _______ _______ _____ _____    ______ ____
ROOT
ATOM      1  N   UNL     1      -2.962   0.417  -2.423  0.00  0.00    +0.391 N 
ATOM      2  H   UNL     1      -2.127  -0.066  -2.776  0.00  0.00    -0.080 HD
ENDROOT
BRANCH   1   3
ATOM      3  C   UNL     1      -3.227   1.599  -3.271  0.00  0.00    -0.067 C 
ATOM      4  C   UNL     1      -4.080   1.182  -4.471  0.00  0.00    -0.015 C 
ATOM      5  C   UNL     1      -4.332   2.399  -5.364  0.00  0.00    -0.002 C 
ATOM      6  C   UNL     1      -2.994   2.955  -5.857  0.00  0.00    -0.000 C 
ATOM      7  C   UNL     1      -2.142   3.372  -4.657  0.00  0.00    -0.002 C 
ATOM      8  C   UNL     1      -1.890   2.155  -3.764  0.00  0.00    -0.015 C 
ENDBRANCH   1   3
BRANCH   1   9
ATOM      9  C   UNL     1      -4.111  -0.511  -2.476  0.00  0.00    +0.003 C 
BRANCH   9  10
ATOM     10  C   UNL     1      -3.628  -1.896  -2.132  0.00  0.00    +0.138 A 
ATOM     11  N   UNL     1      -2.711  -2.208  -1.249  0.00  0.00    -0.115 NA
ATOM     12  N   UNL     1      -2.581  -3.490  -1.246  0.00  0.00    -0.023 NA
ATOM     13  N   UNL     1      -3.391  -4.003  -2.106  0.00  0.00    -0.044 NA
ATOM     14  N   UNL     1      -4.057  -3.053  -2.668  0.00  0.00    -0.226 N 
BRANCH  14  15
ATOM     15  C   UNL     1      -5.086  -3.205  -3.700  0.00  0.00    +0.182 C 
BRANCH  15  16
ATOM     16  C   UNL     1      -4.436  -3.222  -5.059  0.00  0.00    -0.026 A 
ATOM     17  C   UNL     1      -4.292  -2.045  -5.771  0.00  0.00    +0.008 A 
ATOM     18  C   UNL     1      -3.691  -2.059  -7.015  0.00  0.00    +0.038 A 
ATOM     19  C   UNL     1      -3.244  -3.253  -7.554  0.00  0.00    +0.123 A 
ATOM     20  C   UNL     1      -3.394  -4.432  -6.844  0.00  0.00    +0.038 A 
ATOM     21  C   UNL     1      -3.990  -4.415  -5.597  0.00  0.00    +0.008 A 
ATOM     22  F   UNL     1      -2.661  -3.268  -8.773  0.00  0.00    -0.205 F 
ENDBRANCH  15  16
ENDBRANCH  14  15
ENDBRANCH   9  10
BRANCH   9  24
ATOM     23  C   UNL     1      -5.774   1.264  -1.902  0.00  0.00    +0.002 C 
ATOM     24  C   UNL     1      -5.188  -0.084  -1.476  0.00  0.00    -0.011 C 
ENDBRANCH   9  24
ENDBRANCH   1   9
BRANCH   1  25
ATOM     25  C   UNL     1      -2.717   0.841  -1.028  0.00  0.00    -0.036 C 
BRANCH  25  26
ATOM     26  C   UNL     1      -1.375   1.520  -0.956  0.00  0.00    +0.001 A 
ATOM     27  C   UNL     1      -1.304   2.874  -0.925  0.00  0.00    +0.017 A 
ATOM     28  C   UNL     1       0.017   3.504  -0.861  0.00  0.00    +0.002 A 
ATOM     29  C   UNL     1       0.154   4.896  -0.832  0.00  0.00    -0.041 A 
ATOM     30  C   UNL     1       1.400   5.452  -0.772  0.00  0.00    +0.007 A 
ATOM     31  C   UNL     1       2.532   4.649  -0.740  0.00  0.00    -0.048 A 
ATOM     32  C   UNL     1       2.420   3.276  -0.767  0.00  0.00    +0.029 A 
ATOM     33  C   UNL     1       1.162   2.686  -0.828  0.00  0.00    +0.050 A 
ATOM     34  N   UNL     1       1.021   1.315  -0.857  0.00  0.00    -0.322 N 
ATOM     35  H   UNL     1       1.811   0.753  -0.833  0.00  0.00    +0.169 HD
ATOM     36  C   UNL     1      -0.196   0.746  -0.916  0.00  0.00    +0.251 A 
ATOM     37  O   UNL     1      -0.282  -0.470  -0.940  0.00  0.00    -0.268 OA
ATOM     38  C   UNL     1       3.896   5.285  -0.674  0.00  0.00    +0.044 C 
ATOM     39  C   UNL     1      -1.068   5.777  -0.868  0.00  0.00    +0.044 C 
ENDBRANCH  25  26
ENDBRANCH   1  25
TORSDOF 8
