REMARK  Name = ZINC67577236
REMARK  8 active torsions:
REMARK  status: ('A' for Active; 'I' for Inactive)
REMARK    1  A    between atoms: C_1  and  C_2
REMARK    2  A    between atoms: N_5  and  C_8
REMARK    3  A    between atoms: C_8  and  C_9
REMARK    4  A    between atoms: C_9  and  C_11
REMARK    5  A    between atoms: C_9  and  O_27
REMARK    6  A    between atoms: C_11  and  N_12
REMARK    7  A    between atoms: C_19  and  C_21
REMARK    8  A    between atoms: C_21  and  C_22
REMARK                            x       y       z     vdW  Elec       q    Type
REMARK                         _______ _______ _______ _____ _____    ______ ____
ROOT
ATOM      1  N   UNL     1       3.964  -6.214   1.958  0.00  0.00    -0.297 N 
ATOM      2  C   UNL     1       4.412  -7.484   2.013  0.00  0.00    +0.305 C 
ATOM      3  O   UNL     1       4.039  -8.296   1.188  0.00  0.00    -0.252 OA
ATOM      4  N   UNL     1       5.272  -7.854   2.982  0.00  0.00    -0.247 N 
ATOM      5  C   UNL     1       5.735  -9.165   3.038  0.00  0.00    +0.189 A 
ATOM      6  N   UNL     1       5.457 -10.179   2.242  0.00  0.00    -0.126 NA
ATOM      7  N   UNL     1       5.960 -11.324   2.421  0.00  0.00    -0.145 NA
ATOM      8  C   UNL     1       6.786 -11.512   3.431  0.00  0.00    +0.104 A 
ATOM      9  S   UNL     1       6.802  -9.870   4.136  0.00  0.00    -0.035 S 
ATOM     10  H   UNL     1       4.261  -5.566   2.617  0.00  0.00    +0.150 HD
ATOM     11  H   UNL     1       5.570  -7.207   3.640  0.00  0.00    +0.158 HD
ENDROOT
BRANCH   1  12
ATOM     12  C   UNL     1       3.028  -5.812   0.905  0.00  0.00    +0.135 C 
BRANCH  12  13
ATOM     13  C   UNL     1       2.681  -4.331   1.070  0.00  0.00    +0.115 C 
BRANCH  13  14
ATOM     14  O   UNL     1       2.077  -4.123   2.349  0.00  0.00    -0.392 OA
ATOM     15  H   UNL     1       1.262  -4.624   2.485  0.00  0.00    +0.210 HD
ENDBRANCH  13  14
BRANCH  13  16
ATOM     16  C   UNL     1       1.704  -3.911  -0.029  0.00  0.00    -0.046 C 
BRANCH  16  21
ATOM     17  C   UNL     1       0.801   1.694  -0.579  0.00  0.00    +0.007 C 
ATOM     18  C   UNL     1       1.167   0.235  -0.859  0.00  0.00    -0.018 C 
ATOM     19  C   UNL     1       2.284  -0.205   0.093  0.00  0.00    -0.016 C 
ATOM     20  C   UNL     1       2.590  -1.686  -0.138  0.00  0.00    -0.078 C 
ATOM     21  N   UNL     1       1.385  -2.484   0.118  0.00  0.00    +0.381 N 
ATOM     22  C   UNL     1       0.333  -2.118  -0.839  0.00  0.00    -0.078 C 
ATOM     23  C   UNL     1      -0.060  -0.654  -0.635  0.00  0.00    -0.016 C 
ATOM     24  H   UNL     1       1.060  -2.309   1.057  0.00  0.00    -0.082 HD
ENDBRANCH  16  21
ENDBRANCH  13  16
ENDBRANCH  12  13
ENDBRANCH   1  12
BRANCH   8  25
ATOM     25  C   UNL     1       7.514 -12.758   3.865  0.00  0.00    +0.068 C 
BRANCH  25  26
ATOM     26  C   UNL     1       8.874 -12.822   3.168  0.00  0.00    -0.005 C 
ATOM     27  C   UNL     1       8.683 -13.052   1.655  0.00  0.00    +0.004 C 
ATOM     28  C   UNL     1       9.849 -13.993   1.263  0.00  0.00    +0.000 C 
ATOM     29  C   UNL     1       9.950 -14.939   2.485  0.00  0.00    +0.000 C 
ATOM     30  C   UNL     1       9.681 -14.022   3.696  0.00  0.00    +0.004 C 
ENDBRANCH  25  26
ENDBRANCH   8  25
TORSDOF 7
