REMARK  Name = ZINC23043431
REMARK  8 active torsions:
REMARK  status: ('A' for Active; 'I' for Inactive)
REMARK    1  A    between atoms: C_1  and  C_2
REMARK    2  A    between atoms: C_7  and  C_8
REMARK    3  A    between atoms: N_10  and  C_11
REMARK    4  A    between atoms: C_11  and  C_12
REMARK    5  A    between atoms: C_12  and  C_14
REMARK    6  A    between atoms: C_12  and  N_19
REMARK    7  A    between atoms: C_25  and  C_29
REMARK    8  A    between atoms: C_25  and  C_30
REMARK                            x       y       z     vdW  Elec       q    Type
REMARK                         _______ _______ _______ _____ _____    ______ ____
ROOT
ATOM      1  C   UNL     1      -1.173  -0.843   0.014  0.00  0.00    +0.261 C 
ATOM      2  O   UNL     1      -1.016  -2.044   0.131  0.00  0.00    -0.269 OA
ATOM      3  N   UNL     1      -2.417  -0.324  -0.006  0.00  0.00    -0.311 N 
ATOM      4  H   UNL     1      -2.558   0.761  -0.113  0.00  0.00    +0.149 HD
ENDROOT
BRANCH   1  11
ATOM      5  C   UNL     1       1.813  -1.767   0.031  0.00  0.00    +0.047 C 
ATOM      6  C   UNL     1       1.302  -0.356  -0.099  0.00  0.00    -0.010 A 
ATOM      7  C   UNL     1       2.073   0.804  -0.236  0.00  0.00    +0.042 A 
ATOM      8  C   UNL     1       1.198   1.888  -0.321  0.00  0.00    +0.028 A 
ATOM      9  N   UNL     1      -0.046   1.416  -0.243  0.00  0.00    -0.354 N 
ATOM     10  H   UNL     1      -0.900   2.108  -0.292  0.00  0.00    +0.166 HD
ATOM     11  C   UNL     1      -0.006   0.042  -0.106  0.00  0.00    +0.106 A 
ATOM     12  C   UNL     1       1.671   3.312  -0.469  0.00  0.00    +0.060 C 
ATOM     13  C   UNL     1       3.127   3.411  -0.006  0.00  0.00    -0.023 C 
ATOM     14  C   UNL     1       3.995   2.370  -0.721  0.00  0.00    +0.086 C 
ATOM     15  C   UNL     1       3.532   0.985  -0.296  0.00  0.00    +0.166 C 
ATOM     16  O   UNL     1       4.309   0.093  -0.025  0.00  0.00    -0.292 OA
ATOM     17  C   UNL     1       3.194   3.171   1.503  0.00  0.00    +0.011 C 
ATOM     18  C   UNL     1       3.660   4.811  -0.318  0.00  0.00    +0.011 C 
ENDBRANCH   1  11
BRANCH   3  19
ATOM     19  C   UNL     1      -3.580  -1.207   0.113  0.00  0.00    +0.097 C 
BRANCH  19  20
ATOM     20  C   UNL     1      -4.855  -0.364   0.180  0.00  0.00    +0.016 C 
BRANCH  20  21
ATOM     21  N   UNL     1      -6.008  -1.239   0.429  0.00  0.00    +0.387 N 
ATOM     22  C   UNL     1      -5.848  -1.980   1.706  0.00  0.00    -0.078 C 
ATOM     23  C   UNL     1      -7.298  -2.401   2.055  0.00  0.00    -0.020 C 
ATOM     24  C   UNL     1      -8.130  -1.178   1.607  0.00  0.00    -0.020 C 
ATOM     25  C   UNL     1      -7.251  -0.450   0.574  0.00  0.00    -0.078 C 
ATOM     26  H   UNL     1      -6.060  -1.918  -0.435  0.00  0.00    -0.081 HD
ENDBRANCH  20  21
BRANCH  20  27
ATOM     27  C   UNL     1      -5.047   0.362  -1.127  0.00  0.00    +0.093 A 
ATOM     28  C   UNL     1      -4.737   1.649  -1.365  0.00  0.00    +0.043 A 
ATOM     29  C   UNL     1      -5.080   1.910  -2.712  0.00  0.00    +0.041 A 
ATOM     30  C   UNL     1      -5.579   0.767  -3.216  0.00  0.00    +0.195 A 
ATOM     31  O   UNL     1      -5.551  -0.169  -2.253  0.00  0.00    -0.469 OA
ENDBRANCH  20  27
ENDBRANCH  19  20
ENDBRANCH   3  19
TORSDOF 5
