REMARK  Name = ZINC31157173
REMARK  21 active torsions:
REMARK  status: ('A' for Active; 'I' for Inactive)
REMARK    1  A    between atoms: C_1  and  C_2
REMARK    2  A    between atoms: C_2  and  C_29
REMARK    3  A    between atoms: C_3  and  C_4
REMARK    4  A    between atoms: C_4  and  C_5
REMARK    5  A    between atoms: C_5  and  C_6
REMARK    6  A    between atoms: C_6  and  C_8
REMARK    7  A    between atoms: C_6  and  O_28
REMARK    8  A    between atoms: C_8  and  C_9
REMARK    9  A    between atoms: C_8  and  C_10
REMARK   10  A    between atoms: C_8  and  O_11
REMARK   11  A    between atoms: O_11  and  C_12
REMARK   12  A    between atoms: C_14  and  O_27
REMARK   13  A    between atoms: C_16  and  O_26
REMARK   14  A    between atoms: C_18  and  O_25
REMARK   15  A    between atoms: C_20  and  C_23
REMARK   16  A    between atoms: C_23  and  O_24
REMARK   17  A    between atoms: C_29  and  C_30
REMARK   18  A    between atoms: C_30  and  C_31
REMARK   19  A    between atoms: C_31  and  C_32
REMARK   20  A    between atoms: C_31  and  C_33
REMARK   21  A    between atoms: C_31  and  O_35
REMARK                            x       y       z     vdW  Elec       q    Type
REMARK                         _______ _______ _______ _____ _____    ______ ____
ROOT
ATOM      1  C   UNL     1      -1.991  -0.074   5.729  0.00  0.00    +0.093 C 
ATOM      2  C   UNL     1      -1.557  -1.399   6.359  0.00  0.00    +0.044 C 
ATOM      3  C   UNL     1      -2.233   0.959   6.831  0.00  0.00    +0.044 C 
ENDROOT
BRANCH   1   4
ATOM      4  O   UNL     1      -3.196  -0.272   4.987  0.00  0.00    -0.340 OA
BRANCH   4   5
ATOM      5  C   UNL     1      -4.296  -0.729   5.777  0.00  0.00    +0.282 C 
ATOM      6  C   UNL     1      -5.596  -0.569   4.984  0.00  0.00    +0.201 C 
ATOM      7  C   UNL     1      -6.762  -1.116   5.813  0.00  0.00    +0.179 C 
ATOM      8  C   UNL     1      -6.476  -2.578   6.173  0.00  0.00    +0.177 C 
ATOM      9  C   UNL     1      -5.143  -2.660   6.920  0.00  0.00    +0.178 C 
ATOM     10  O   UNL     1      -4.107  -2.107   6.106  0.00  0.00    -0.341 OA
BRANCH   8  11
ATOM     11  O   UNL     1      -7.524  -3.078   7.006  0.00  0.00    -0.386 OA
ATOM     12  H   UNL     1      -8.399  -3.051   6.597  0.00  0.00    +0.210 HD
ENDBRANCH   8  11
BRANCH   6  13
ATOM     13  O   UNL     1      -5.816   0.814   4.702  0.00  0.00    -0.384 OA
ATOM     14  H   UNL     1      -5.113   1.227   4.183  0.00  0.00    +0.210 HD
ENDBRANCH   6  13
BRANCH   7  15
ATOM     15  O   UNL     1      -7.968  -1.037   5.052  0.00  0.00    -0.386 OA
ATOM     16  H   UNL     1      -8.206  -0.138   4.785  0.00  0.00    +0.210 HD
ENDBRANCH   7  15
BRANCH   9  17
ATOM     17  C   UNL     1      -4.821  -4.123   7.231  0.00  0.00    +0.190 C 
BRANCH  17  18
ATOM     18  O   UNL     1      -3.637  -4.192   8.028  0.00  0.00    -0.392 OA
ATOM     19  H   UNL     1      -3.373  -5.092   8.264  0.00  0.00    +0.210 HD
ENDBRANCH  17  18
ENDBRANCH   9  17
ENDBRANCH   4   5
ENDBRANCH   1   4
BRANCH   1  20
ATOM     20  C   UNL     1      -0.892   0.429   4.790  0.00  0.00    +0.146 C 
BRANCH  20  21
ATOM     21  O   UNL     1       0.314   0.626   5.532  0.00  0.00    -0.389 OA
ATOM     22  H   UNL     1       0.648  -0.174   5.960  0.00  0.00    +0.210 HD
ENDBRANCH  20  21
BRANCH  20  23
ATOM     23  C   UNL     1      -0.650  -0.605   3.689  0.00  0.00    +0.038 C 
BRANCH  23  24
ATOM     24  C   UNL     1       0.359  -0.049   2.681  0.00  0.00    +0.030 C 
BRANCH  24  27
ATOM     25  C   UNL     1       0.099   0.687  -0.029  0.00  0.00    +0.039 C 
ATOM     26  C   UNL     1       0.420  -0.739   0.340  0.00  0.00    -0.076 C 
ATOM     27  C   UNL     1       0.598  -1.067   1.596  0.00  0.00    -0.028 C 
BRANCH  26  28
ATOM     28  C   UNL     1       0.537  -1.787  -0.736  0.00  0.00    +0.033 C 
BRANCH  28  29
ATOM     29  C   UNL     1      -0.851  -2.340  -1.064  0.00  0.00    +0.043 C 
BRANCH  29  30
ATOM     30  C   UNL     1      -0.732  -3.404  -2.156  0.00  0.00    +0.081 C 
ATOM     31  C   UNL     1       0.166  -4.541  -1.665  0.00  0.00    +0.046 C 
BRANCH  30  32
ATOM     32  O   UNL     1      -0.163  -2.820  -3.330  0.00  0.00    -0.385 OA
ATOM     33  H   UNL     1      -0.680  -2.091  -3.697  0.00  0.00    +0.211 HD
ENDBRANCH  30  32
BRANCH  30  34
ATOM     34  C   UNL     1      -2.100  -3.948  -2.479  0.00  0.00    -0.001 C 
ATOM     35  C   UNL     1      -2.579  -3.838  -3.693  0.00  0.00    +0.007 C 
ENDBRANCH  30  34
ENDBRANCH  29  30
ENDBRANCH  28  29
ENDBRANCH  26  28
ENDBRANCH  24  27
ENDBRANCH  23  24
ENDBRANCH  20  23
ENDBRANCH   1  20
TORSDOF 17
