REMARK  Name = ZINC21528175
REMARK  8 active torsions:
REMARK  status: ('A' for Active; 'I' for Inactive)
REMARK    1  A    between atoms: C_1  and  C_2
REMARK    2  A    between atoms: C_3  and  C_9
REMARK    3  A    between atoms: C_4  and  N_7
REMARK    4  A    between atoms: N_7  and  C_8
REMARK    5  A    between atoms: C_9  and  O_11
REMARK    6  A    between atoms: O_11  and  C_12
REMARK    7  A    between atoms: C_12  and  C_13
REMARK    8  A    between atoms: C_26  and  C_28
REMARK                            x       y       z     vdW  Elec       q    Type
REMARK                         _______ _______ _______ _____ _____    ______ ____
ROOT
ATOM      1  C   UNL     1      -2.526   1.068  -4.900  0.00  0.00    +0.258 C 
ATOM      2  O   UNL     1      -3.480   0.729  -4.231  0.00  0.00    -0.271 OA
ATOM      3  N   UNL     1      -2.718   1.654  -6.098  0.00  0.00    -0.255 N 
ATOM      4  C   UNL     1      -1.625   2.046  -6.884  0.00  0.00    +0.058 A 
ATOM      5  C   UNL     1      -0.850   3.135  -6.522  0.00  0.00    +0.025 A 
ATOM      6  C   UNL     1       0.210   3.521  -7.322  0.00  0.00    +0.002 A 
ATOM      7  C   UNL     1       0.498   2.824  -8.482  0.00  0.00    +0.002 A 
ATOM      8  C   UNL     1      -0.266   1.731  -8.846  0.00  0.00    +0.025 A 
ATOM      9  C   UNL     1      -1.323   1.331  -8.043  0.00  0.00    +0.055 A 
ATOM     10  N   UNL     1      -2.075   0.194  -8.361  0.00  0.00    -0.284 N 
ATOM     11  C   UNL     1      -3.425   0.240  -8.346  0.00  0.00    +0.219 C 
ATOM     12  O   UNL     1      -4.064  -0.772  -8.541  0.00  0.00    -0.275 OA
ATOM     13  C   UNL     1      -4.141   1.539  -8.089  0.00  0.00    +0.128 C 
ATOM     14  C   UNL     1      -4.071   1.888  -6.605  0.00  0.00    +0.194 C 
ATOM     15  H   UNL     1      -1.623  -0.632  -8.593  0.00  0.00    +0.155 HD
ENDROOT
BRANCH  14  16
ATOM     16  C   UNL     1      -4.438   3.362  -6.417  0.00  0.00    +0.409 C 
ATOM     17  F   UNL     1      -3.530   4.161  -7.120  0.00  0.00    -0.169 F 
ATOM     18  F   UNL     1      -5.731   3.587  -6.901  0.00  0.00    -0.169 F 
ATOM     19  F   UNL     1      -4.386   3.684  -5.056  0.00  0.00    -0.169 F 
ENDBRANCH  14  16
BRANCH   1  20
ATOM     20  C   UNL     1      -1.127   0.834  -4.391  0.00  0.00    +0.328 C 
BRANCH  20  21
ATOM     21  O   UNL     1      -1.186   0.204  -3.109  0.00  0.00    -0.452 OA
BRANCH  21  22
ATOM     22  C   UNL     1      -0.011  -0.077  -2.511  0.00  0.00    +0.344 C 
ATOM     23  O   UNL     1       1.036   0.206  -3.062  0.00  0.00    -0.245 OA
BRANCH  22  26
ATOM     24  C   UNL     1      -0.018   1.503   0.010  0.00  0.00    +0.067 C 
ATOM     25  C   UNL     1       0.002  -0.004   0.002  0.00  0.00    +0.063 A 
ATOM     26  C   UNL     1       0.006  -0.723  -1.195  0.00  0.00    +0.109 A 
ATOM     27  C   UNL     1       0.026  -2.111  -1.031  0.00  0.00    +0.100 A 
ATOM     28  S   UNL     1       0.037  -2.289   0.637  0.00  0.00    +0.027 S 
ATOM     29  N   UNL     1       0.022  -0.686   1.111  0.00  0.00    -0.213 NA
BRANCH  27  30
ATOM     30  N   UNL     1       0.034  -3.092  -2.002  0.00  0.00    -0.340 N 
ATOM     31  C   UNL     1       0.056  -4.505  -1.615  0.00  0.00    +0.126 C 
ATOM     32  H   UNL     1       0.026  -2.846  -2.940  0.00  0.00    +0.146 HD
ENDBRANCH  27  30
ENDBRANCH  22  26
ENDBRANCH  21  22
ENDBRANCH  20  21
ENDBRANCH   1  20
TORSDOF 6
