REMARK  Name = ZINC25041830
REMARK  8 active torsions:
REMARK  status: ('A' for Active; 'I' for Inactive)
REMARK    1  A    between atoms: C_1  and  C_2
REMARK    2  A    between atoms: C_5  and  C_8
REMARK    3  A    between atoms: C_11  and  S_19
REMARK    4  A    between atoms: N_12  and  C_13
REMARK    5  A    between atoms: S_19  and  C_20
REMARK    6  A    between atoms: C_20  and  C_21
REMARK    7  A    between atoms: N_27  and  C_28
REMARK    8  A    between atoms: N_27  and  C_29
REMARK                            x       y       z     vdW  Elec       q    Type
REMARK                         _______ _______ _______ _____ _____    ______ ____
ROOT
ATOM      1  C   UNL     1       7.446   4.464  -1.766  0.00  0.00    +0.074 A 
ATOM      2  C   UNL     1       7.221   4.315  -0.434  0.00  0.00    +0.140 A 
ATOM      3  N   UNL     1       6.078   3.637  -0.274  0.00  0.00    -0.229 NA
ATOM      4  C   UNL     1       5.572   3.341  -1.450  0.00  0.00    +0.174 A 
ATOM      5  N   UNL     1       6.392   3.842  -2.417  0.00  0.00    -0.287 N 
ENDROOT
BRANCH   1  10
ATOM      6  C   UNL     1      11.901   7.152  -4.223  0.00  0.00    +0.044 C 
ATOM      7  C   UNL     1      10.734   6.448  -3.579  0.00  0.00    -0.050 A 
ATOM      8  C   UNL     1      10.698   6.290  -2.205  0.00  0.00    +0.004 A 
ATOM      9  C   UNL     1       9.633   5.646  -1.609  0.00  0.00    +0.010 A 
ATOM     10  C   UNL     1       8.590   5.154  -2.397  0.00  0.00    +0.000 A 
ATOM     11  C   UNL     1       8.636   5.312  -3.783  0.00  0.00    +0.010 A 
ATOM     12  C   UNL     1       9.704   5.963  -4.365  0.00  0.00    +0.004 A 
ENDBRANCH   1  10
BRANCH   5  13
ATOM     13  C   UNL     1       6.206   3.747  -3.803  0.00  0.00    +0.049 A 
ATOM     14  C   UNL     1       7.106   3.027  -4.578  0.00  0.00    +0.026 A 
ATOM     15  C   UNL     1       6.917   2.931  -5.942  0.00  0.00    +0.002 A 
ATOM     16  C   UNL     1       5.839   3.558  -6.539  0.00  0.00    +0.000 A 
ATOM     17  C   UNL     1       4.944   4.279  -5.770  0.00  0.00    +0.002 A 
ATOM     18  C   UNL     1       5.124   4.375  -4.404  0.00  0.00    +0.026 A 
ENDBRANCH   5  13
BRANCH   4  19
ATOM     19  S   UNL     1       4.077   2.450  -1.730  0.00  0.00    -0.080 S 
BRANCH  19  20
ATOM     20  C   UNL     1       3.575   2.132  -0.021  0.00  0.00    +0.153 C 
BRANCH  20  21
ATOM     21  C   UNL     1       2.282   1.359  -0.012  0.00  0.00    +0.146 A 
ATOM     22  N   UNL     1       1.129   2.004   0.002  0.00  0.00    -0.199 NA
ATOM     23  C   UNL     1      -0.016   1.325   0.009  0.00  0.00    +0.217 A 
ATOM     24  N   UNL     1       0.002  -0.004   0.002  0.00  0.00    -0.181 NA
ATOM     25  C   UNL     1       1.163  -0.649  -0.013  0.00  0.00    +0.222 A 
ATOM     26  N   UNL     1       2.304   0.037  -0.020  0.00  0.00    -0.198 NA
ATOM     27  N   UNL     1       1.187  -2.029  -0.020  0.00  0.00    -0.306 N 
ATOM     28  C   UNL     1      -0.068  -2.783  -0.011  0.00  0.00    +0.132 C 
ATOM     29  C   UNL     1       2.469  -2.739  -0.036  0.00  0.00    +0.132 C 
ATOM     30  N   UNL     1      -1.220   1.999   0.019  0.00  0.00    -0.327 N 
ATOM     31  H   UNL     1      -2.165   1.437   0.025  0.00  0.00    +0.145 HD
ATOM     32  H   UNL     1      -1.234   3.099   0.020  0.00  0.00    +0.145 HD
ENDBRANCH  20  21
ENDBRANCH  19  20
ENDBRANCH   4  19
TORSDOF 5
