REMARK  Name = ZINC22322064
REMARK  16 active torsions:
REMARK  status: ('A' for Active; 'I' for Inactive)
REMARK    1  A    between atoms: C_1  and  C_2
REMARK    2  A    between atoms: C_2  and  O_3
REMARK    3  A    between atoms: O_3  and  C_4
REMARK    4  A    between atoms: C_9  and  N_10
REMARK    5  A    between atoms: N_10  and  C_11
REMARK    6  A    between atoms: N_10  and  S_27
REMARK    7  A    between atoms: C_11  and  C_12
REMARK    8  A    between atoms: N_14  and  C_15
REMARK    9  A    between atoms: C_15  and  C_16
REMARK   10  A    between atoms: C_16  and  C_17
REMARK   11  A    between atoms: C_17  and  S_18
REMARK   12  A    between atoms: S_18  and  C_19
REMARK   13  A    between atoms: C_19  and  C_20
REMARK   14  A    between atoms: C_23  and  C_26
REMARK   15  A    between atoms: S_27  and  C_30
REMARK   16  A    between atoms: C_33  and  C_36
REMARK                            x       y       z     vdW  Elec       q    Type
REMARK                         _______ _______ _______ _____ _____    ______ ____
ROOT
ATOM      1  N   UNL     1       0.329   0.839 -10.194  0.00  0.00    -0.191 N 
ENDROOT
BRANCH   1   7
ATOM      2  C   UNL     1       0.849  -1.524 -10.194  0.00  0.00    +0.143 A 
ATOM      3  C   UNL     1       0.601  -2.805 -10.659  0.00  0.00    +0.047 A 
ATOM      4  C   UNL     1      -0.405  -3.023 -11.582  0.00  0.00    +0.004 A 
ATOM      5  C   UNL     1      -1.166  -1.966 -12.045  0.00  0.00    +0.002 A 
ATOM      6  C   UNL     1      -0.928  -0.685 -11.582  0.00  0.00    +0.028 A 
ATOM      7  C   UNL     1       0.083  -0.457 -10.660  0.00  0.00    +0.093 A 
BRANCH   2   8
ATOM      8  O   UNL     1       1.837  -1.307  -9.286  0.00  0.00    -0.490 OA
BRANCH   8  10
ATOM      9  C   UNL     1       3.642  -2.011  -7.840  0.00  0.00    +0.048 C 
ATOM     10  C   UNL     1       2.582  -2.448  -8.853  0.00  0.00    +0.226 C 
ENDBRANCH   8  10
ENDBRANCH   2   8
ENDBRANCH   1   7
BRANCH   1  11
ATOM     11  S   UNL     1       1.498   1.768 -10.909  0.00  0.00    +0.075 S 
ATOM     12  O   UNL     1       1.667   1.265 -12.227  0.00  0.00    -0.150 OA
ATOM     13  O   UNL     1       1.156   3.123 -10.649  0.00  0.00    -0.150 OA
BRANCH  11  14
ATOM     14  C   UNL     1       3.006   1.456 -10.054  0.00  0.00    +0.109 A 
ATOM     15  C   UNL     1       3.356   2.231  -8.963  0.00  0.00    +0.029 A 
ATOM     16  C   UNL     1       4.537   1.983  -8.290  0.00  0.00    +0.005 A 
ATOM     17  C   UNL     1       5.374   0.967  -8.713  0.00  0.00    -0.050 A 
ATOM     18  C   UNL     1       5.027   0.196  -9.806  0.00  0.00    +0.005 A 
ATOM     19  C   UNL     1       3.844   0.441 -10.477  0.00  0.00    +0.029 A 
ATOM     20  C   UNL     1       6.664   0.701  -7.981  0.00  0.00    +0.044 C 
ENDBRANCH  11  14
ENDBRANCH   1  11
BRANCH   1  21
ATOM     21  C   UNL     1      -0.449   1.375  -9.073  0.00  0.00    +0.227 C 
BRANCH  21  22
ATOM     22  C   UNL     1       0.181   0.944  -7.774  0.00  0.00    +0.232 C 
ATOM     23  O   UNL     1       1.180   0.257  -7.783  0.00  0.00    -0.274 OA
ATOM     24  N   UNL     1      -0.367   1.321  -6.602  0.00  0.00    -0.314 N 
ATOM     25  H   UNL     1      -1.274   1.944  -6.594  0.00  0.00    +0.149 HD
BRANCH  24  26
ATOM     26  C   UNL     1       0.245   0.902  -5.338  0.00  0.00    +0.105 C 
BRANCH  26  27
ATOM     27  C   UNL     1      -0.567   1.461  -4.168  0.00  0.00    +0.029 C 
BRANCH  27  28
ATOM     28  C   UNL     1       0.072   1.024  -2.849  0.00  0.00    +0.071 C 
BRANCH  28  29
ATOM     29  S   UNL     1      -0.890   1.687  -1.462  0.00  0.00    -0.156 S 
BRANCH  29  30
ATOM     30  C   UNL     1      -0.013   1.086   0.008  0.00  0.00    +0.104 C 
BRANCH  30  31
ATOM     31  C   UNL     1      -0.718   1.572   1.248  0.00  0.00    -0.038 A 
ATOM     32  C   UNL     1      -0.360   2.779   1.819  0.00  0.00    +0.005 A 
ATOM     33  C   UNL     1      -1.010   3.227   2.953  0.00  0.00    +0.003 A 
ATOM     34  C   UNL     1      -2.012   2.463   3.523  0.00  0.00    -0.050 A 
ATOM     35  C   UNL     1      -2.366   1.254   2.955  0.00  0.00    +0.003 A 
ATOM     36  C   UNL     1      -1.719   0.808   1.818  0.00  0.00    +0.005 A 
ATOM     37  C   UNL     1      -2.717   2.949   4.763  0.00  0.00    +0.044 C 
ENDBRANCH  30  31
ENDBRANCH  29  30
ENDBRANCH  28  29
ENDBRANCH  27  28
ENDBRANCH  26  27
ENDBRANCH  24  26
ENDBRANCH  21  22
ENDBRANCH   1  21
TORSDOF 13
