REMARK  Name = ZINC48526481
REMARK  4 active torsions:
REMARK  status: ('A' for Active; 'I' for Inactive)
REMARK    1  A    between atoms: C_1  and  N_2
REMARK    2  A    between atoms: C_10  and  C_11
REMARK    3  A    between atoms: C_13  and  O_19
REMARK    4  A    between atoms: C_14  and  O_18
REMARK                            x       y       z     vdW  Elec       q    Type
REMARK                         _______ _______ _______ _____ _____    ______ ____
ROOT
ATOM      1  C   UNL     1      -0.425   1.423   0.060  0.00  0.00    +0.151 C 
ATOM      2  N   UNL     1      -0.179  -0.021   0.025  0.00  0.00    -0.327 N 
ATOM      3  C   UNL     1      -0.202  -0.829  -1.097  0.00  0.00    +0.069 A 
ATOM      4  C   UNL     1      -0.437  -0.597  -2.445  0.00  0.00    +0.029 A 
ATOM      5  C   UNL     1      -0.384  -1.644  -3.341  0.00  0.00    +0.022 A 
ATOM      6  C   UNL     1      -0.098  -2.931  -2.904  0.00  0.00    +0.043 A 
ATOM      7  C   UNL     1       0.138  -3.180  -1.571  0.00  0.00    +0.050 A 
ATOM      8  C   UNL     1       0.089  -2.130  -0.648  0.00  0.00    +0.091 A 
ATOM      9  N   UNL     1       0.272  -2.060   0.693  0.00  0.00    -0.227 NA
ATOM     10  C   UNL     1       0.120  -0.821   1.094  0.00  0.00    +0.142 A 
ATOM     11 CL   UNL     1      -0.036  -4.235  -4.048  0.00  0.00    -0.083 Cl
ENDROOT
BRANCH  10  12
ATOM     12  C   UNL     1       0.250  -0.358   2.492  0.00  0.00    +0.023 A 
ATOM     13  C   UNL     1       0.463   0.995   2.764  0.00  0.00    +0.060 A 
ATOM     14  C   UNL     1       0.583   1.423   4.072  0.00  0.00    +0.160 A 
ATOM     15  C   UNL     1       0.493   0.506   5.117  0.00  0.00    +0.177 A 
ATOM     16  C   UNL     1       0.282  -0.839   4.847  0.00  0.00    +0.087 A 
ATOM     17  C   UNL     1       0.154  -1.272   3.543  0.00  0.00    +0.035 A 
ATOM     18 CL   UNL     1       0.171  -1.978   6.153  0.00  0.00    -0.080 Cl
BRANCH  15  19
ATOM     19  O   UNL     1       0.612   0.929   6.403  0.00  0.00    -0.502 OA
ATOM     20  H   UNL     1      -0.227   1.181   6.814  0.00  0.00    +0.292 HD
ENDBRANCH  15  19
BRANCH  14  21
ATOM     21  O   UNL     1       0.790   2.741   4.340  0.00  0.00    -0.503 OA
ATOM     22  H   UNL     1      -0.023   3.251   4.455  0.00  0.00    +0.292 HD
ENDBRANCH  14  21
ENDBRANCH  10  12
TORSDOF 3
