REMARK  Name = ZINC12209072
REMARK  9 active torsions:
REMARK  status: ('A' for Active; 'I' for Inactive)
REMARK    1  A    between atoms: C_1  and  O_2
REMARK    2  A    between atoms: O_2  and  C_3
REMARK    3  A    between atoms: C_5  and  C_12
REMARK    4  A    between atoms: C_12  and  N_65
REMARK    5  A    between atoms: C_15  and  C_18
REMARK    6  A    between atoms: C_18  and  C_25
REMARK    7  A    between atoms: C_25  and  C_26
REMARK    8  A    between atoms: C_26  and  C_27
REMARK    9  A    between atoms: C_27  and  C_28
REMARK                            x       y       z     vdW  Elec       q    Type
REMARK                         _______ _______ _______ _____ _____    ______ ____
ROOT
ATOM      1  C   UNL     1      -0.621  -0.614  -3.748  0.00  0.00    -0.078 C 
ATOM      2  C   UNL     1       0.034  -0.021  -2.498  0.00  0.00    -0.013 C 
ATOM      3  C   UNL     1      -0.686  -0.545  -1.253  0.00  0.00    +0.018 C 
ATOM      4  C   UNL     1      -0.634  -2.075  -1.246  0.00  0.00    -0.013 C 
ATOM      5  C   UNL     1      -1.268  -2.608  -2.533  0.00  0.00    -0.078 C 
ATOM      6  N   UNL     1      -0.514  -2.087  -3.693  0.00  0.00    +0.382 N 
ATOM      7  H   UNL     1       0.475  -2.345  -3.591  0.00  0.00    -0.081 HD
ENDROOT
BRANCH   3   8
ATOM      8  C   UNL     1       0.002  -0.004   0.002  0.00  0.00    +0.115 C 
ATOM      9  C   UNL     1      -0.018   1.512   0.010  0.00  0.00    +0.244 C 
ATOM     10  O   UNL     1      -0.995   2.231   0.019  0.00  0.00    -0.273 OA
ATOM     11  N   UNL     1       1.274   1.894   0.000  0.00  0.00    -0.238 N 
ATOM     12  C   UNL     1       2.099   0.841  -0.013  0.00  0.00    +0.307 C 
ATOM     13  O   UNL     1       3.311   0.933  -0.025  0.00  0.00    -0.252 OA
ATOM     14  N   UNL     1       1.438  -0.331  -0.013  0.00  0.00    -0.285 N 
ATOM     15  H   UNL     1       1.569   2.818   0.002  0.00  0.00    +0.159 HD
ATOM     16  H   UNL     1       1.831  -1.218  -0.022  0.00  0.00    +0.151 HD
BRANCH   8  17
ATOM     17  C   UNL     1      -0.662  -0.558   1.264  0.00  0.00    +0.036 C 
BRANCH  17  18
ATOM     18  C   UNL     1       0.080  -0.045   2.499  0.00  0.00    +0.007 C 
BRANCH  18  19
ATOM     19  C   UNL     1      -0.584  -0.599   3.761  0.00  0.00    +0.035 C 
BRANCH  19  20
ATOM     20  C   UNL     1       0.147  -0.094   4.977  0.00  0.00    -0.047 A 
ATOM     21  C   UNL     1       1.202  -0.818   5.500  0.00  0.00    +0.003 A 
ATOM     22  C   UNL     1       1.876  -0.352   6.613  0.00  0.00    +0.000 A 
ATOM     23  C   UNL     1       1.490   0.834   7.209  0.00  0.00    +0.000 A 
ATOM     24  C   UNL     1       0.431   1.555   6.690  0.00  0.00    +0.000 A 
ATOM     25  C   UNL     1      -0.240   1.092   5.574  0.00  0.00    +0.003 A 
ENDBRANCH  19  20
ENDBRANCH  18  19
ENDBRANCH  17  18
ENDBRANCH   8  17
ENDBRANCH   3   8
BRANCH   6  26
ATOM     26  C   UNL     1      -1.037  -2.678  -4.942  0.00  0.00    -0.043 C 
BRANCH  26  29
ATOM     27  C   UNL     1       0.776  -5.947  -5.497  0.00  0.00    +0.166 A 
ATOM     28  C   UNL     1       0.476  -4.593  -5.491  0.00  0.00    +0.051 A 
ATOM     29  C   UNL     1      -0.718  -4.151  -4.953  0.00  0.00    -0.057 A 
ATOM     30  C   UNL     1      -1.622  -5.056  -4.430  0.00  0.00    +0.051 A 
ATOM     31  C   UNL     1      -1.333  -6.412  -4.438  0.00  0.00    +0.170 A 
ATOM     32  C   UNL     1      -0.130  -6.861  -4.973  0.00  0.00    +0.208 A 
ATOM     33  O   UNL     1      -0.083  -8.221  -4.865  0.00  0.00    -0.449 OA
ATOM     34  C   UNL     1      -1.087  -8.563  -3.890  0.00  0.00    +0.467 C 
ATOM     35  O   UNL     1      -2.042  -7.490  -3.993  0.00  0.00    -0.452 OA
BRANCH  27  37
ATOM     36  C   UNL     1       2.837  -5.385  -6.543  0.00  0.00    +0.277 C 
ATOM     37  O   UNL     1       1.954  -6.380  -6.022  0.00  0.00    -0.491 OA
ENDBRANCH  27  37
ENDBRANCH  26  29
ENDBRANCH   6  26
TORSDOF 8
