REMARK  Name = ZINC15744374
REMARK  8 active torsions:
REMARK  status: ('A' for Active; 'I' for Inactive)
REMARK    1  A    between atoms: C_1  and  C_2
REMARK    2  A    between atoms: C_2  and  C_4
REMARK    3  A    between atoms: C_2  and  C_24
REMARK    4  A    between atoms: C_4  and  N_5
REMARK    5  A    between atoms: C_6  and  C_8
REMARK    6  A    between atoms: C_8  and  C_9
REMARK    7  A    between atoms: C_9  and  N_10
REMARK    8  A    between atoms: N_13  and  C_14
REMARK                            x       y       z     vdW  Elec       q    Type
REMARK                         _______ _______ _______ _____ _____    ______ ____
ROOT
ATOM      1  N   UNL     1       2.797   9.711   3.733  0.00  0.00    -0.299 N 
ATOM      2  C   UNL     1       3.362  10.386   4.753  0.00  0.00    +0.300 C 
ATOM      3  O   UNL     1       3.974   9.786   5.615  0.00  0.00    -0.253 OA
ATOM      4  N   UNL     1       3.249  11.728   4.818  0.00  0.00    -0.294 N 
ATOM      5  H   UNL     1       2.308  10.190   3.045  0.00  0.00    +0.150 HD
ATOM      6  H   UNL     1       2.761  12.207   4.130  0.00  0.00    +0.151 HD
ENDROOT
BRANCH   4   7
ATOM      7  C   UNL     1       3.864  12.462   5.926  0.00  0.00    +0.037 C 
ATOM      8  C   UNL     1       3.271  11.977   7.250  0.00  0.00    +0.029 C 
ATOM      9  C   UNL     1       3.913  12.744   8.408  0.00  0.00    -0.008 C 
ATOM     10  C   UNL     1       3.638  14.240   8.244  0.00  0.00    +0.007 C 
ATOM     11  C   UNL     1       4.231  14.725   6.920  0.00  0.00    -0.008 C 
ATOM     12  C   UNL     1       3.589  13.958   5.762  0.00  0.00    +0.029 C 
ATOM     13  C   UNL     1       5.742  14.481   6.918  0.00  0.00    +0.007 C 
ATOM     14  C   UNL     1       6.016  12.985   7.082  0.00  0.00    -0.008 C 
ATOM     15  C   UNL     1       5.423  12.499   8.407  0.00  0.00    +0.007 C 
ATOM     16  C   UNL     1       5.375  12.218   5.925  0.00  0.00    +0.029 C 
ENDBRANCH   4   7
BRANCH   1  17
ATOM     17  C   UNL     1       2.919   8.253   3.663  0.00  0.00    +0.115 C 
BRANCH  17  18
ATOM     18  C   UNL     1       2.193   7.739   2.418  0.00  0.00    +0.114 C 
BRANCH  18  20
ATOM     19  N   UNL     1       1.754   5.564   1.325  0.00  0.00    -0.315 N 
ATOM     20  C   UNL     1       2.319   6.239   2.345  0.00  0.00    +0.215 C 
ATOM     21  O   UNL     1       2.930   5.640   3.205  0.00  0.00    -0.276 OA
ATOM     22  H   UNL     1       1.266   6.043   0.638  0.00  0.00    +0.149 HD
BRANCH  19  23
ATOM     23  C   UNL     1       1.876   4.106   1.255  0.00  0.00    +0.112 C 
BRANCH  23  25
ATOM     24  C   UNL     1       1.853   4.119  -1.243  0.00  0.00    +0.014 C 
ATOM     25  C   UNL     1       1.151   3.592   0.010  0.00  0.00    +0.033 C 
BRANCH  25  26
ATOM     26  C   UNL     1       1.171   2.086   0.002  0.00  0.00    -0.043 A 
ATOM     27  C   UNL     1      -0.017   1.378   0.010  0.00  0.00    +0.004 A 
ATOM     28  C   UNL     1       0.002  -0.004   0.002  0.00  0.00    +0.000 A 
ATOM     29  C   UNL     1       1.208  -0.679  -0.014  0.00  0.00    +0.000 A 
ATOM     30  C   UNL     1       2.396   0.029  -0.021  0.00  0.00    +0.000 A 
ATOM     31  C   UNL     1       2.377   1.411  -0.014  0.00  0.00    +0.004 A 
ENDBRANCH  25  26
ENDBRANCH  23  25
ENDBRANCH  19  23
ENDBRANCH  18  20
ENDBRANCH  17  18
ENDBRANCH   1  17
TORSDOF 7
