REMARK  Name = ZINC64661386
REMARK  7 active torsions:
REMARK  status: ('A' for Active; 'I' for Inactive)
REMARK    1  A    between atoms: C_7  and  C_10
REMARK    2  A    between atoms: C_10  and  C_11
REMARK    3  A    between atoms: C_11  and  N_12
REMARK    4  A    between atoms: C_13  and  C_15
REMARK    5  A    between atoms: C_15  and  C_16
REMARK    6  A    between atoms: C_16  and  N_17
REMARK    7  A    between atoms: N_28  and  C_29
REMARK                            x       y       z     vdW  Elec       q    Type
REMARK                         _______ _______ _______ _____ _____    ______ ____
ROOT
ATOM      1  C   UNL     1      -1.986  -7.025  -4.059  0.00  0.00    +0.124 C 
ENDROOT
BRANCH   1   2
ATOM      2  N   UNL     1      -2.901  -8.169  -4.058  0.00  0.00    -0.258 N 
ATOM      3  C   UNL     1      -4.242  -7.925  -4.149  0.00  0.00    +0.187 C 
ATOM      4  N   UNL     1      -5.153  -8.810  -3.886  0.00  0.00    -0.247 NA
ATOM      5  C   UNL     1      -4.694 -10.135  -3.469  0.00  0.00    +0.247 C 
ATOM      6  C   UNL     1      -3.263 -10.486  -3.865  0.00  0.00    +0.073 C 
ATOM      7  H   UNL     1      -4.793 -13.216  -4.205  0.00  0.00    +0.170 HD
ATOM      8  C   UNL     1      -2.372  -9.410  -3.973  0.00  0.00    +0.252 C 
ATOM      9  O   UNL     1      -1.167  -9.585  -3.967  0.00  0.00    -0.270 OA
ATOM     10  C   UNL     1      -3.277 -11.786  -4.170  0.00  0.00    +0.100 C 
ATOM     11  N   UNL     1      -4.554 -12.277  -4.168  0.00  0.00    -0.269 N 
ATOM     12  N   UNL     1      -5.486 -11.201  -4.088  0.00  0.00    -0.225 N 
BRANCH  12  13
ATOM     13  C   UNL     1      -6.819 -11.160  -4.507  0.00  0.00    +0.050 A 
ATOM     14  C   UNL     1      -7.560  -9.995  -4.358  0.00  0.00    +0.027 A 
ATOM     15  C   UNL     1      -8.877  -9.958  -4.773  0.00  0.00    +0.040 A 
ATOM     16  C   UNL     1      -9.458 -11.081  -5.337  0.00  0.00    +0.124 A 
ATOM     17  C   UNL     1      -8.722 -12.244  -5.486  0.00  0.00    +0.040 A 
ATOM     18  C   UNL     1      -7.402 -12.284  -5.078  0.00  0.00    +0.027 A 
ATOM     19  F   UNL     1     -10.747 -11.042  -5.741  0.00  0.00    -0.205 F 
ENDBRANCH  12  13
ENDBRANCH   1   2
BRANCH   1  20
ATOM     20  C   UNL     1      -1.752  -6.557  -2.622  0.00  0.00    +0.115 C 
BRANCH  20  22
ATOM     21  N   UNL     1      -0.458  -4.798  -1.460  0.00  0.00    -0.315 N 
ATOM     22  C   UNL     1      -0.811  -5.380  -2.623  0.00  0.00    +0.215 C 
ATOM     23  O   UNL     1      -0.371  -4.957  -3.671  0.00  0.00    -0.276 OA
ATOM     24  H   UNL     1      -0.810  -5.136  -0.622  0.00  0.00    +0.149 HD
BRANCH  21  25
ATOM     25  C   UNL     1       0.457  -3.653  -1.462  0.00  0.00    +0.108 C 
BRANCH  25  26
ATOM     26  C   UNL     1       0.691  -3.186  -0.024  0.00  0.00    +0.052 C 
BRANCH  26  33
ATOM     27  C   UNL     1      -0.016   1.348   0.009  0.00  0.00    +0.001 A 
ATOM     28  C   UNL     1       1.166   2.101   0.002  0.00  0.00    +0.002 A 
ATOM     29  C   UNL     1       2.391   1.535  -0.013  0.00  0.00    +0.026 A 
ATOM     30  C   UNL     1       2.529   0.120  -0.022  0.00  0.00    +0.043 A 
ATOM     31  N   UNL     1       3.587  -0.654  -0.037  0.00  0.00    -0.380 N 
ATOM     32  C   UNL     1       3.143  -2.053  -0.041  0.00  0.00    +0.144 C 
ATOM     33  C   UNL     1       1.631  -2.008  -0.025  0.00  0.00    -0.040 C 
ATOM     34  C   UNL     1       1.295  -0.698  -0.014  0.00  0.00    -0.001 A 
ATOM     35  C   UNL     1       0.002  -0.004   0.002  0.00  0.00    +0.010 A 
ATOM     36  H   UNL     1       4.509  -0.353  -0.045  0.00  0.00    +0.160 HD
ENDBRANCH  26  33
ENDBRANCH  25  26
ENDBRANCH  21  25
ENDBRANCH  20  22
ENDBRANCH   1  20
TORSDOF 7
