REMARK  Name = ZINC38744503
REMARK  8 active torsions:
REMARK  status: ('A' for Active; 'I' for Inactive)
REMARK    1  A    between atoms: C_1  and  C_2
REMARK    2  A    between atoms: C_2  and  C_3
REMARK    3  A    between atoms: C_2  and  C_4
REMARK    4  A    between atoms: C_6  and  C_10
REMARK    5  A    between atoms: C_14  and  C_19
REMARK    6  A    between atoms: C_19  and  C_20
REMARK    7  A    between atoms: C_19  and  C_26
REMARK    8  A    between atoms: C_19  and  O_32
REMARK                            x       y       z     vdW  Elec       q    Type
REMARK                         _______ _______ _______ _____ _____    ______ ____
ROOT
ATOM      1  C   UNL     1      -4.371  -0.991  -1.469  0.00  0.00    +0.182 C 
ATOM      2  N   UNL     1      -5.771  -1.210  -1.020  0.00  0.00    -0.265 N 
ATOM      3  N   UNL     1      -6.656  -1.502  -2.015  0.00  0.00    -0.221 N 
ATOM      4  C   UNL     1      -8.026  -1.452  -2.203  0.00  0.00    +0.192 A 
ATOM      5  N   UNL     1      -8.286  -1.921  -3.387  0.00  0.00    -0.128 NA
ATOM      6  N   UNL     1      -7.193  -2.253  -3.980  0.00  0.00    -0.121 NA
ATOM      7  C   UNL     1      -6.187  -2.002  -3.202  0.00  0.00    +0.211 A 
ATOM      8  S   UNL     1      -4.416  -2.006  -3.010  0.00  0.00    -0.058 S 
ATOM      9  H   UNL     1      -5.811  -1.902  -0.286  0.00  0.00    +0.168 HD
ENDROOT
BRANCH   1  12
ATOM     10  C   UNL     1      -1.412  -0.526   0.013  0.00  0.00    +0.064 C 
ATOM     11  C   UNL     1      -1.940  -1.303  -0.935  0.00  0.00    +0.029 C 
ATOM     12  C   UNL     1      -3.362  -1.543  -0.460  0.00  0.00    +0.185 C 
ATOM     13  N   UNL     1      -3.420  -0.792   0.805  0.00  0.00    -0.177 NA
ATOM     14  N   UNL     1      -2.315  -0.275   0.986  0.00  0.00    -0.158 NA
BRANCH  10  16
ATOM     15  C   UNL     1      -0.019   1.526   0.010  0.00  0.00    +0.014 C 
ATOM     16  C   UNL     1       0.002  -0.004   0.002  0.00  0.00    +0.033 C 
ATOM     17  C   UNL     1       0.742  -0.511   1.242  0.00  0.00    +0.014 C 
ENDBRANCH  10  16
ENDBRANCH   1  12
BRANCH   4  18
ATOM     18  C   UNL     1      -9.039  -0.944  -1.209  0.00  0.00    +0.177 C 
BRANCH  18  19
ATOM     19  C   UNL     1     -10.421  -1.059  -1.798  0.00  0.00    -0.004 A 
ATOM     20  C   UNL     1     -10.706  -2.065  -2.703  0.00  0.00    +0.007 A 
ATOM     21  C   UNL     1     -11.974  -2.170  -3.243  0.00  0.00    +0.000 A 
ATOM     22  C   UNL     1     -12.958  -1.270  -2.877  0.00  0.00    +0.000 A 
ATOM     23  C   UNL     1     -12.674  -0.265  -1.972  0.00  0.00    +0.000 A 
ATOM     24  C   UNL     1     -11.407  -0.162  -1.429  0.00  0.00    +0.007 A 
ENDBRANCH  18  19
BRANCH  18  25
ATOM     25  C   UNL     1      -8.960  -1.764   0.052  0.00  0.00    -0.004 A 
ATOM     26  C   UNL     1      -8.567  -3.088  -0.007  0.00  0.00    +0.007 A 
ATOM     27  C   UNL     1      -8.495  -3.841   1.150  0.00  0.00    +0.000 A 
ATOM     28  C   UNL     1      -8.815  -3.269   2.367  0.00  0.00    +0.000 A 
ATOM     29  C   UNL     1      -9.207  -1.945   2.427  0.00  0.00    +0.000 A 
ATOM     30  C   UNL     1      -9.275  -1.191   1.270  0.00  0.00    +0.007 A 
ENDBRANCH  18  25
BRANCH  18  31
ATOM     31  O   UNL     1      -8.763   0.425  -0.906  0.00  0.00    -0.372 OA
ATOM     32  H   UNL     1      -8.796   1.013  -1.673  0.00  0.00    +0.212 HD
ENDBRANCH  18  31
ENDBRANCH   4  18
TORSDOF 6
