REMARK  Name = ZINC63375246
REMARK  3 active torsions:
REMARK  status: ('A' for Active; 'I' for Inactive)
REMARK    1  A    between atoms: C_4  and  N_7
REMARK    2  A    between atoms: C_12  and  C_30
REMARK    3  A    between atoms: C_30  and  C_31
REMARK                            x       y       z     vdW  Elec       q    Type
REMARK                         _______ _______ _______ _____ _____    ______ ____
ROOT
ATOM      1  N   UNL     1       3.624  -0.652  -0.037  0.00  0.00    -0.210 N 
ATOM      2  C   UNL     1       4.801  -0.025  -0.139  0.00  0.00    +0.232 C 
ATOM      3  O   UNL     1       4.950   1.175  -0.228  0.00  0.00    -0.274 OA
ATOM      4  C   UNL     1       5.917  -1.044  -0.123  0.00  0.00    +0.107 C 
ATOM      5  C   UNL     1       6.600  -1.074  -1.507  0.00  0.00    +0.072 C 
ATOM      6  N   UNL     1       5.800  -2.037  -2.308  0.00  0.00    -0.295 NA
ATOM      7  C   UNL     1       5.458  -3.106  -1.350  0.00  0.00    +0.136 C 
ATOM      8  C   UNL     1       5.164  -2.399  -0.004  0.00  0.00    +0.123 C 
ATOM      9  C   UNL     1       3.710  -1.984   0.052  0.00  0.00    +0.233 C 
ATOM     10  O   UNL     1       2.770  -2.742   0.160  0.00  0.00    -0.274 OA
ATOM     11  C   UNL     1       4.283  -3.915  -1.820  0.00  0.00    +0.005 A 
ATOM     12  C   UNL     1       2.978  -3.602  -2.127  0.00  0.00    +0.027 A 
ATOM     13  C   UNL     1       2.107  -4.593  -2.545  0.00  0.00    +0.041 A 
ATOM     14  C   UNL     1       2.552  -5.900  -2.653  0.00  0.00    +0.022 A 
ATOM     15  C   UNL     1       3.859  -6.217  -2.346  0.00  0.00    +0.025 A 
ATOM     16  C   UNL     1       4.741  -5.225  -1.924  0.00  0.00    +0.039 A 
ATOM     17  N   UNL     1       6.088  -5.296  -1.560  0.00  0.00    -0.283 N 
ATOM     18  C   UNL     1       6.584  -4.094  -1.209  0.00  0.00    +0.243 C 
ATOM     19  O   UNL     1       7.717  -3.856  -0.848  0.00  0.00    -0.273 OA
ATOM     20 CL   UNL     1       0.461  -4.200  -2.933  0.00  0.00    -0.084 Cl
ATOM     21  H   UNL     1       4.967  -1.600  -2.673  0.00  0.00    +0.124 HD
ATOM     22  H   UNL     1       6.606  -6.116  -1.561  0.00  0.00    +0.155 HD
ENDROOT
BRANCH   1  26
ATOM     23  C   UNL     1      -0.017   1.377   0.011  0.00  0.00    +0.000 A 
ATOM     24  C   UNL     1       0.752   1.367  -1.139  0.00  0.00    +0.002 A 
ATOM     25  C   UNL     1       1.958   0.695  -1.158  0.00  0.00    +0.024 A 
ATOM     26  C   UNL     1       2.399   0.031  -0.021  0.00  0.00    +0.044 A 
ATOM     27  C   UNL     1       1.625   0.043   1.131  0.00  0.00    +0.024 A 
ATOM     28  C   UNL     1       0.419   0.717   1.144  0.00  0.00    +0.002 A 
ENDBRANCH   1  26
BRANCH   5  29
ATOM     29  C   UNL     1       6.564   0.315  -2.148  0.00  0.00    +0.052 C 
BRANCH  29  30
ATOM     30  C   UNL     1       7.342   0.292  -3.438  0.00  0.00    -0.040 C 
ATOM     31  C   UNL     1       6.847   0.107  -4.683  0.00  0.00    -0.001 A 
ATOM     32  C   UNL     1       5.488  -0.122  -5.189  0.00  0.00    +0.010 A 
ATOM     33  C   UNL     1       5.301  -0.276  -6.519  0.00  0.00    +0.001 A 
ATOM     34  C   UNL     1       6.369  -0.223  -7.425  0.00  0.00    +0.002 A 
ATOM     35  C   UNL     1       7.645  -0.016  -7.037  0.00  0.00    +0.026 A 
ATOM     36  C   UNL     1       7.958   0.159  -5.660  0.00  0.00    +0.043 A 
ATOM     37  N   UNL     1       9.095   0.369  -5.044  0.00  0.00    -0.380 N 
ATOM     38  C   UNL     1       8.834   0.480  -3.604  0.00  0.00    +0.144 C 
ATOM     39  H   UNL     1       9.964   0.443  -5.468  0.00  0.00    +0.160 HD
ENDBRANCH  29  30
ENDBRANCH   5  29
TORSDOF 3
