REMARK  Name = ZINC22024023
REMARK  11 active torsions:
REMARK  status: ('A' for Active; 'I' for Inactive)
REMARK    1  A    between atoms: C_1  and  C_2
REMARK    2  A    between atoms: C_4  and  C_29
REMARK    3  A    between atoms: C_5  and  C_28
REMARK    4  A    between atoms: C_6  and  S_9
REMARK    5  A    between atoms: C_7  and  C_8
REMARK    6  A    between atoms: S_9  and  N_12
REMARK    7  A    between atoms: N_12  and  C_13
REMARK    8  A    between atoms: C_13  and  C_15
REMARK    9  A    between atoms: C_13  and  C_16
REMARK   10  A    between atoms: N_18  and  C_19
REMARK   11  A    between atoms: C_22  and  N_26
REMARK                            x       y       z     vdW  Elec       q    Type
REMARK                         _______ _______ _______ _____ _____    ______ ____
ROOT
ATOM      1  C   UNL     1      -5.486   1.631   0.013  0.00  0.00    +0.159 C 
ATOM      2  C   UNL     1      -5.734   0.883  -1.299  0.00  0.00    +0.035 C 
ENDROOT
BRANCH   1   3
ATOM      3  C   UNL     1      -4.472   2.722  -0.215  0.00  0.00    +0.236 C 
ATOM      4  O   UNL     1      -4.768   3.879  -0.005  0.00  0.00    -0.274 OA
ATOM      5  N   UNL     1      -3.235   2.411  -0.651  0.00  0.00    -0.284 N 
ATOM      6  H   UNL     1      -2.990   1.372  -0.916  0.00  0.00    +0.155 HD
BRANCH   5   7
ATOM      7  C   UNL     1      -2.261   3.413  -0.767  0.00  0.00    +0.036 A 
ATOM      8  C   UNL     1      -2.244   4.472   0.131  0.00  0.00    +0.045 A 
ATOM      9  C   UNL     1      -1.280   5.456   0.021  0.00  0.00    +0.065 A 
ATOM     10  C   UNL     1      -0.332   5.388  -0.992  0.00  0.00    +0.062 A 
ATOM     11  C   UNL     1      -0.352   4.331  -1.893  0.00  0.00    +0.065 A 
ATOM     12  C   UNL     1      -1.317   3.348  -1.782  0.00  0.00    +0.045 A 
ATOM     13 CL   UNL     1       0.832   4.247  -3.159  0.00  0.00    -0.082 Cl
ATOM     14 CL   UNL     1      -1.256   6.776   1.147  0.00  0.00    -0.082 Cl
BRANCH  10  15
ATOM     15  N   UNL     1       0.645   6.386  -1.104  0.00  0.00    -0.356 N 
ATOM     16  H   UNL     1       1.396   6.332  -1.906  0.00  0.00    +0.142 HD
ATOM     17  H   UNL     1       0.661   7.223  -0.391  0.00  0.00    +0.142 HD
ENDBRANCH  10  15
ENDBRANCH   5   7
ENDBRANCH   1   3
BRANCH   1  18
ATOM     18  N   UNL     1      -6.742   2.222   0.482  0.00  0.00    -0.178 NA
ATOM     19  H   UNL     1      -6.989   3.263   0.227  0.00  0.00    +0.149 HD
BRANCH  18  20
ATOM     20  S   UNL     1      -7.670   1.419   1.595  0.00  0.00    +0.060 S 
ATOM     21  O   UNL     1      -8.811   2.232   1.834  0.00  0.00    -0.153 OA
ATOM     22  O   UNL     1      -7.771   0.075   1.145  0.00  0.00    -0.153 OA
BRANCH  20  28
ATOM     23  C   UNL     1      -4.572  -1.032   5.019  0.00  0.00    +0.044 C 
ATOM     24  C   UNL     1      -5.338   0.208   4.635  0.00  0.00    -0.045 A 
ATOM     25  C   UNL     1      -5.326   1.313   5.466  0.00  0.00    +0.007 A 
ATOM     26  C   UNL     1      -6.028   2.450   5.115  0.00  0.00    -0.045 A 
ATOM     27  C   UNL     1      -6.744   2.483   3.932  0.00  0.00    -0.021 A 
ATOM     28  C   UNL     1      -6.757   1.378   3.102  0.00  0.00    +0.112 A 
ATOM     29  C   UNL     1      -6.059   0.239   3.456  0.00  0.00    -0.021 A 
ATOM     30  C   UNL     1      -6.078  -0.968   2.554  0.00  0.00    +0.046 C 
ATOM     31  C   UNL     1      -7.510   3.723   3.549  0.00  0.00    +0.046 C 
ATOM     32  C   UNL     1      -6.014   3.655   6.020  0.00  0.00    +0.044 C 
ENDBRANCH  20  28
ENDBRANCH  18  20
ENDBRANCH   1  18
TORSDOF 6
