REMARK  Name = ZINC02747107
REMARK  13 active torsions:
REMARK  status: ('A' for Active; 'I' for Inactive)
REMARK    1  A    between atoms: C_1  and  C_2
REMARK    2  A    between atoms: C_3  and  C_31
REMARK    3  A    between atoms: C_4  and  N_13
REMARK    4  A    between atoms: C_6  and  C_7
REMARK    5  A    between atoms: C_7  and  O_9
REMARK    6  A    between atoms: O_9  and  C_10
REMARK    7  A    between atoms: C_10  and  C_11
REMARK    8  A    between atoms: C_10  and  C_12
REMARK    9  A    between atoms: C_14  and  C_16
REMARK   10  A    between atoms: C_20  and  C_22
REMARK   11  A    between atoms: C_22  and  N_23
REMARK   12  A    between atoms: C_24  and  C_30
REMARK   13  A    between atoms: C_26  and  C_28
REMARK                            x       y       z     vdW  Elec       q    Type
REMARK                         _______ _______ _______ _____ _____    ______ ____
ROOT
ATOM      1  N   UNL     1       1.452   3.409   0.006  0.00  0.00    -0.275 N 
ATOM      2  C   UNL     1       2.718   3.870  -0.003  0.00  0.00    +0.249 C 
ATOM      3  O   UNL     1       3.649   3.088  -0.016  0.00  0.00    -0.270 OA
ATOM      4  H   UNL     1       0.609   4.116   0.018  0.00  0.00    +0.156 HD
ENDROOT
BRANCH   1   8
ATOM      5  C   UNL     1      -1.277  -0.801   0.010  0.00  0.00    +0.046 C 
ATOM      6  C   UNL     1       0.002  -0.004   0.002  0.00  0.00    -0.015 A 
ATOM      7  C   UNL     1      -0.017   1.381   0.010  0.00  0.00    +0.069 A 
ATOM      8  C   UNL     1       1.212   2.050   0.002  0.00  0.00    +0.085 A 
ATOM      9  S   UNL     1       2.360   0.751  -0.016  0.00  0.00    -0.066 S 
ATOM     10  C   UNL     1       1.224  -0.624  -0.013  0.00  0.00    +0.102 A 
BRANCH   7  11
ATOM     11  C   UNL     1      -1.284   2.123   0.020  0.00  0.00    +0.244 C 
ATOM     12  O   UNL     1      -1.804   2.425   1.078  0.00  0.00    -0.270 OA
ATOM     13  N   UNL     1      -1.872   2.470  -1.143  0.00  0.00    -0.325 N 
ATOM     14  H   UNL     1      -2.821   3.026  -1.135  0.00  0.00    +0.145 HD
ATOM     15  H   UNL     1      -1.401   2.197  -2.099  0.00  0.00    +0.145 HD
ENDBRANCH   7  11
BRANCH  10  16
ATOM     16  C   UNL     1       1.522  -2.055  -0.024  0.00  0.00    +0.346 C 
ATOM     17  O   UNL     1       0.614  -2.865  -0.020  0.00  0.00    -0.244 OA
BRANCH  16  18
ATOM     18  O   UNL     1       2.803  -2.477  -0.038  0.00  0.00    -0.458 OA
BRANCH  18  19
ATOM     19  C   UNL     1       3.021  -3.889  -0.048  0.00  0.00    +0.171 C 
ATOM     20  C   UNL     1       4.326  -4.199  -0.784  0.00  0.00    +0.052 C 
ATOM     21  C   UNL     1       3.112  -4.402   1.390  0.00  0.00    +0.052 C 
ENDBRANCH  18  19
ENDBRANCH  16  18
ENDBRANCH  10  16
ENDBRANCH   1   8
BRANCH   2  22
ATOM     22  C   UNL     1       2.975   5.325   0.002  0.00  0.00    +0.037 A 
ATOM     23  C   UNL     1       1.908   6.225   0.011  0.00  0.00    +0.013 A 
ATOM     24  C   UNL     1       2.155   7.582   0.023  0.00  0.00    +0.001 A 
ATOM     25  C   UNL     1       3.456   8.052   0.013  0.00  0.00    +0.005 A 
ATOM     26  C   UNL     1       4.518   7.166  -0.003  0.00  0.00    -0.025 A 
ATOM     27  C   UNL     1       4.286   5.806  -0.008  0.00  0.00    +0.018 A 
BRANCH  26  28
ATOM     28  C   UNL     1       5.932   7.687  -0.013  0.00  0.00    +0.179 C 
BRANCH  28  29
ATOM     29  N   UNL     1       6.377   7.863  -1.398  0.00  0.00    -0.263 N 
ATOM     30  C   UNL     1       7.001   6.936  -2.156  0.00  0.00    +0.055 A 
ATOM     31  C   UNL     1       7.239   7.487  -3.369  0.00  0.00    +0.084 A 
ATOM     32  C   UNL     1       6.753   8.799  -3.348  0.00  0.00    +0.078 A 
ATOM     33  N   UNL     1       6.237   9.025  -2.167  0.00  0.00    -0.174 NA
ATOM     34  C   UNL     1       6.815   9.783  -4.488  0.00  0.00    +0.069 C 
ATOM     35 CL   UNL     1       8.017   6.707  -4.711  0.00  0.00    -0.080 Cl
ATOM     36  C   UNL     1       7.363   5.536  -1.730  0.00  0.00    +0.067 C 
ENDBRANCH  28  29
ENDBRANCH  26  28
ENDBRANCH   2  22
TORSDOF 8
