REMARK  Name = ZINC21235934
REMARK  14 active torsions:
REMARK  status: ('A' for Active; 'I' for Inactive)
REMARK    1  A    between atoms: C_1  and  C_2
REMARK    2  A    between atoms: C_2  and  C_3
REMARK    3  A    between atoms: C_3  and  C_5
REMARK    4  A    between atoms: C_3  and  N_32
REMARK    5  A    between atoms: C_8  and  S_17
REMARK    6  A    between atoms: N_9  and  C_10
REMARK    7  A    between atoms: C_10  and  C_11
REMARK    8  A    between atoms: S_17  and  C_18
REMARK    9  A    between atoms: C_18  and  C_20
REMARK   10  A    between atoms: C_18  and  C_21
REMARK   11  A    between atoms: N_23  and  C_24
REMARK   12  A    between atoms: C_24  and  C_30
REMARK   13  A    between atoms: N_32  and  C_33
REMARK   14  A    between atoms: N_32  and  C_34
REMARK                            x       y       z     vdW  Elec       q    Type
REMARK                         _______ _______ _______ _____ _____    ______ ____
ROOT
ATOM      1  C   UNL     1      -2.699  -0.563   1.946  0.00  0.00    +0.121 A 
ATOM      2  N   UNL     1      -3.278  -0.210   3.059  0.00  0.00    -0.135 NA
ATOM      3  N   UNL     1      -4.063   0.786   2.851  0.00  0.00    -0.123 NA
ATOM      4  C   UNL     1      -4.024   1.128   1.584  0.00  0.00    +0.193 A 
ATOM      5  N   UNL     1      -3.150   0.280   0.968  0.00  0.00    -0.303 N 
ENDROOT
BRANCH   1   6
ATOM      6  C   UNL     1      -1.715  -1.690   1.770  0.00  0.00    +0.000 C 
BRANCH   6   7
ATOM      7  N   UNL     1      -0.709  -1.633   2.838  0.00  0.00    +0.383 N 
ATOM      8  C   UNL     1       0.022  -0.358   2.806  0.00  0.00    -0.096 C 
ATOM      9  C   UNL     1      -1.324  -1.853   4.154  0.00  0.00    -0.096 C 
ATOM     10  H   UNL     1       0.016  -2.442   2.664  0.00  0.00    -0.082 HD
ENDBRANCH   6   7
BRANCH   6  12
ATOM     11  C   UNL     1      -1.470  -4.168   1.564  0.00  0.00    +0.002 C 
ATOM     12  C   UNL     1      -2.454  -3.028   1.837  0.00  0.00    -0.011 C 
ENDBRANCH   6  12
ENDBRANCH   1   6
BRANCH   5  13
ATOM     13  C   UNL     1      -2.777   0.270  -0.449  0.00  0.00    +0.160 C 
BRANCH  13  14
ATOM     14  C   UNL     1      -1.582   1.165  -0.660  0.00  0.00    -0.028 A 
ATOM     15  C   UNL     1      -0.305   0.647  -0.558  0.00  0.00    +0.005 A 
ATOM     16  C   UNL     1       0.791   1.467  -0.757  0.00  0.00    +0.000 A 
ATOM     17  C   UNL     1       0.608   2.805  -1.053  0.00  0.00    +0.000 A 
ATOM     18  C   UNL     1      -0.669   3.323  -1.150  0.00  0.00    +0.000 A 
ATOM     19  C   UNL     1      -1.765   2.504  -0.951  0.00  0.00    +0.005 A 
ENDBRANCH  13  14
ENDBRANCH   5  13
BRANCH   4  20
ATOM     20  S   UNL     1      -4.928   2.436   0.823  0.00  0.00    -0.074 S 
BRANCH  20  21
ATOM     21  C   UNL     1      -5.832   3.069   2.258  0.00  0.00    +0.137 C 
ATOM     22  C   UNL     1      -6.804   1.999   2.760  0.00  0.00    +0.029 C 
BRANCH  21  23
ATOM     23  C   UNL     1      -6.603   4.302   1.862  0.00  0.00    +0.227 C 
ATOM     24  O   UNL     1      -6.929   4.468   0.705  0.00  0.00    -0.275 OA
ATOM     25  N   UNL     1      -6.929   5.220   2.792  0.00  0.00    -0.296 N 
ATOM     26  H   UNL     1      -6.633   5.070   3.841  0.00  0.00    +0.150 HD
BRANCH  25  27
ATOM     27  C   UNL     1      -7.678   6.419   2.407  0.00  0.00    +0.121 C 
ATOM     28  C   UNL     1      -6.877   7.211   1.372  0.00  0.00    +0.041 C 
ATOM     29  C   UNL     1      -7.659   8.463   0.970  0.00  0.00    +0.003 C 
ATOM     30  C   UNL     1      -7.897   9.334   2.205  0.00  0.00    +0.000 C 
ATOM     31  C   UNL     1      -8.699   8.542   3.240  0.00  0.00    +0.003 C 
ATOM     32  C   UNL     1      -7.917   7.290   3.643  0.00  0.00    +0.041 C 
BRANCH  27  33
ATOM     33  C   UNL     1      -8.972   6.024   1.828  0.00  0.00    +0.088 C 
ATOM     34  N   UNL     1      -9.971   5.719   1.381  0.00  0.00    -0.194 NA
ENDBRANCH  27  33
ENDBRANCH  25  27
ENDBRANCH  21  23
ENDBRANCH  20  21
ENDBRANCH   4  20
TORSDOF 10
