REMARK  Name = ZINC21665453
REMARK  10 active torsions:
REMARK  status: ('A' for Active; 'I' for Inactive)
REMARK    1  A    between atoms: C_1  and  C_2
REMARK    2  A    between atoms: C_2  and  C_4
REMARK    3  A    between atoms: C_2  and  S_16
REMARK    4  A    between atoms: N_6  and  C_7
REMARK    5  A    between atoms: C_12  and  C_13
REMARK    6  A    between atoms: C_13  and  C_14
REMARK    7  A    between atoms: C_13  and  C_15
REMARK    8  A    between atoms: S_16  and  C_17
REMARK    9  A    between atoms: C_20  and  C_23
REMARK   10  A    between atoms: N_21  and  N_22
REMARK                            x       y       z     vdW  Elec       q    Type
REMARK                         _______ _______ _______ _____ _____    ______ ____
ROOT
ATOM      1  C   UNL     1      -0.013   1.543   0.028  0.00  0.00    +0.029 C 
ATOM      2  C   UNL     1       0.004   0.013   0.007  0.00  0.00    +0.137 C 
ENDROOT
BRANCH   2   3
ATOM      3  C   UNL     1       0.732  -0.498   1.224  0.00  0.00    +0.230 C 
ATOM      4  O   UNL     1       0.105  -0.892   2.184  0.00  0.00    -0.274 OA
ATOM      5  N   UNL     1       2.079  -0.516   1.244  0.00  0.00    -0.284 N 
ATOM      6  H   UNL     1       2.580  -0.277   0.449  0.00  0.00    +0.155 HD
BRANCH   5   7
ATOM      7  C   UNL     1       2.756  -0.881   2.413  0.00  0.00    +0.037 A 
ATOM      8  C   UNL     1       2.143  -0.726   3.650  0.00  0.00    +0.023 A 
ATOM      9  C   UNL     1       2.814  -1.087   4.801  0.00  0.00    +0.002 A 
ATOM     10  C   UNL     1       4.095  -1.603   4.725  0.00  0.00    +0.000 A 
ATOM     11  C   UNL     1       4.708  -1.758   3.495  0.00  0.00    +0.006 A 
ATOM     12  C   UNL     1       4.040  -1.405   2.339  0.00  0.00    -0.024 A 
BRANCH  12  13
ATOM     13  C   UNL     1       4.707  -1.582   0.999  0.00  0.00    +0.015 C 
ATOM     14  C   UNL     1       6.053  -0.854   0.999  0.00  0.00    +0.012 C 
ATOM     15  C   UNL     1       4.932  -3.071   0.734  0.00  0.00    +0.012 C 
ENDBRANCH  12  13
ENDBRANCH   5   7
ENDBRANCH   2   3
BRANCH   2  16
ATOM     16  S   UNL     1      -1.699  -0.611   0.015  0.00  0.00    -0.072 S 
BRANCH  16  17
ATOM     17  C   UNL     1      -2.363  -0.058  -1.520  0.00  0.00    +0.209 A 
ATOM     18  N   UNL     1      -1.733   0.639  -2.438  0.00  0.00    -0.121 NA
ATOM     19  N   UNL     1      -2.519   0.868  -3.428  0.00  0.00    -0.132 NA
ATOM     20  C   UNL     1      -3.687   0.336  -3.205  0.00  0.00    +0.154 A 
ATOM     21  N   UNL     1      -3.628  -0.278  -1.984  0.00  0.00    -0.228 N 
BRANCH  20  22
ATOM     22  C   UNL     1      -4.881   0.382  -4.124  0.00  0.00    +0.059 C 
ATOM     23  C   UNL     1      -4.524  -0.279  -5.457  0.00  0.00    +0.011 C 
ATOM     24  C   UNL     1      -5.735  -0.231  -6.391  0.00  0.00    +0.001 C 
ATOM     25  C   UNL     1      -6.134   1.226  -6.635  0.00  0.00    +0.000 C 
ATOM     26  C   UNL     1      -6.491   1.887  -5.302  0.00  0.00    +0.001 C 
ATOM     27  C   UNL     1      -5.280   1.839  -4.368  0.00  0.00    +0.011 C 
ENDBRANCH  20  22
BRANCH  21  28
ATOM     28  N   UNL     1      -4.628  -0.967  -1.358  0.00  0.00    -0.295 N 
ATOM     29  H   UNL     1      -5.183  -0.353  -0.781  0.00  0.00    +0.163 HD
ATOM     30  H   UNL     1      -5.206  -1.454  -2.027  0.00  0.00    +0.163 HD
ENDBRANCH  21  28
ENDBRANCH  16  17
ENDBRANCH   2  16
TORSDOF 7
