REMARK  Name = ZINC49124288
REMARK  6 active torsions:
REMARK  status: ('A' for Active; 'I' for Inactive)
REMARK    1  A    between atoms: C_1  and  C_2
REMARK    2  A    between atoms: C_2  and  C_3
REMARK    3  A    between atoms: C_6  and  N_9
REMARK    4  A    between atoms: N_12  and  C_13
REMARK    5  A    between atoms: N_12  and  C_17
REMARK    6  A    between atoms: C_13  and  C_14
REMARK                            x       y       z     vdW  Elec       q    Type
REMARK                         _______ _______ _______ _____ _____    ______ ____
ROOT
ATOM      1  N   UNL     1       3.452  -2.674  -1.354  0.00  0.00    -0.296 N 
ATOM      2  C   UNL     1       3.950  -3.926  -1.403  0.00  0.00    +0.303 C 
ATOM      3  O   UNL     1       3.870  -4.572  -2.430  0.00  0.00    -0.253 OA
ATOM      4  N   UNL     1       4.536  -4.462  -0.314  0.00  0.00    -0.272 N 
ATOM      5  H   UNL     1       3.516  -2.159  -0.535  0.00  0.00    +0.151 HD
ENDROOT
BRANCH   1   9
ATOM      6  C   UNL     1       0.718  -0.497  -1.257  0.00  0.00    -0.011 C 
ATOM      7  C   UNL     1       2.187  -0.073  -1.207  0.00  0.00    +0.005 C 
ATOM      8  C   UNL     1       2.904  -0.566  -2.466  0.00  0.00    +0.022 C 
ATOM      9  C   UNL     1       2.816  -2.092  -2.538  0.00  0.00    +0.074 C 
ATOM     10  C   UNL     1       1.347  -2.517  -2.587  0.00  0.00    +0.022 C 
ATOM     11  C   UNL     1       0.630  -2.023  -1.329  0.00  0.00    +0.005 C 
BRANCH   6  13
ATOM     12  C   UNL     1      -0.019   1.526   0.010  0.00  0.00    +0.004 C 
ATOM     13  C   UNL     1       0.002  -0.004   0.002  0.00  0.00    -0.000 C 
ENDBRANCH   6  13
ENDBRANCH   1   9
BRANCH   4  14
ATOM     14  C   UNL     1       5.076  -5.822  -0.367  0.00  0.00    +0.078 C 
ATOM     15  C   UNL     1       6.120  -5.932  -1.498  0.00  0.00    +0.022 C 
ATOM     16  C   UNL     1       5.898  -7.349  -2.083  0.00  0.00    +0.002 C 
ATOM     17  C   UNL     1       4.358  -7.504  -2.028  0.00  0.00    +0.002 C 
ATOM     18  C   UNL     1       3.956  -6.822  -0.704  0.00  0.00    +0.022 C 
ENDBRANCH   4  14
BRANCH   4  19
ATOM     19  C   UNL     1       4.632  -3.683   0.924  0.00  0.00    +0.234 C 
BRANCH  19  20
ATOM     20  C   UNL     1       3.410  -3.931   1.770  0.00  0.00    +0.373 C 
ATOM     21  O   UNL     1       2.539  -4.688   1.376  0.00  0.00    -0.245 OA
ATOM     22  O   UNL     1       3.292  -3.375   2.848  0.00  0.00    -0.245 OA
ENDBRANCH  19  20
ENDBRANCH   4  19
TORSDOF 5
