REMARK  Name = ZINC66401603
REMARK  6 active torsions:
REMARK  status: ('A' for Active; 'I' for Inactive)
REMARK    1  A    between atoms: C_1  and  N_2
REMARK    2  A    between atoms: N_2  and  C_3
REMARK    3  A    between atoms: N_2  and  C_4
REMARK    4  A    between atoms: C_9  and  N_10
REMARK    5  A    between atoms: N_13  and  C_14
REMARK    6  A    between atoms: C_14  and  C_18
REMARK                            x       y       z     vdW  Elec       q    Type
REMARK                         _______ _______ _______ _____ _____    ______ ____
ROOT
ATOM      1  N   UNL     1      -2.424  -0.726  -1.190  0.00  0.00    -0.268 N 
ATOM      2  C   UNL     1      -3.588  -0.987  -1.817  0.00  0.00    +0.305 C 
ATOM      3  O   UNL     1      -3.588  -1.584  -2.876  0.00  0.00    -0.252 OA
ATOM      4  N   UNL     1      -4.752  -0.586  -1.270  0.00  0.00    -0.290 N 
ATOM      5  H   UNL     1      -2.427  -0.324  -0.308  0.00  0.00    +0.156 HD
ATOM      6  H   UNL     1      -4.749  -0.046  -0.464  0.00  0.00    +0.151 HD
ENDROOT
BRANCH   1  12
ATOM      7  C   UNL     1      -0.065  -1.261  -1.046  0.00  0.00    +0.051 A 
ATOM      8  C   UNL     1       1.135  -1.574  -1.669  0.00  0.00    +0.025 A 
ATOM      9  C   UNL     1       1.196  -1.657  -3.048  0.00  0.00    +0.002 A 
ATOM     10  C   UNL     1       0.065  -1.429  -3.809  0.00  0.00    +0.002 A 
ATOM     11  C   UNL     1      -1.135  -1.116  -3.196  0.00  0.00    +0.025 A 
ATOM     12  C   UNL     1      -1.207  -1.037  -1.814  0.00  0.00    +0.056 A 
BRANCH   7  14
ATOM     13  C   UNL     1       0.121   0.103   1.018  0.00  0.00    +0.129 C 
ATOM     14  N   UNL     1      -0.129  -1.176   0.349  0.00  0.00    -0.335 N 
ATOM     15  C   UNL     1      -0.447  -2.367   1.141  0.00  0.00    +0.129 C 
ENDBRANCH   7  14
ENDBRANCH   1  12
BRANCH   4  16
ATOM     16  C   UNL     1      -6.023  -0.965  -1.892  0.00  0.00    +0.061 C 
ATOM     17  C   UNL     1      -7.195  -1.044  -0.899  0.00  0.00    +0.031 C 
ATOM     18  C   UNL     1      -6.804  -2.515  -0.676  0.00  0.00    +0.005 C 
ATOM     19  C   UNL     1      -6.186  -2.482  -2.084  0.00  0.00    +0.031 C 
BRANCH  16  20
ATOM     20  C   UNL     1      -6.331  -0.163  -3.130  0.00  0.00    -0.024 A 
ATOM     21  C   UNL     1      -7.315  -0.589  -4.003  0.00  0.00    +0.006 A 
ATOM     22  C   UNL     1      -7.597   0.147  -5.138  0.00  0.00    +0.000 A 
ATOM     23  C   UNL     1      -6.897   1.309  -5.401  0.00  0.00    +0.000 A 
ATOM     24  C   UNL     1      -5.914   1.736  -4.527  0.00  0.00    +0.000 A 
ATOM     25  C   UNL     1      -5.635   1.003  -3.389  0.00  0.00    +0.006 A 
ENDBRANCH  16  20
ENDBRANCH   4  16
TORSDOF 4
