REMARK  Name = ZINC01582112
REMARK  7 active torsions:
REMARK  status: ('A' for Active; 'I' for Inactive)
REMARK    1  A    between atoms: C_1  and  C_2
REMARK    2  A    between atoms: C_2  and  C_13
REMARK    3  A    between atoms: C_4  and  C_10
REMARK    4  A    between atoms: C_4  and  O_12
REMARK    5  A    between atoms: C_6  and  C_8
REMARK    6  A    between atoms: C_6  and  C_9
REMARK    7  A    between atoms: C_7  and  N_34
REMARK                            x       y       z     vdW  Elec       q    Type
REMARK                         _______ _______ _______ _____ _____    ______ ____
ROOT
ATOM      1  C   UNL     1       1.246   3.613  -0.362  0.00  0.00    -0.010 C 
ATOM      2  C   UNL     1       1.384   2.114   0.000  0.00  0.00    -0.068 C 
ATOM      3  C   UNL     1      -0.019   1.521   0.010  0.00  0.00    +0.034 C 
ATOM      4  C   UNL     1       0.002  -0.004   0.002  0.00  0.00    +0.164 C 
ATOM      5  C   UNL     1       0.819  -0.505  -1.184  0.00  0.00    +0.034 C 
ATOM      6  C   UNL     1       2.229   0.074  -1.192  0.00  0.00    -0.068 C 
ATOM      7  C   UNL     1       3.634   2.022  -0.890  0.00  0.00    -0.095 C 
ATOM      8  C   UNL     1       3.108  -0.663  -0.176  0.00  0.00    -0.010 C 
ATOM      9  C   UNL     1       2.831  -0.205  -2.591  0.00  0.00    -0.010 C 
ATOM     10  C   UNL     1       1.991   2.053   1.407  0.00  0.00    -0.010 C 
ATOM     11  N   UNL     1       2.257   1.568  -1.077  0.00  0.00    +0.385 N 
ATOM     12  H   UNL     1       1.914   1.950  -1.967  0.00  0.00    -0.081 HD
ENDROOT
BRANCH   4  13
ATOM     13  C   UNL     1      -1.423  -0.501  -0.155  0.00  0.00    +0.387 C 
ATOM     14  O   UNL     1      -2.252   0.200  -0.684  0.00  0.00    -0.243 OA
ATOM     15  O   UNL     1      -1.762  -1.720   0.294  0.00  0.00    -0.243 OA
ENDBRANCH   4  13
BRANCH   4  16
ATOM     16  O   UNL     1       0.515  -0.515   1.230  0.00  0.00    -0.377 OA
ATOM     17  H   UNL     1       0.547  -1.481   1.272  0.00  0.00    +0.211 HD
ENDBRANCH   4  16
TORSDOF 2
