REMARK  Name = ZINC39730081
REMARK  9 active torsions:
REMARK  status: ('A' for Active; 'I' for Inactive)
REMARK    1  A    between atoms: C_1  and  C_2
REMARK    2  A    between atoms: C_2  and  N_3
REMARK    3  A    between atoms: C_4  and  C_29
REMARK    4  A    between atoms: C_8  and  S_9
REMARK    5  A    between atoms: S_9  and  C_10
REMARK    6  A    between atoms: C_10  and  C_11
REMARK    7  A    between atoms: C_11  and  C_13
REMARK    8  A    between atoms: C_21  and  C_23
REMARK    9  A    between atoms: C_29  and  N_30
REMARK                            x       y       z     vdW  Elec       q    Type
REMARK                         _______ _______ _______ _____ _____    ______ ____
ROOT
ATOM      1  C   UNL     1      -2.341  -0.997  -3.874  0.00  0.00    +0.156 C 
ENDROOT
BRANCH   1   2
ATOM      2  C   UNL     1      -1.847  -0.882  -5.293  0.00  0.00    +0.172 C 
ATOM      3  O   UNL     1      -0.701  -0.546  -5.511  0.00  0.00    -0.291 OA
BRANCH   2   4
ATOM      4  C   UNL     1      -2.715  -1.166  -6.368  0.00  0.00    +0.031 C 
ATOM      5  C   UNL     1      -4.041  -1.553  -6.293  0.00  0.00    +0.007 A 
ATOM      6  C   UNL     1      -4.917  -1.781  -5.205  0.00  0.00    +0.010 A 
ATOM      7  C   UNL     1      -6.194  -2.162  -5.427  0.00  0.00    +0.001 A 
ATOM      8  C   UNL     1      -6.712  -2.349  -6.719  0.00  0.00    +0.002 A 
ATOM      9  C   UNL     1      -5.960  -2.158  -7.825  0.00  0.00    +0.026 A 
ATOM     10  C   UNL     1      -4.556  -1.741  -7.672  0.00  0.00    +0.044 A 
ATOM     11  N   UNL     1      -3.623  -1.490  -8.545  0.00  0.00    -0.373 N 
ATOM     12  C   UNL     1      -2.394  -1.105  -7.846  0.00  0.00    +0.144 C 
ATOM     13  H   UNL     1      -3.727  -1.546  -9.508  0.00  0.00    +0.161 HD
BRANCH  12  14
ATOM     14  C   UNL     1      -1.287  -2.072  -8.176  0.00  0.00    -0.021 A 
ATOM     15  C   UNL     1      -1.570  -3.415  -8.342  0.00  0.00    +0.006 A 
ATOM     16  C   UNL     1      -0.554  -4.303  -8.646  0.00  0.00    +0.000 A 
ATOM     17  C   UNL     1       0.744  -3.848  -8.783  0.00  0.00    +0.000 A 
ATOM     18  C   UNL     1       1.026  -2.505  -8.617  0.00  0.00    +0.000 A 
ATOM     19  C   UNL     1       0.010  -1.617  -8.318  0.00  0.00    +0.006 A 
ENDBRANCH  12  14
ENDBRANCH   2   4
ENDBRANCH   1   2
BRANCH   1  20
ATOM     20  S   UNL     1      -1.000  -0.570  -2.730  0.00  0.00    -0.081 S 
BRANCH  20  25
ATOM     21  N   UNL     1      -1.054  -0.521   0.056  0.00  0.00    -0.288 N 
ATOM     22  C   UNL     1      -2.018  -0.776   1.139  0.00  0.00    +0.194 C 
ATOM     23  N   UNL     1      -3.252  -1.163   0.432  0.00  0.00    -0.245 N 
ATOM     24  N   UNL     1      -2.949  -1.113  -0.935  0.00  0.00    -0.163 NA
ATOM     25  C   UNL     1      -1.727  -0.750  -1.135  0.00  0.00    +0.175 C 
ATOM     26  H   UNL     1      -4.102  -1.403   0.832  0.00  0.00    +0.170 HD
BRANCH  21  28
ATOM     27  C   UNL     1       0.417   1.425   0.226  0.00  0.00    +0.024 C 
ATOM     28  C   UNL     1       0.342  -0.103   0.206  0.00  0.00    +0.105 C 
ENDBRANCH  21  28
BRANCH  22  29
ATOM     29  C   UNL     1      -1.531  -1.916   2.036  0.00  0.00    +0.151 C 
BRANCH  29  30
ATOM     30  N   UNL     1      -1.503  -3.163   1.268  0.00  0.00    -0.298 N 
ATOM     31  C   UNL     1      -0.300  -3.521   0.499  0.00  0.00    +0.108 C 
ATOM     32  C   UNL     1       0.404  -4.682   1.204  0.00  0.00    +0.019 C 
ATOM     33  C   UNL     1      -0.169  -6.015   0.756  0.00  0.00    +0.002 C 
ATOM     34  C   UNL     1      -1.605  -6.241   1.191  0.00  0.00    +0.009 C 
ATOM     35  C   UNL     1      -2.546  -5.262   0.486  0.00  0.00    +0.096 C 
ATOM     36  C   UNL     1      -2.565  -3.969   1.275  0.00  0.00    +0.216 C 
ATOM     37  O   UNL     1      -3.551  -3.664   1.912  0.00  0.00    -0.276 OA
ENDBRANCH  29  30
ENDBRANCH  22  29
ENDBRANCH  20  25
ENDBRANCH   1  20
TORSDOF 8
