REMARK  Name = ZINC39437564
REMARK  15 active torsions:
REMARK  status: ('A' for Active; 'I' for Inactive)
REMARK    1  A    between atoms: C_1  and  C_2
REMARK    2  A    between atoms: C_2  and  C_4
REMARK    3  A    between atoms: C_2  and  N_7
REMARK    4  A    between atoms: C_4  and  O_5
REMARK    5  A    between atoms: O_5  and  C_6
REMARK    6  A    between atoms: N_7  and  S_8
REMARK    7  A    between atoms: S_8  and  C_11
REMARK    8  A    between atoms: C_13  and  C_34
REMARK    9  A    between atoms: C_22  and  C_24
REMARK   10  A    between atoms: C_27  and  C_30
REMARK   11  A    between atoms: C_30  and  C_31
REMARK   12  A    between atoms: C_31  and  C_32
REMARK   13  A    between atoms: C_31  and  C_33
REMARK   14  A    between atoms: C_34  and  O_36
REMARK   15  A    between atoms: O_36  and  C_37
REMARK                            x       y       z     vdW  Elec       q    Type
REMARK                         _______ _______ _______ _____ _____    ______ ____
ROOT
ATOM      1  C   UNL     1       2.411  -2.273  -0.029  0.00  0.00    +0.242 C 
ATOM      2  C   UNL     1       3.834  -2.790   0.060  0.00  0.00    +0.072 C 
ATOM      3  C   UNL     1       4.154  -3.885  -0.590  0.00  0.00    -0.041 C 
ATOM      4  C   UNL     1       5.512  -4.579  -0.494  0.00  0.00    +0.051 C 
ATOM      5  C   UNL     1       5.542  -5.671  -1.570  0.00  0.00    +0.112 C 
ATOM      6  N   UNL     1       4.390  -6.565  -1.422  0.00  0.00    -0.298 N 
ATOM      7  C   UNL     1       3.069  -6.034  -1.056  0.00  0.00    +0.126 C 
ATOM      8  C   UNL     1       3.051  -4.547  -1.426  0.00  0.00    +0.092 C 
ATOM      9  S   UNL     1       1.548  -3.743  -0.737  0.00  0.00    -0.119 S 
ATOM     10  C   UNL     1       4.544  -7.889  -1.624  0.00  0.00    +0.246 C 
ATOM     11  O   UNL     1       3.596  -8.635  -1.503  0.00  0.00    -0.273 OA
ENDROOT
BRANCH  10  12
ATOM     12  C   UNL     1       5.895  -8.442  -1.999  0.00  0.00    +0.238 C 
ATOM     13  C   UNL     1       6.140  -8.295  -3.491  0.00  0.00    +0.035 C 
ATOM     14  C   UNL     1       6.275  -9.552  -3.920  0.00  0.00    +0.062 C 
ATOM     15  N   UNL     1       6.146 -10.425  -2.897  0.00  0.00    -0.158 NA
ATOM     16  N   UNL     1       5.935  -9.900  -1.796  0.00  0.00    -0.170 NA
BRANCH  14  17
ATOM     17  C   UNL     1       6.537  -9.943  -5.351  0.00  0.00    +0.060 C 
BRANCH  17  18
ATOM     18  C   UNL     1       8.041 -10.127  -5.563  0.00  0.00    -0.011 C 
ATOM     19  C   UNL     1       8.534 -11.307  -4.723  0.00  0.00    +0.007 C 
ATOM     20  C   UNL     1       8.318 -10.402  -7.042  0.00  0.00    +0.007 C 
ENDBRANCH  17  18
ENDBRANCH  14  17
ENDBRANCH  10  12
BRANCH   1  21
ATOM     21  S   UNL     1       2.300  -0.849  -1.146  0.00  0.00    +0.046 S 
ATOM     22  O   UNL     1       2.629  -1.240  -2.472  0.00  0.00    -0.157 OA
ATOM     23  O   UNL     1       2.914   0.287  -0.553  0.00  0.00    -0.157 OA
BRANCH  21  24
ATOM     24  N   UNL     1       0.688  -0.476  -1.203  0.00  0.00    -0.188 NA
ATOM     25  H   UNL     1       0.197  -0.571  -2.035  0.00  0.00    +0.148 HD
BRANCH  24  27
ATOM     26  C   UNL     1      -0.019   1.526   0.010  0.00  0.00    +0.028 C 
ATOM     27  C   UNL     1       0.002  -0.004   0.002  0.00  0.00    +0.099 C 
BRANCH  27  28
ATOM     28  C   UNL     1      -1.433  -0.534   0.013  0.00  0.00    +0.179 C 
BRANCH  28  29
ATOM     29  O   UNL     1      -2.158   0.032  -1.081  0.00  0.00    -0.381 OA
ATOM     30  C   UNL     1      -3.518  -0.400  -1.163  0.00  0.00    +0.194 C 
ENDBRANCH  28  29
ENDBRANCH  27  28
ENDBRANCH  24  27
ENDBRANCH  21  24
ENDBRANCH   1  21
BRANCH   2  31
ATOM     31  C   UNL     1       4.839  -2.077   0.860  0.00  0.00    +0.338 C 
ATOM     32  O   UNL     1       5.977  -2.499   0.924  0.00  0.00    -0.245 OA
BRANCH  31  33
ATOM     33  O   UNL     1       4.499  -0.954   1.524  0.00  0.00    -0.465 OA
ATOM     34  C   UNL     1       5.526  -0.312   2.283  0.00  0.00    +0.280 C 
ENDBRANCH  31  33
ENDBRANCH   2  31
TORSDOF 10
