REMARK  Name = ZINC49486329
REMARK  8 active torsions:
REMARK  status: ('A' for Active; 'I' for Inactive)
REMARK    1  A    between atoms: C_4  and  N_11
REMARK    2  A    between atoms: C_5  and  C_7
REMARK    3  A    between atoms: C_12  and  C_14
REMARK    4  A    between atoms: N_16  and  C_17
REMARK    5  A    between atoms: C_17  and  C_18
REMARK    6  A    between atoms: C_18  and  C_20
REMARK    7  A    between atoms: C_18  and  N_25
REMARK    8  A    between atoms: N_28  and  C_31
REMARK                            x       y       z     vdW  Elec       q    Type
REMARK                         _______ _______ _______ _____ _____    ______ ____
ROOT
ATOM      1  C   UNL     1       9.648   0.269  -0.455  0.00  0.00    +0.017 C 
ENDROOT
BRANCH   1   2
ATOM      2  N   UNL     1       9.510   1.208  -1.576  0.00  0.00    +0.389 N 
ATOM      3  C   UNL     1       9.411   0.454  -2.833  0.00  0.00    -0.059 C 
ATOM      4  C   UNL     1       9.151   1.425  -3.990  0.00  0.00    +0.086 C 
ATOM      5  N   UNL     1      10.203   2.454  -3.980  0.00  0.00    -0.333 N 
ATOM      6  C   UNL     1      10.482   3.147  -2.713  0.00  0.00    +0.086 C 
ATOM      7  C   UNL     1      10.678   2.096  -1.616  0.00  0.00    -0.059 C 
ATOM      8  H   UNL     1       8.674   1.759  -1.450  0.00  0.00    -0.081 HD
BRANCH   5   9
ATOM      9  C   UNL     1      10.916   2.764  -5.142  0.00  0.00    +0.030 A 
ATOM     10  C   UNL     1      10.560   2.183  -6.352  0.00  0.00    +0.026 A 
ATOM     11  C   UNL     1      11.266   2.491  -7.499  0.00  0.00    +0.040 A 
ATOM     12  C   UNL     1      12.327   3.378  -7.442  0.00  0.00    +0.124 A 
ATOM     13  C   UNL     1      12.684   3.959  -6.237  0.00  0.00    +0.040 A 
ATOM     14  C   UNL     1      11.977   3.657  -5.088  0.00  0.00    +0.026 A 
ATOM     15  F   UNL     1      13.017   3.678  -8.565  0.00  0.00    -0.205 F 
ENDBRANCH   5   9
ENDBRANCH   1   2
BRANCH   1  16
ATOM     16  C   UNL     1      10.956  -0.469  -0.576  0.00  0.00    +0.093 A 
ATOM     17  C   UNL     1      11.739  -0.857   0.447  0.00  0.00    +0.043 A 
ATOM     18  C   UNL     1      12.857  -1.512  -0.118  0.00  0.00    +0.041 A 
ATOM     19  C   UNL     1      12.692  -1.484  -1.453  0.00  0.00    +0.195 A 
ATOM     20  O   UNL     1      11.536  -0.857  -1.724  0.00  0.00    -0.469 OA
ENDBRANCH   1  16
BRANCH   1  21
ATOM     21  C   UNL     1       8.492  -0.733  -0.482  0.00  0.00    +0.097 C 
BRANCH  21  24
ATOM     22  C   UNL     1       6.063  -0.698  -0.295  0.00  0.00    +0.299 C 
ATOM     23  O   UNL     1       6.076  -1.912  -0.285  0.00  0.00    -0.265 OA
ATOM     24  N   UNL     1       7.220  -0.013  -0.391  0.00  0.00    -0.309 N 
ATOM     25  H   UNL     1       7.210   0.957  -0.399  0.00  0.00    +0.149 HD
BRANCH  22  27
ATOM     26  N   UNL     1       3.609  -0.650  -0.107  0.00  0.00    -0.277 N 
ATOM     27  C   UNL     1       4.766   0.035  -0.202  0.00  0.00    +0.303 C 
ATOM     28  O   UNL     1       4.753   1.249  -0.212  0.00  0.00    -0.265 OA
ATOM     29  H   UNL     1       3.624  -1.615  -0.013  0.00  0.00    +0.155 HD
BRANCH  26  33
ATOM     30  C   UNL     1      -0.027   1.376  -0.221  0.00  0.00    +0.001 A 
ATOM     31  C   UNL     1       1.093   1.937  -0.806  0.00  0.00    +0.002 A 
ATOM     32  C   UNL     1       2.301   1.268  -0.770  0.00  0.00    +0.024 A 
ATOM     33  C   UNL     1       2.389   0.030  -0.145  0.00  0.00    +0.045 A 
ATOM     34  C   UNL     1       1.262  -0.530   0.442  0.00  0.00    +0.076 A 
ATOM     35  C   UNL     1       0.057   0.144   0.402  0.00  0.00    +0.014 A 
BRANCH  34  36
ATOM     36  C   UNL     1       1.353  -1.873   1.121  0.00  0.00    +0.419 C 
ATOM     37  F   UNL     1       0.098  -2.223   1.631  0.00  0.00    -0.166 F 
ATOM     38  F   UNL     1       1.765  -2.837   0.194  0.00  0.00    -0.166 F 
ATOM     39  F   UNL     1       2.279  -1.804   2.167  0.00  0.00    -0.166 F 
ENDBRANCH  34  36
ENDBRANCH  26  33
ENDBRANCH  22  27
ENDBRANCH  21  24
ENDBRANCH   1  21
TORSDOF 8
