REMARK  Name = ZINC40056977
REMARK  8 active torsions:
REMARK  status: ('A' for Active; 'I' for Inactive)
REMARK    1  A    between atoms: C_1  and  C_2
REMARK    2  A    between atoms: C_2  and  C_4
REMARK    3  A    between atoms: C_2  and  N_13
REMARK    4  A    between atoms: N_13  and  C_14
REMARK    5  A    between atoms: C_15  and  C_17
REMARK    6  A    between atoms: C_18  and  C_19
REMARK    7  A    between atoms: C_23  and  O_25
REMARK    8  A    between atoms: O_25  and  C_26
REMARK                            x       y       z     vdW  Elec       q    Type
REMARK                         _______ _______ _______ _____ _____    ______ ____
ROOT
ATOM      1  N   UNL     1       0.711  -0.489   1.189  0.00  0.00    -0.291 N 
ATOM      2  C   UNL     1       0.218  -0.149   2.526  0.00  0.00    +0.133 C 
ATOM      3  C   UNL     1       1.816  -1.249   1.051  0.00  0.00    +0.240 C 
ATOM      4  O   UNL     1       2.225  -1.531  -0.060  0.00  0.00    -0.271 OA
ENDROOT
BRANCH   1   6
ATOM      5  C   UNL     1      -0.019   1.526   0.010  0.00  0.00    +0.036 C 
ATOM      6  C   UNL     1       0.002  -0.004   0.002  0.00  0.00    +0.139 C 
BRANCH   6   7
ATOM      7  C   UNL     1      -1.412  -0.526   0.013  0.00  0.00    +0.126 A 
ATOM      8  C   UNL     1      -2.074  -0.969  -1.064  0.00  0.00    +0.055 A 
ATOM      9  C   UNL     1      -3.402  -1.375  -0.590  0.00  0.00    +0.020 A 
ATOM     10  C   UNL     1      -4.536  -1.907  -1.202  0.00  0.00    +0.011 A 
ATOM     11  C   UNL     1      -5.646  -2.180  -0.453  0.00  0.00    +0.001 A 
ATOM     12  C   UNL     1      -5.651  -1.931   0.912  0.00  0.00    +0.004 A 
ATOM     13  C   UNL     1      -4.540  -1.404   1.535  0.00  0.00    +0.047 A 
ATOM     14  C   UNL     1      -3.401  -1.120   0.792  0.00  0.00    +0.135 A 
ATOM     15  O   UNL     1      -2.189  -0.619   1.105  0.00  0.00    -0.458 OA
ENDBRANCH   6   7
ENDBRANCH   1   6
BRANCH   3  16
ATOM     16  C   UNL     1       2.524  -1.734   2.237  0.00  0.00    +0.068 C 
ATOM     17  C   UNL     1       3.629  -2.493   2.099  0.00  0.00    +0.013 C 
BRANCH  17  18
ATOM     18  C   UNL     1       4.341  -2.981   3.291  0.00  0.00    -0.021 A 
ATOM     19  C   UNL     1       3.870  -2.663   4.569  0.00  0.00    +0.008 A 
ATOM     20  C   UNL     1       4.540  -3.122   5.684  0.00  0.00    +0.004 A 
ATOM     21  C   UNL     1       5.678  -3.897   5.542  0.00  0.00    +0.045 A 
ATOM     22  C   UNL     1       6.154  -4.218   4.278  0.00  0.00    +0.121 A 
ATOM     23  C   UNL     1       5.487  -3.768   3.151  0.00  0.00    +0.053 A 
BRANCH  22  24
ATOM     24  O   UNL     1       7.272  -4.979   4.147  0.00  0.00    -0.495 OA
ATOM     25  C   UNL     1       7.906  -5.413   5.351  0.00  0.00    +0.277 C 
ENDBRANCH  22  24
ENDBRANCH  17  18
ENDBRANCH   3  16
TORSDOF 5
