REMARK  Name = ZINC08610381
REMARK  8 active torsions:
REMARK  status: ('A' for Active; 'I' for Inactive)
REMARK    1  A    between atoms: C_1  and  C_2
REMARK    2  A    between atoms: C_5  and  N_9
REMARK    3  A    between atoms: C_6  and  C_8
REMARK    4  A    between atoms: C_10  and  C_31
REMARK    5  A    between atoms: C_12  and  C_30
REMARK    6  A    between atoms: N_14  and  C_19
REMARK    7  A    between atoms: C_19  and  C_20
REMARK    8  A    between atoms: N_22  and  C_23
REMARK                            x       y       z     vdW  Elec       q    Type
REMARK                         _______ _______ _______ _____ _____    ______ ____
ROOT
ATOM      1  N   UNL     1       0.270  -4.304  -0.033  0.00  0.00    -0.235 N 
ATOM      2  C   UNL     1       0.160  -5.057  -1.148  0.00  0.00    +0.052 A 
ATOM      3  C   UNL     1       0.175  -6.368  -0.745  0.00  0.00    +0.051 A 
ATOM      4  C   UNL     1       0.099  -7.685  -1.373  0.00  0.00    +0.070 A 
ATOM      5  N   UNL     1       0.148  -8.755  -0.638  0.00  0.00    -0.172 NA
ATOM      6  N   UNL     1       0.271  -8.726   0.749  0.00  0.00    -0.218 N 
ATOM      7  C   UNL     1       0.350  -7.577   1.451  0.00  0.00    +0.296 A 
ATOM      8  O   UNL     1       0.457  -7.596   2.664  0.00  0.00    -0.264 OA
ATOM      9  C   UNL     1       0.306  -6.303   0.723  0.00  0.00    +0.161 A 
ATOM     10  N   UNL     1       0.358  -5.029   1.026  0.00  0.00    -0.161 NA
ATOM     11  C   UNL     1      -0.035  -7.801  -2.870  0.00  0.00    +0.068 C 
ATOM     12  C   UNL     1       0.043  -4.553  -2.564  0.00  0.00    +0.066 C 
ENDROOT
BRANCH   1  17
ATOM     13  C   UNL     1       0.358   1.370  -0.020  0.00  0.00    +0.044 C 
ATOM     14  C   UNL     1       0.335  -0.137  -0.024  0.00  0.00    -0.050 A 
ATOM     15  C   UNL     1       1.164  -0.838  -0.880  0.00  0.00    +0.005 A 
ATOM     16  C   UNL     1       1.145  -2.219  -0.885  0.00  0.00    +0.028 A 
ATOM     17  C   UNL     1       0.292  -2.904  -0.030  0.00  0.00    +0.069 A 
ATOM     18  C   UNL     1      -0.540  -2.197   0.829  0.00  0.00    -0.025 A 
ATOM     19  C   UNL     1      -0.512  -0.816   0.833  0.00  0.00    +0.008 A 
ATOM     20  C   UNL     1      -1.468  -2.936   1.758  0.00  0.00    +0.046 C 
ENDBRANCH   1  17
BRANCH   6  21
ATOM     21  C   UNL     1       0.315  -9.997   1.477  0.00  0.00    +0.243 C 
BRANCH  21  22
ATOM     22  C   UNL     1      -1.085 -10.411   1.851  0.00  0.00    +0.239 C 
ATOM     23  O   UNL     1      -2.027  -9.712   1.541  0.00  0.00    -0.273 OA
ATOM     24  N   UNL     1      -1.291 -11.556   2.530  0.00  0.00    -0.282 N 
ATOM     25  H   UNL     1      -0.534 -12.073   2.850  0.00  0.00    +0.155 HD
BRANCH  24  26
ATOM     26  C   UNL     1      -2.596 -12.001   2.775  0.00  0.00    +0.069 A 
ATOM     27  C   UNL     1      -3.596 -11.770   1.840  0.00  0.00    +0.026 A 
ATOM     28  C   UNL     1      -4.883 -12.211   2.083  0.00  0.00    +0.002 A 
ATOM     29  C   UNL     1      -5.176 -12.881   3.257  0.00  0.00    +0.003 A 
ATOM     30  C   UNL     1      -4.184 -13.113   4.191  0.00  0.00    +0.040 A 
ATOM     31  C   UNL     1      -2.892 -12.680   3.951  0.00  0.00    +0.144 A 
ATOM     32  F   UNL     1      -1.921 -12.912   4.862  0.00  0.00    -0.204 F 
ENDBRANCH  24  26
ENDBRANCH  21  22
ENDBRANCH   6  21
TORSDOF 4
