REMARK  Name = ZINC15860447
REMARK  7 active torsions:
REMARK  status: ('A' for Active; 'I' for Inactive)
REMARK    1  A    between atoms: C_1  and  C_2
REMARK    2  A    between atoms: C_5  and  C_7
REMARK    3  A    between atoms: C_7  and  C_9
REMARK    4  A    between atoms: C_7  and  N_53
REMARK    5  A    between atoms: C_9  and  N_10
REMARK    6  A    between atoms: C_11  and  C_13
REMARK    7  A    between atoms: C_15  and  C_18
REMARK                            x       y       z     vdW  Elec       q    Type
REMARK                         _______ _______ _______ _____ _____    ______ ____
ROOT
ATOM      1  N   UNL     1      -1.910   0.728  -1.814  0.00  0.00    -0.311 N 
ATOM      2  C   UNL     1      -2.218   0.410  -3.087  0.00  0.00    +0.266 C 
ATOM      3  O   UNL     1      -2.327   1.286  -3.922  0.00  0.00    -0.268 OA
ATOM      4  H   UNL     1      -1.823   0.029  -1.147  0.00  0.00    +0.149 HD
ENDROOT
BRANCH   2   5
ATOM      5  C   UNL     1      -2.424  -1.008  -3.468  0.00  0.00    +0.168 A 
ATOM      6  C   UNL     1      -2.756  -1.504  -4.756  0.00  0.00    +0.086 A 
ATOM      7  C   UNL     1      -2.827  -2.857  -4.576  0.00  0.00    +0.168 A 
ATOM      8  O   UNL     1      -2.560  -3.082  -3.278  0.00  0.00    -0.354 OA
ATOM      9  N   UNL     1      -2.340  -2.054  -2.682  0.00  0.00    -0.073 NA
BRANCH   7  10
ATOM     10  C   UNL     1      -3.140  -3.872  -5.605  0.00  0.00    +0.020 A 
ATOM     11  C   UNL     1      -3.403  -3.480  -6.918  0.00  0.00    +0.013 A 
ATOM     12  C   UNL     1      -3.690  -4.432  -7.875  0.00  0.00    +0.021 A 
ATOM     13  C   UNL     1      -3.729  -5.773  -7.531  0.00  0.00    +0.041 A 
ATOM     14  C   UNL     1      -3.475  -6.167  -6.228  0.00  0.00    +0.021 A 
ATOM     15  C   UNL     1      -3.182  -5.225  -5.264  0.00  0.00    +0.013 A 
ATOM     16 CL   UNL     1      -4.099  -6.964  -8.738  0.00  0.00    -0.084 Cl
ENDBRANCH   7  10
ENDBRANCH   2   5
BRANCH   1  17
ATOM     17  C   UNL     1      -1.707   2.129  -1.437  0.00  0.00    +0.097 C 
BRANCH  17  18
ATOM     18  C   UNL     1      -1.247   2.204   0.020  0.00  0.00    +0.016 C 
BRANCH  18  24
ATOM     19  C   UNL     1      -3.550   2.063   0.755  0.00  0.00    -0.078 C 
ATOM     20  C   UNL     1      -4.544   1.204   1.540  0.00  0.00    -0.019 C 
ATOM     21  C   UNL     1      -4.118   1.153   3.010  0.00  0.00    -0.004 C 
ATOM     22  C   UNL     1      -2.695   0.594   3.101  0.00  0.00    -0.019 C 
ATOM     23  C   UNL     1      -1.754   1.470   2.271  0.00  0.00    -0.078 C 
ATOM     24  N   UNL     1      -2.205   1.458   0.863  0.00  0.00    +0.387 N 
ATOM     25  H   UNL     1      -2.250   0.486   0.536  0.00  0.00    -0.081 HD
ENDBRANCH  18  24
BRANCH  18  30
ATOM     26  C   UNL     1       2.373  -1.283   0.436  0.00  0.00    +0.086 C 
ATOM     27  C   UNL     1       1.689   0.056   0.329  0.00  0.00    +0.102 A 
ATOM     28  C   UNL     1       2.301   1.253   0.320  0.00  0.00    +0.044 A 
ATOM     29  C   UNL     1       1.286   2.231   0.205  0.00  0.00    +0.043 A 
ATOM     30  C   UNL     1       0.115   1.572   0.151  0.00  0.00    +0.093 A 
ATOM     31  O   UNL     1       0.365   0.255   0.227  0.00  0.00    -0.466 OA
ENDBRANCH  18  30
ENDBRANCH  17  18
ENDBRANCH   1  17
TORSDOF 6
