REMARK  Name = ZINC48889272
REMARK  7 active torsions:
REMARK  status: ('A' for Active; 'I' for Inactive)
REMARK    1  A    between atoms: C_1  and  C_2
REMARK    2  A    between atoms: C_7  and  N_12
REMARK    3  A    between atoms: C_9  and  C_11
REMARK    4  A    between atoms: C_13  and  C_15
REMARK    5  A    between atoms: C_17  and  C_21
REMARK    6  A    between atoms: C_21  and  C_22
REMARK    7  A    between atoms: C_21  and  C_23
REMARK                            x       y       z     vdW  Elec       q    Type
REMARK                         _______ _______ _______ _____ _____    ______ ____
ROOT
ATOM      1  N   UNL     1       0.735  -0.503   3.687  0.00  0.00    -0.307 N 
ATOM      2  C   UNL     1       0.634   0.166   4.853  0.00  0.00    +0.264 C 
ATOM      3  O   UNL     1      -0.045   1.173   4.919  0.00  0.00    -0.268 OA
ATOM      4  H   UNL     1       1.276  -1.306   3.634  0.00  0.00    +0.149 HD
ENDROOT
BRANCH   1  10
ATOM      5  C   UNL     1      -0.019   1.526   0.010  0.00  0.00    +0.008 C 
ATOM      6  C   UNL     1       0.002  -0.004   0.002  0.00  0.00    -0.009 C 
ATOM      7  C   UNL     1      -1.433  -0.534   0.013  0.00  0.00    +0.003 C 
ATOM      8  C   UNL     1      -2.149  -0.040   1.272  0.00  0.00    +0.002 C 
ATOM      9  C   UNL     1      -1.409  -0.547   2.511  0.00  0.00    +0.022 C 
ATOM     10  C   UNL     1       0.026  -0.018   2.500  0.00  0.00    +0.076 C 
ATOM     11  C   UNL     1       0.742  -0.511   1.242  0.00  0.00    +0.009 C 
ATOM     12  C   UNL     1       2.178   0.019   1.231  0.00  0.00    +0.009 C 
ENDBRANCH   1  10
BRANCH   2  13
ATOM     13  C   UNL     1       1.348  -0.323   6.050  0.00  0.00    +0.147 A 
ATOM     14  C   UNL     1       1.335   0.264   7.337  0.00  0.00    +0.057 A 
ATOM     15  C   UNL     1       2.126  -0.524   8.102  0.00  0.00    +0.039 A 
ATOM     16  N   UNL     1       2.580  -1.521   7.313  0.00  0.00    -0.281 N 
ATOM     17  H   UNL     1       3.171  -2.234   7.604  0.00  0.00    +0.189 HD
ATOM     18  N   UNL     1       2.114  -1.393   6.123  0.00  0.00    -0.169 NA
BRANCH  15  19
ATOM     19  C   UNL     1       2.440  -0.326   9.563  0.00  0.00    +0.031 C 
ATOM     20  C   UNL     1       2.565  -1.689  10.247  0.00  0.00    +0.014 C 
ATOM     21  C   UNL     1       3.758   0.438   9.702  0.00  0.00    +0.014 C 
ENDBRANCH  15  19
ENDBRANCH   2  13
TORSDOF 3
