REMARK  Name = ZINC09505526
REMARK  11 active torsions:
REMARK  status: ('A' for Active; 'I' for Inactive)
REMARK    1  A    between atoms: C_1  and  C_2
REMARK    2  A    between atoms: C_2  and  C_3
REMARK    3  A    between atoms: N_12  and  C_13
REMARK    4  A    between atoms: C_13  and  C_14
REMARK    5  A    between atoms: C_14  and  C_15
REMARK    6  A    between atoms: C_15  and  N_63
REMARK    7  A    between atoms: C_16  and  N_63
REMARK    8  A    between atoms: C_17  and  N_63
REMARK    9  A    between atoms: C_18  and  C_20
REMARK   10  A    between atoms: N_25  and  S_26
REMARK   11  A    between atoms: S_26  and  C_29
REMARK                            x       y       z     vdW  Elec       q    Type
REMARK                         _______ _______ _______ _____ _____    ______ ____
ROOT
ATOM      1  C   UNL     1      -1.284   3.181   6.099  0.00  0.00    -0.021 A 
ATOM      2  C   UNL     1      -1.289   3.333   7.461  0.00  0.00    +0.006 A 
ATOM      3  C   UNL     1      -0.434   2.604   8.275  0.00  0.00    +0.001 A 
ATOM      4  C   UNL     1       0.445   1.704   7.700  0.00  0.00    +0.017 A 
ATOM      5  C   UNL     1       0.457   1.545   6.338  0.00  0.00    +0.041 A 
ATOM      6  C   UNL     1      -0.399   2.270   5.477  0.00  0.00    +0.083 A 
ATOM      7  N   UNL     1      -0.264   2.007   4.160  0.00  0.00    -0.224 NA
ATOM      8  C   UNL     1       0.597   1.129   3.700  0.00  0.00    +0.168 A 
ATOM      9  S   UNL     1       1.379   0.543   5.197  0.00  0.00    -0.052 S 
ATOM     10  N   UNL     1       0.841   0.756   2.389  0.00  0.00    -0.249 N 
ATOM     11  C   UNL     1       0.139   1.319   1.386  0.00  0.00    +0.240 C 
ATOM     12  O   UNL     1      -0.785   2.063   1.636  0.00  0.00    -0.273 OA
ENDROOT
BRANCH  11  13
ATOM     13  C   UNL     1       0.502   1.024  -0.047  0.00  0.00    +0.166 C 
ATOM     14  C   UNL     1       1.511   2.075  -0.575  0.00  0.00    +0.031 C 
ATOM     15  C   UNL     1       1.265   2.002  -2.105  0.00  0.00    +0.019 C 
ATOM     16  C   UNL     1      -0.254   1.747  -2.199  0.00  0.00    +0.110 C 
ATOM     17  N   UNL     1      -0.679   1.165  -0.917  0.00  0.00    -0.164 NA
BRANCH  17  18
ATOM     18  S   UNL     1      -2.229   0.739  -0.518  0.00  0.00    +0.068 S 
ATOM     19  O   UNL     1      -2.835   0.251  -1.707  0.00  0.00    -0.152 OA
ATOM     20  O   UNL     1      -2.143  -0.040   0.668  0.00  0.00    -0.152 OA
BRANCH  18  21
ATOM     21  C   UNL     1      -3.083   2.219  -0.089  0.00  0.00    +0.143 A 
ATOM     22  C   UNL     1      -3.688   3.121  -0.899  0.00  0.00    +0.036 A 
ATOM     23  C   UNL     1      -4.307   4.220  -0.335  0.00  0.00    +0.010 A 
ATOM     24  C   UNL     1      -4.282   4.369   1.012  0.00  0.00    +0.047 A 
ATOM     25  S   UNL     1      -3.369   2.924   1.526  0.00  0.00    -0.077 S 
ENDBRANCH  18  21
ENDBRANCH  17  18
ENDBRANCH  11  13
BRANCH   1  27
ATOM     26  C   UNL     1      -3.495   3.179   4.977  0.00  0.00    +0.009 C 
ATOM     27  C   UNL     1      -2.231   3.995   5.255  0.00  0.00    +0.034 C 
ENDBRANCH   1  27
BRANCH  10  28
ATOM     28  C   UNL     1       1.863  -0.251   2.092  0.00  0.00    +0.114 C 
BRANCH  28  29
ATOM     29  C   UNL     1       3.234   0.424   2.005  0.00  0.00    +0.001 C 
BRANCH  29  30
ATOM     30  C   UNL     1       4.277  -0.598   1.550  0.00  0.00    -0.078 C 
BRANCH  30  33
ATOM     31  C   UNL     1       6.657  -0.944   1.265  0.00  0.00    -0.097 C 
ATOM     32  C   UNL     1       5.614   1.066   0.407  0.00  0.00    -0.097 C 
ATOM     33  N   UNL     1       5.598   0.063   1.492  0.00  0.00    +0.376 N 
ATOM     34  H   UNL     1       5.774   0.536   2.386  0.00  0.00    -0.083 HD
ENDBRANCH  30  33
ENDBRANCH  29  30
ENDBRANCH  28  29
ENDBRANCH  10  28
TORSDOF 8
