REMARK  Name = ZINC67487321
REMARK  6 active torsions:
REMARK  status: ('A' for Active; 'I' for Inactive)
REMARK    1  A    between atoms: C_1  and  C_2
REMARK    2  A    between atoms: C_5  and  N_9
REMARK    3  A    between atoms: N_12  and  C_13
REMARK    4  A    between atoms: C_13  and  C_15
REMARK    5  A    between atoms: C_13  and  C_16
REMARK    6  A    between atoms: C_23  and  C_25
REMARK                            x       y       z     vdW  Elec       q    Type
REMARK                         _______ _______ _______ _____ _____    ______ ____
ROOT
ATOM      1  N   UNL     1      -1.715  -3.646  -0.617  0.00  0.00    -0.268 N 
ATOM      2  C   UNL     1      -1.447  -4.431  -1.679  0.00  0.00    +0.304 C 
ATOM      3  O   UNL     1      -1.402  -3.949  -2.795  0.00  0.00    -0.252 OA
ATOM      4  N   UNL     1      -1.229  -5.749  -1.505  0.00  0.00    -0.288 N 
ATOM      5  H   UNL     1      -1.676  -4.013   0.280  0.00  0.00    +0.156 HD
ATOM      6  H   UNL     1      -1.265  -6.133  -0.615  0.00  0.00    +0.151 HD
ENDROOT
BRANCH   1  11
ATOM      7  C   UNL     1      -3.072   1.809  -1.391  0.00  0.00    +0.044 C 
ATOM      8  C   UNL     1      -2.712   0.361  -1.185  0.00  0.00    -0.049 A 
ATOM      9  C   UNL     1      -2.908  -0.551  -2.206  0.00  0.00    +0.005 A 
ATOM     10  C   UNL     1      -2.579  -1.879  -2.021  0.00  0.00    +0.025 A 
ATOM     11  C   UNL     1      -2.049  -2.300  -0.808  0.00  0.00    +0.053 A 
ATOM     12  C   UNL     1      -1.853  -1.381   0.216  0.00  0.00    +0.062 A 
ATOM     13  C   UNL     1      -2.180  -0.052   0.023  0.00  0.00    +0.025 A 
ATOM     14 CL   UNL     1      -1.192  -1.901   1.735  0.00  0.00    -0.082 Cl
ENDBRANCH   1  11
BRANCH   4  15
ATOM     15  C   UNL     1      -0.938  -6.603  -2.660  0.00  0.00    +0.157 C 
ATOM     16  C   UNL     1       0.559  -6.546  -2.971  0.00  0.00    +0.038 C 
BRANCH  15  17
ATOM     17  C   UNL     1      -1.333  -8.023  -2.347  0.00  0.00    +0.236 C 
ATOM     18  O   UNL     1      -1.538  -8.357  -1.199  0.00  0.00    -0.274 OA
ATOM     19  N   UNL     1      -1.458  -8.923  -3.342  0.00  0.00    -0.297 N 
ATOM     20  C   UNL     1      -1.076  -8.575  -4.718  0.00  0.00    +0.108 C 
ATOM     21  C   UNL     1      -2.259  -8.869  -5.647  0.00  0.00    +0.019 C 
ATOM     22  C   UNL     1      -2.695 -10.324  -5.465  0.00  0.00    +0.003 C 
ATOM     23  C   UNL     1      -3.149 -10.545  -4.020  0.00  0.00    +0.022 C 
ATOM     24  C   UNL     1      -1.972 -10.272  -3.072  0.00  0.00    +0.073 C 
ATOM     25  C   UNL     1      -2.449 -10.358  -1.621  0.00  0.00    +0.028 C 
ENDBRANCH  15  17
ENDBRANCH   4  15
TORSDOF 3
