REMARK  Name = ZINC60391024
REMARK  12 active torsions:
REMARK  status: ('A' for Active; 'I' for Inactive)
REMARK    1  A    between atoms: C_1  and  S_2
REMARK    2  A    between atoms: S_2  and  C_3
REMARK    3  A    between atoms: C_3  and  C_4
REMARK    4  A    between atoms: C_4  and  C_5
REMARK    5  A    between atoms: C_5  and  C_7
REMARK    6  A    between atoms: C_5  and  N_24
REMARK    7  A    between atoms: N_9  and  C_10
REMARK    8  A    between atoms: C_10  and  C_11
REMARK    9  A    between atoms: C_11  and  C_13
REMARK   10  A    between atoms: C_11  and  N_19
REMARK   11  A    between atoms: C_25  and  C_27
REMARK   12  A    between atoms: C_31  and  N_33
REMARK                            x       y       z     vdW  Elec       q    Type
REMARK                         _______ _______ _______ _____ _____    ______ ____
ROOT
ATOM      1  C   UNL     1      -3.430  -2.377  -0.009  0.00  0.00    +0.160 C 
ENDROOT
BRANCH   1   2
ATOM      2  C   UNL     1      -3.670  -3.850  -0.211  0.00  0.00    +0.233 C 
ATOM      3  O   UNL     1      -4.416  -4.451   0.534  0.00  0.00    -0.274 OA
ATOM      4  N   UNL     1      -3.057  -4.502  -1.218  0.00  0.00    -0.315 N 
ATOM      5  H   UNL     1      -2.460  -4.022  -1.814  0.00  0.00    +0.149 HD
BRANCH   4   6
ATOM      6  C   UNL     1      -3.290  -5.935  -1.414  0.00  0.00    +0.093 C 
BRANCH   6   7
ATOM      7  C   UNL     1      -2.589  -6.396  -2.693  0.00  0.00    -0.020 C 
BRANCH   7   8
ATOM      8  C   UNL     1      -3.229  -5.732  -3.885  0.00  0.00    -0.059 A 
ATOM      9  C   UNL     1      -4.417  -6.223  -4.394  0.00  0.00    +0.002 A 
ATOM     10  C   UNL     1      -5.005  -5.614  -5.487  0.00  0.00    +0.000 A 
ATOM     11  C   UNL     1      -4.405  -4.513  -6.071  0.00  0.00    +0.000 A 
ATOM     12  C   UNL     1      -3.218  -4.022  -5.561  0.00  0.00    +0.000 A 
ATOM     13  C   UNL     1      -2.632  -4.628  -4.465  0.00  0.00    +0.002 A 
ENDBRANCH   7   8
BRANCH   7  14
ATOM     14  N   UNL     1      -2.711  -7.854  -2.821  0.00  0.00    +0.385 N 
ATOM     15  C   UNL     1      -2.022  -8.321  -4.051  0.00  0.00    -0.078 C 
ATOM     16  C   UNL     1      -1.748  -9.817  -3.758  0.00  0.00    -0.020 C 
ATOM     17  C   UNL     1      -1.400  -9.817  -2.252  0.00  0.00    -0.020 C 
ATOM     18  C   UNL     1      -2.024  -8.524  -1.695  0.00  0.00    -0.078 C 
ATOM     19  H   UNL     1      -3.684  -8.121  -2.843  0.00  0.00    -0.081 HD
ENDBRANCH   7  14
ENDBRANCH   6   7
ENDBRANCH   4   6
ENDBRANCH   1   2
BRANCH   1  20
ATOM     20  N   UNL     1      -4.205  -1.908   1.142  0.00  0.00    -0.300 N 
ATOM     21  C   UNL     1      -4.565  -0.612   1.230  0.00  0.00    +0.245 C 
ATOM     22  O   UNL     1      -4.246   0.168   0.354  0.00  0.00    -0.270 OA
ATOM     23  H   UNL     1      -4.460  -2.531   1.841  0.00  0.00    +0.150 HD
BRANCH  21  24
ATOM     24  C   UNL     1      -5.348  -0.139   2.392  0.00  0.00    +0.039 A 
ATOM     25  C   UNL     1      -5.711  -1.032   3.402  0.00  0.00    +0.013 A 
ATOM     26  C   UNL     1      -6.441  -0.584   4.484  0.00  0.00    +0.003 A 
ATOM     27  C   UNL     1      -6.813   0.746   4.568  0.00  0.00    +0.033 A 
ATOM     28  C   UNL     1      -6.457   1.635   3.570  0.00  0.00    +0.127 A 
ATOM     29  C   UNL     1      -5.722   1.202   2.486  0.00  0.00    +0.045 A 
BRANCH  28  30
ATOM     30  N   UNL     1      -6.860   3.056   3.669  0.00  0.00    +0.056 N 
ATOM     31  O   UNL     1      -7.500   3.438   4.620  0.00  0.00    -0.126 OA
ATOM     32  O   UNL     1      -6.550   3.834   2.797  0.00  0.00    -0.126 OA
ENDBRANCH  28  30
ENDBRANCH  21  24
ENDBRANCH   1  20
BRANCH   1  33
ATOM     33  C   UNL     1      -1.941  -2.132   0.245  0.00  0.00    +0.042 C 
BRANCH  33  34
ATOM     34  C   UNL     1      -1.677  -0.628   0.326  0.00  0.00    +0.071 C 
BRANCH  34  36
ATOM     35  C   UNL     1       0.231   1.469   0.695  0.00  0.00    +0.084 C 
ATOM     36  S   UNL     1       0.088  -0.338   0.628  0.00  0.00    -0.164 S 
ENDBRANCH  34  36
ENDBRANCH  33  34
ENDBRANCH   1  33
TORSDOF 11
