REMARK  Name = ZINC53457964
REMARK  9 active torsions:
REMARK  status: ('A' for Active; 'I' for Inactive)
REMARK    1  A    between atoms: C_1  and  C_2
REMARK    2  A    between atoms: C_2  and  C_3
REMARK    3  A    between atoms: C_2  and  C_4
REMARK    4  A    between atoms: C_2  and  N_17
REMARK    5  A    between atoms: N_6  and  C_7
REMARK    6  A    between atoms: N_6  and  C_8
REMARK    7  A    between atoms: C_8  and  C_9
REMARK    8  A    between atoms: C_12  and  C_15
REMARK    9  A    between atoms: N_20  and  C_21
REMARK                            x       y       z     vdW  Elec       q    Type
REMARK                         _______ _______ _______ _____ _____    ______ ____
ROOT
ATOM      1  C   UNL     1      -1.456  -0.418   0.012  0.00  0.00    +0.239 C 
ATOM      2  O   UNL     1      -1.971  -0.789   1.046  0.00  0.00    -0.273 OA
ATOM      3  N   UNL     1      -2.172  -0.402  -1.130  0.00  0.00    -0.298 N 
ATOM      4  C   UNL     1      -1.517  -0.085  -2.401  0.00  0.00    +0.132 C 
ENDROOT
BRANCH   1   6
ATOM      5  C   UNL     1       0.479   0.177   1.444  0.00  0.00    +0.041 C 
ATOM      6  C   UNL     1      -0.015   0.024   0.004  0.00  0.00    +0.107 C 
ATOM      7  C   UNL     1       0.836  -1.023  -0.718  0.00  0.00    +0.041 C 
BRANCH   6   8
ATOM      8  N   UNL     1       0.097   1.308  -0.691  0.00  0.00    -0.286 N 
ATOM      9  C   UNL     1       1.309   1.868  -0.881  0.00  0.00    +0.300 C 
ATOM     10  O   UNL     1       2.308   1.306  -0.476  0.00  0.00    -0.253 OA
ATOM     11  N   UNL     1       1.412   3.050  -1.520  0.00  0.00    -0.302 N 
ATOM     12  C   UNL     1       2.729   3.658  -1.727  0.00  0.00    +0.129 C 
ATOM     13  H   UNL     1      -0.700   1.757  -1.013  0.00  0.00    +0.151 HD
ATOM     14  H   UNL     1       0.615   3.498  -1.843  0.00  0.00    +0.150 HD
ENDBRANCH   6   8
ENDBRANCH   1   6
BRANCH   3  15
ATOM     15  C   UNL     1      -3.606  -0.702  -1.099  0.00  0.00    +0.142 C 
BRANCH  15  16
ATOM     16  C   UNL     1      -4.381   0.573  -0.891  0.00  0.00    -0.030 A 
ATOM     17  C   UNL     1      -4.673   1.000   0.392  0.00  0.00    +0.006 A 
ATOM     18  C   UNL     1      -5.382   2.167   0.590  0.00  0.00    +0.019 A 
ATOM     19  C   UNL     1      -5.806   2.917  -0.508  0.00  0.00    +0.052 A 
ATOM     20  C   UNL     1      -5.509   2.480  -1.801  0.00  0.00    +0.019 A 
ATOM     21  C   UNL     1      -4.794   1.314  -1.984  0.00  0.00    +0.006 A 
BRANCH  19  22
ATOM     22  C   UNL     1      -6.544   4.128  -0.310  0.00  0.00    +0.099 C 
ATOM     23  N   UNL     1      -7.129   5.089  -0.153  0.00  0.00    -0.191 NA
ENDBRANCH  19  22
ENDBRANCH  15  16
ENDBRANCH   3  15
TORSDOF 5
