REMARK  Name = ZINC65299701
REMARK  4 active torsions:
REMARK  status: ('A' for Active; 'I' for Inactive)
REMARK    1  A    between atoms: C_1  and  C_2
REMARK    2  A    between atoms: C_11  and  N_14
REMARK    3  A    between atoms: C_15  and  C_17
REMARK    4  A    between atoms: N_24  and  C_26
REMARK                            x       y       z     vdW  Elec       q    Type
REMARK                         _______ _______ _______ _____ _____    ______ ____
ROOT
ATOM      1  C   UNL     1      -0.018   1.503   0.010  0.00  0.00    +0.069 C 
ATOM      2  C   UNL     1       0.002  -0.004   0.002  0.00  0.00    +0.076 A 
ATOM      3  C   UNL     1       0.008  -0.808  -1.126  0.00  0.00    +0.082 A 
ATOM      4  C   UNL     1       0.028  -2.150  -0.736  0.00  0.00    +0.173 A 
ATOM      5  N   UNL     1       0.036  -3.058  -1.719  0.00  0.00    -0.205 NA
ATOM      6  C   UNL     1       0.027  -2.719  -2.992  0.00  0.00    +0.164 A 
ATOM      7  S   UNL     1       0.002  -0.934  -2.897  0.00  0.00    -0.049 S 
ATOM      8  N   UNL     1       0.034  -3.532  -4.110  0.00  0.00    -0.309 N 
ATOM      9  C   UNL     1       0.050  -4.994  -3.972  0.00  0.00    +0.109 C 
ATOM     10  C   UNL     1       1.222  -5.554  -4.784  0.00  0.00    +0.041 C 
ATOM     11  C   UNL     1       1.118  -5.060  -6.229  0.00  0.00    +0.076 C 
ATOM     12  C   UNL     1       1.199  -3.532  -6.255  0.00  0.00    +0.041 C 
ATOM     13  C   UNL     1       0.021  -2.949  -5.459  0.00  0.00    +0.109 C 
ATOM     14  N   UNL     1       0.033  -2.111   0.651  0.00  0.00    -0.213 N 
ATOM     15  N   UNL     1       0.023  -0.775   1.059  0.00  0.00    -0.169 NA
ENDROOT
BRANCH  14  16
ATOM     16  C   UNL     1       0.052  -3.226   1.500  0.00  0.00    +0.068 A 
ATOM     17  C   UNL     1      -0.618  -4.387   1.139  0.00  0.00    +0.030 A 
ATOM     18  C   UNL     1      -0.598  -5.484   1.977  0.00  0.00    +0.040 A 
ATOM     19  C   UNL     1       0.090  -5.428   3.177  0.00  0.00    +0.124 A 
ATOM     20  C   UNL     1       0.759  -4.271   3.540  0.00  0.00    +0.040 A 
ATOM     21  C   UNL     1       0.746  -3.173   2.702  0.00  0.00    +0.030 A 
ATOM     22  F   UNL     1       0.109  -6.502   3.995  0.00  0.00    -0.205 F 
ENDBRANCH  14  16
BRANCH  11  23
ATOM     23  N   UNL     1       2.220  -5.620  -7.017  0.00  0.00    -0.308 N 
ATOM     24  C   UNL     1       2.090  -5.762  -8.350  0.00  0.00    +0.244 C 
ATOM     25  O   UNL     1       1.059  -5.427  -8.900  0.00  0.00    -0.270 OA
ATOM     26  H   UNL     1       3.042  -5.888  -6.578  0.00  0.00    +0.149 HD
BRANCH  24  27
ATOM     27  C   UNL     1       3.200  -6.327  -9.144  0.00  0.00    +0.037 A 
ATOM     28  C   UNL     1       4.383  -6.719  -8.515  0.00  0.00    +0.016 A 
ATOM     29  C   UNL     1       5.416  -7.245  -9.260  0.00  0.00    +0.039 A 
ATOM     30  C   UNL     1       5.282  -7.385 -10.633  0.00  0.00    +0.123 A 
ATOM     31  C   UNL     1       4.110  -6.998 -11.264  0.00  0.00    +0.039 A 
ATOM     32  C   UNL     1       3.068  -6.476 -10.527  0.00  0.00    +0.016 A 
ATOM     33  F   UNL     1       6.298  -7.901 -11.359  0.00  0.00    -0.205 F 
ENDBRANCH  24  27
ENDBRANCH  11  23
TORSDOF 3
