REMARK  Name = ZINC23221848
REMARK  11 active torsions:
REMARK  status: ('A' for Active; 'I' for Inactive)
REMARK    1  A    between atoms: C_1  and  C_2
REMARK    2  A    between atoms: C_6  and  N_9
REMARK    3  A    between atoms: C_7  and  C_8
REMARK    4  A    between atoms: C_13  and  S_15
REMARK    5  A    between atoms: S_15  and  C_16
REMARK    6  A    between atoms: C_16  and  C_18
REMARK    7  A    between atoms: C_16  and  C_19
REMARK    8  A    between atoms: C_19  and  C_21
REMARK    9  A    between atoms: C_24  and  N_27
REMARK   10  A    between atoms: N_27  and  S_28
REMARK   11  A    between atoms: S_28  and  C_31
REMARK                            x       y       z     vdW  Elec       q    Type
REMARK                         _______ _______ _______ _____ _____    ______ ____
ROOT
ATOM      1  S   UNL     1       4.887   8.111  -0.439  0.00  0.00    -0.086 S 
ENDROOT
BRANCH   1   6
ATOM      2  N   UNL     1       4.341   2.372   0.183  0.00  0.00    -0.292 N 
ATOM      3  C   UNL     1       4.228   3.752   0.051  0.00  0.00    +0.187 A 
ATOM      4  N   UNL     1       3.146   4.506   0.053  0.00  0.00    -0.125 NA
ATOM      5  N   UNL     1       3.260   5.869  -0.094  0.00  0.00    -0.133 NA
ATOM      6  C   UNL     1       4.453   6.415  -0.236  0.00  0.00    +0.161 A 
ATOM      7  S   UNL     1       5.510   4.978  -0.159  0.00  0.00    -0.024 S 
ATOM      8  H   UNL     1       5.335   1.905   0.244  0.00  0.00    +0.154 HD
BRANCH   2  14
ATOM      9  C   UNL     1       2.280  -2.088   0.288  0.00  0.00    +0.044 C 
ATOM     10  C   UNL     1       2.163  -0.586   0.291  0.00  0.00    -0.046 A 
ATOM     11  C   UNL     1       0.916   0.009   0.349  0.00  0.00    +0.004 A 
ATOM     12  C   UNL     1       0.804   1.388   0.352  0.00  0.00    +0.002 A 
ATOM     13  C   UNL     1       1.938   2.174   0.297  0.00  0.00    +0.023 A 
ATOM     14  C   UNL     1       3.192   1.580   0.239  0.00  0.00    +0.036 A 
ATOM     15  C   UNL     1       3.300   0.194   0.236  0.00  0.00    -0.026 A 
ATOM     16  C   UNL     1       4.659  -0.455   0.174  0.00  0.00    +0.046 C 
ENDBRANCH   2  14
ENDBRANCH   1   6
BRANCH   1  17
ATOM     17  C   UNL     1       3.294   8.978  -0.412  0.00  0.00    +0.121 C 
ATOM     18  C   UNL     1       2.464   8.559  -1.627  0.00  0.00    +0.028 C 
BRANCH  17  19
ATOM     19  C   UNL     1       3.531  10.466  -0.455  0.00  0.00    +0.176 C 
ATOM     20  O   UNL     1       4.553  10.903  -0.940  0.00  0.00    -0.291 OA
BRANCH  19  21
ATOM     21  C   UNL     1       2.526  11.385   0.091  0.00  0.00    +0.019 A 
ATOM     22  C   UNL     1       1.343  10.882   0.648  0.00  0.00    +0.013 A 
ATOM     23  C   UNL     1       0.413  11.741   1.160  0.00  0.00    +0.025 A 
ATOM     24  C   UNL     1       0.634  13.116   1.119  0.00  0.00    +0.048 A 
ATOM     25  C   UNL     1       1.807  13.620   0.562  0.00  0.00    +0.025 A 
ATOM     26  C   UNL     1       2.745  12.769   0.052  0.00  0.00    +0.013 A 
BRANCH  24  27
ATOM     27  N   UNL     1      -0.317  13.986   1.637  0.00  0.00    -0.221 N 
ATOM     28  H   UNL     1      -0.427  14.095   2.726  0.00  0.00    +0.173 HD
BRANCH  27  29
ATOM     29  S   UNL     1      -1.284  14.858   0.615  0.00  0.00    +0.040 S 
ATOM     30  O   UNL     1      -2.129  15.614   1.472  0.00  0.00    -0.155 OA
ATOM     31  O   UNL     1      -0.383  15.509  -0.271  0.00  0.00    -0.155 OA
ATOM     32  C   UNL     1      -2.254  13.616  -0.283  0.00  0.00    +0.218 C 
ENDBRANCH  27  29
ENDBRANCH  24  27
ENDBRANCH  19  21
ENDBRANCH  17  19
ENDBRANCH   1  17
TORSDOF 7
