REMARK  Name = ZINC13146002
REMARK  9 active torsions:
REMARK  status: ('A' for Active; 'I' for Inactive)
REMARK    1  A    between atoms: C_1  and  N_2
REMARK    2  A    between atoms: N_2  and  C_3
REMARK    3  A    between atoms: N_2  and  S_9
REMARK    4  A    between atoms: S_9  and  C_12
REMARK    5  A    between atoms: C_16  and  C_18
REMARK    6  A    between atoms: N_20  and  C_21
REMARK    7  A    between atoms: C_21  and  C_22
REMARK    8  A    between atoms: C_22  and  C_24
REMARK    9  A    between atoms: C_22  and  N_60
REMARK                            x       y       z     vdW  Elec       q    Type
REMARK                         _______ _______ _______ _____ _____    ______ ____
ROOT
ATOM      1  C   UNL     1       1.684   6.112  -3.101  0.00  0.00    +0.244 C 
ATOM      2  O   UNL     1       1.177   5.673  -4.115  0.00  0.00    -0.270 OA
ATOM      3  N   UNL     1       1.777   5.335  -2.003  0.00  0.00    -0.313 N 
ATOM      4  H   UNL     1       2.181   5.685  -1.194  0.00  0.00    +0.149 HD
ENDROOT
BRANCH   1   9
ATOM      5  C   UNL     1       2.590   9.595  -4.173  0.00  0.00    +0.109 A 
ATOM      6  C   UNL     1       3.167  10.092  -3.017  0.00  0.00    +0.029 A 
ATOM      7  C   UNL     1       3.262   9.297  -1.889  0.00  0.00    +0.003 A 
ATOM      8  C   UNL     1       2.783   8.004  -1.909  0.00  0.00    +0.013 A 
ATOM      9  C   UNL     1       2.200   7.497  -3.072  0.00  0.00    +0.039 A 
ATOM     10  C   UNL     1       2.111   8.302  -4.208  0.00  0.00    +0.041 A 
BRANCH   5  11
ATOM     11  S   UNL     1       2.473  10.615  -5.605  0.00  0.00    +0.074 S 
ATOM     12  O   UNL     1       1.505  10.015  -6.454  0.00  0.00    -0.150 OA
ATOM     13  O   UNL     1       2.355  11.954  -5.142  0.00  0.00    -0.150 OA
BRANCH  11  15
ATOM     14  C   UNL     1       5.020  11.418  -6.036  0.00  0.00    +0.157 C 
ATOM     15  N   UNL     1       3.924  10.515  -6.397  0.00  0.00    -0.206 N 
BRANCH  15  16
ATOM     16  C   UNL     1       4.104   9.570  -7.409  0.00  0.00    +0.051 A 
ATOM     17  C   UNL     1       3.356   8.399  -7.409  0.00  0.00    +0.025 A 
ATOM     18  C   UNL     1       3.532   7.468  -8.414  0.00  0.00    +0.002 A 
ATOM     19  C   UNL     1       4.459   7.696  -9.414  0.00  0.00    +0.000 A 
ATOM     20  C   UNL     1       5.209   8.858  -9.415  0.00  0.00    +0.002 A 
ATOM     21  C   UNL     1       5.034   9.795  -8.416  0.00  0.00    +0.025 A 
ENDBRANCH  15  16
ENDBRANCH  11  15
ENDBRANCH   5  11
ENDBRANCH   1   9
BRANCH   3  22
ATOM     22  C   UNL     1       1.266   3.962  -2.032  0.00  0.00    +0.094 C 
BRANCH  22  23
ATOM     23  C   UNL     1       1.375   3.348  -0.635  0.00  0.00    -0.013 C 
BRANCH  23  29
ATOM     24  C   UNL     1       3.701   2.907  -1.146  0.00  0.00    -0.049 C 
ATOM     25  C   UNL     1       5.133   3.095  -0.637  0.00  0.00    +0.141 C 
ATOM     26  O   UNL     1       5.265   2.470   0.643  0.00  0.00    -0.383 OA
ATOM     27  C   UNL     1       4.363   2.982   1.628  0.00  0.00    +0.141 C 
ATOM     28  C   UNL     1       2.924   2.793   1.143  0.00  0.00    -0.049 C 
ATOM     29  N   UNL     1       2.767   3.483  -0.155  0.00  0.00    +0.389 N 
ATOM     30  H   UNL     1       2.983   4.479  -0.032  0.00  0.00    -0.081 HD
ENDBRANCH  23  29
BRANCH  23  31
ATOM     31  C   UNL     1       0.460   4.083   0.310  0.00  0.00    -0.022 A 
ATOM     32  C   UNL     1      -0.772   3.732   0.751  0.00  0.00    +0.009 A 
ATOM     33  C   UNL     1      -1.436   4.571   1.626  0.00  0.00    +0.008 A 
ATOM     34  C   UNL     1      -0.835   5.722   2.016  0.00  0.00    +0.045 A 
ATOM     35  S   UNL     1       0.717   5.644   1.137  0.00  0.00    -0.103 S 
ENDBRANCH  23  31
ENDBRANCH  22  23
ENDBRANCH   3  22
TORSDOF 8
