REMARK  Name = ZINC46561175
REMARK  6 active torsions:
REMARK  status: ('A' for Active; 'I' for Inactive)
REMARK    1  A    between atoms: C_1  and  C_2
REMARK    2  A    between atoms: C_4  and  N_24
REMARK    3  A    between atoms: C_7  and  N_8
REMARK    4  A    between atoms: C_9  and  C_11
REMARK    5  A    between atoms: N_14  and  C_17
REMARK    6  A    between atoms: C_15  and  C_16
REMARK                            x       y       z     vdW  Elec       q    Type
REMARK                         _______ _______ _______ _____ _____    ______ ____
ROOT
ATOM      1  N   UNL     1       0.112   0.034   2.429  0.00  0.00    -0.281 N 
ATOM      2  C   UNL     1      -0.531  -0.503   3.485  0.00  0.00    +0.252 C 
ATOM      3  O   UNL     1      -0.990  -1.627   3.410  0.00  0.00    -0.270 OA
ATOM      4  H   UNL     1       0.537   0.902   2.510  0.00  0.00    +0.155 HD
ENDROOT
BRANCH   1  11
ATOM      5  C   UNL     1       0.057   1.540   0.017  0.00  0.00    +0.046 C 
ATOM      6  C   UNL     1       0.142   0.035   0.013  0.00  0.00    -0.027 A 
ATOM      7  C   UNL     1       0.201  -0.650  -1.184  0.00  0.00    +0.028 A 
ATOM      8  C   UNL     1       0.279  -2.036  -1.188  0.00  0.00    +0.030 A 
ATOM      9  C   UNL     1       0.297  -2.734   0.014  0.00  0.00    +0.025 A 
ATOM     10  C   UNL     1       0.238  -2.049   1.211  0.00  0.00    +0.025 A 
ATOM     11  C   UNL     1       0.166  -0.661   1.214  0.00  0.00    +0.037 A 
BRANCH   8  12
ATOM     12  N   UNL     1       0.339  -2.731  -2.401  0.00  0.00    -0.330 N 
ATOM     13  C   UNL     1       0.333  -2.120  -3.738  0.00  0.00    +0.105 C 
ATOM     14  C   UNL     1       0.387  -3.270  -4.766  0.00  0.00    +0.020 C 
ATOM     15  C   UNL     1      -0.152  -4.482  -3.961  0.00  0.00    +0.020 C 
ATOM     16  C   UNL     1       0.423  -4.195  -2.549  0.00  0.00    +0.105 C 
ENDBRANCH   8  12
ENDBRANCH   1  11
BRANCH   2  17
ATOM     17  C   UNL     1      -0.679   0.272   4.730  0.00  0.00    +0.078 A 
ATOM     18  C   UNL     1      -0.208   1.584   4.962  0.00  0.00    +0.148 A 
ATOM     19  N   UNL     1      -0.533   1.921   6.180  0.00  0.00    -0.174 NA
ATOM     20  N   UNL     1      -1.218   0.858   6.777  0.00  0.00    -0.236 N 
ATOM     21  C   UNL     1      -1.309  -0.145   5.885  0.00  0.00    +0.054 A 
ATOM     22  C   UNL     1      -1.973  -1.480   6.107  0.00  0.00    +0.066 C 
BRANCH  20  23
ATOM     23  C   UNL     1      -1.728   0.842   8.083  0.00  0.00    +0.066 A 
ATOM     24  C   UNL     1      -1.584  -0.292   8.872  0.00  0.00    +0.029 A 
ATOM     25  C   UNL     1      -2.087  -0.305  10.158  0.00  0.00    +0.017 A 
ATOM     26  C   UNL     1      -2.733   0.810  10.661  0.00  0.00    +0.018 A 
ATOM     27  C   UNL     1      -2.878   1.941   9.877  0.00  0.00    +0.017 A 
ATOM     28  C   UNL     1      -2.372   1.961   8.592  0.00  0.00    +0.029 A 
ATOM     29 BR   UNL     1      -3.421   0.788  12.422  0.00  0.00    -0.050 Br
ENDBRANCH  20  23
ENDBRANCH   2  17
TORSDOF 4
