REMARK  Name = ZINC33587835
REMARK  7 active torsions:
REMARK  status: ('A' for Active; 'I' for Inactive)
REMARK    1  A    between atoms: C_3  and  O_27
REMARK    2  A    between atoms: C_6  and  C_7
REMARK    3  A    between atoms: C_7  and  C_8
REMARK    4  A    between atoms: C_8  and  C_10
REMARK    5  A    between atoms: C_8  and  N_13
REMARK    6  A    between atoms: C_14  and  C_16
REMARK    7  A    between atoms: C_19  and  C_21
REMARK                            x       y       z     vdW  Elec       q    Type
REMARK                         _______ _______ _______ _____ _____    ______ ____
ROOT
ATOM      1  N   UNL     1      -3.986   6.736   3.103  0.00  0.00    -0.298 N 
ATOM      2  C   UNL     1      -4.597   5.587   3.453  0.00  0.00    +0.264 C 
ATOM      3  O   UNL     1      -5.563   5.612   4.192  0.00  0.00    -0.268 OA
ATOM      4  H   UNL     1      -3.113   6.713   2.435  0.00  0.00    +0.150 HD
ENDROOT
BRANCH   2   5
ATOM      5  C   UNL     1      -4.094   4.300   2.941  0.00  0.00    +0.133 A 
ATOM      6  C   UNL     1      -4.696   3.116   3.282  0.00  0.00    +0.079 A 
ATOM      7  S   UNL     1      -3.721   1.971   2.415  0.00  0.00    -0.081 S 
ATOM      8  C   UNL     1      -2.611   3.089   1.690  0.00  0.00    +0.065 A 
ATOM      9  N   UNL     1      -3.037   4.245   2.130  0.00  0.00    -0.241 NA
BRANCH   8  10
ATOM     10  C   UNL     1      -1.449   2.800   0.776  0.00  0.00    -0.015 C 
ATOM     11  C   UNL     1      -1.948   2.439  -0.646  0.00  0.00    -0.011 C 
ATOM     12  C   UNL     1      -0.779   1.607  -1.222  0.00  0.00    -0.020 C 
ATOM     13  C   UNL     1      -0.013   1.086   0.008  0.00  0.00    -0.082 C 
ATOM     14  N   UNL     1      -0.726   1.573   1.208  0.00  0.00    +0.385 N 
ATOM     15  H   UNL     1      -0.024   1.827   2.016  0.00  0.00    -0.085 HD
ATOM     16  H   UNL     1      -1.451   0.830   1.572  0.00  0.00    -0.085 HD
ENDBRANCH   8  10
ENDBRANCH   2   5
BRANCH   1  17
ATOM     17  C   UNL     1      -4.486   8.016   3.612  0.00  0.00    +0.163 C 
BRANCH  17  18
ATOM     18  C   UNL     1      -3.892   8.283   4.970  0.00  0.00    +0.231 C 
ATOM     19  O   UNL     1      -3.126   7.483   5.465  0.00  0.00    -0.274 OA
ATOM     20  N   UNL     1      -4.211   9.410   5.636  0.00  0.00    -0.328 N 
ATOM     21  H   UNL     1      -3.777   9.605   6.628  0.00  0.00    +0.145 HD
ATOM     22  H   UNL     1      -4.906  10.136   5.188  0.00  0.00    +0.145 HD
ENDBRANCH  17  18
BRANCH  17  23
ATOM     23  C   UNL     1      -4.088   9.138   2.651  0.00  0.00    +0.067 C 
BRANCH  23  29
ATOM     24  C   UNL     1      -4.171   8.191   0.336  0.00  0.00    +0.007 A 
ATOM     25  C   UNL     1      -4.808   8.001  -0.876  0.00  0.00    +0.045 A 
ATOM     26  C   UNL     1      -6.054   8.567  -1.100  0.00  0.00    +0.117 A 
ATOM     27  C   UNL     1      -6.660   9.320  -0.105  0.00  0.00    +0.045 A 
ATOM     28  C   UNL     1      -6.023   9.502   1.107  0.00  0.00    +0.007 A 
ATOM     29  C   UNL     1      -4.781   8.936   1.328  0.00  0.00    -0.045 A 
BRANCH  26  30
ATOM     30  O   UNL     1      -6.679   8.387  -2.293  0.00  0.00    -0.507 OA
ATOM     31  H   UNL     1      -7.667   8.837  -2.470  0.00  0.00    +0.292 HD
ENDBRANCH  26  30
ENDBRANCH  23  29
ENDBRANCH  17  23
ENDBRANCH   1  17
TORSDOF 7
