REMARK  Name = ZINC36510692
REMARK  25 active torsions:
REMARK  status: ('A' for Active; 'I' for Inactive)
REMARK    1  A    between atoms: C_1  and  C_2
REMARK    2  A    between atoms: C_2  and  C_3
REMARK    3  A    between atoms: C_3  and  C_4
REMARK    4  A    between atoms: C_4  and  C_5
REMARK    5  A    between atoms: C_5  and  C_6
REMARK    6  A    between atoms: C_6  and  N_7
REMARK    7  A    between atoms: N_7  and  C_8
REMARK    8  A    between atoms: C_8  and  C_10
REMARK    9  A    between atoms: C_8  and  C_13
REMARK   10  A    between atoms: C_11  and  C_12
REMARK   11  A    between atoms: N_15  and  C_16
REMARK   12  A    between atoms: C_16  and  C_17
REMARK   13  A    between atoms: C_16  and  C_18
REMARK   14  A    between atoms: C_16  and  C_19
REMARK   15  A    between atoms: C_19  and  C_20
REMARK   16  A    between atoms: C_20  and  C_21
REMARK   17  A    between atoms: C_20  and  C_22
REMARK   18  A    between atoms: C_20  and  C_23
REMARK   19  A    between atoms: C_24  and  C_26
REMARK   20  A    between atoms: C_26  and  C_28
REMARK   21  A    between atoms: C_26  and  C_30
REMARK   22  A    between atoms: C_28  and  C_29
REMARK   23  A    between atoms: C_30  and  C_31
REMARK   24  A    between atoms: C_31  and  C_32
REMARK   25  A    between atoms: C_32  and  C_33
REMARK                            x       y       z     vdW  Elec       q    Type
REMARK                         _______ _______ _______ _____ _____    ______ ____
ROOT
ATOM      1  N   UNL     1       3.333  -4.564   5.279  0.00  0.00    -0.286 N 
ATOM      2  C   UNL     1       4.391  -5.174   4.709  0.00  0.00    +0.219 C 
ATOM      3  O   UNL     1       4.867  -4.732   3.685  0.00  0.00    -0.275 OA
ENDROOT
BRANCH   1   4
ATOM      4  C   UNL     1       2.697  -5.153   6.460  0.00  0.00    +0.185 C 
BRANCH   4   5
ATOM      5  C   UNL     1       1.285  -5.556   6.122  0.00  0.00    +0.238 C 
ATOM      6  O   UNL     1       0.853  -5.370   5.004  0.00  0.00    -0.273 OA
ATOM      7  N   UNL     1       0.503  -6.124   7.061  0.00  0.00    -0.308 N 
ATOM      8  H   UNL     1       0.849  -6.272   7.955  0.00  0.00    +0.149 HD
BRANCH   7   9
ATOM      9  C   UNL     1      -0.870  -6.516   6.732  0.00  0.00    +0.030 C 
ATOM     10  C   UNL     1      -1.749  -5.267   6.641  0.00  0.00    +0.031 C 
ATOM     11  C   UNL     1      -0.883  -7.248   5.389  0.00  0.00    +0.031 C 
BRANCH   9  12
ATOM     12  C   UNL     1      -1.411  -7.442   7.824  0.00  0.00    +0.031 C 
BRANCH  12  13
ATOM     13  C   UNL     1      -0.247  -8.175   8.494  0.00  0.00    -0.036 C 
ATOM     14  C   UNL     1       0.470  -7.223   9.454  0.00  0.00    +0.010 C 
ATOM     15  C   UNL     1      -0.783  -9.378   9.273  0.00  0.00    +0.010 C 
ATOM     16  C   UNL     1       0.736  -8.656   7.425  0.00  0.00    +0.010 C 
ENDBRANCH  12  13
ENDBRANCH   9  12
ENDBRANCH   7   9
ENDBRANCH   4   5
BRANCH   4  17
ATOM     17  C   UNL     1       2.677  -4.141   7.577  0.00  0.00    +0.000 C 
ATOM     18  C   UNL     1       3.365  -4.358   8.670  0.00  0.00    -0.032 C 
ATOM     19  C   UNL     1       4.176  -5.620   8.812  0.00  0.00    +0.035 C 
ENDBRANCH   4  17
ENDBRANCH   1   4
BRANCH   1  20
ATOM     20  C   UNL     1       2.820  -3.312   4.718  0.00  0.00    +0.109 C 
BRANCH  20  21
ATOM     21  C   UNL     1       3.625  -2.136   5.273  0.00  0.00    +0.019 C 
BRANCH  21  22
ATOM     22  C   UNL     1       3.172  -0.842   4.593  0.00  0.00    +0.002 C 
BRANCH  22  23
ATOM     23  C   UNL     1       3.977   0.334   5.149  0.00  0.00    -0.000 C 
BRANCH  23  25
ATOM     24  C   UNL     1       4.330   2.805   5.025  0.00  0.00    +0.004 C 
ATOM     25  C   UNL     1       3.525   1.628   4.469  0.00  0.00    -0.003 C 
ENDBRANCH  23  25
ENDBRANCH  22  23
ENDBRANCH  21  22
ENDBRANCH  20  21
ENDBRANCH   1  20
BRANCH   2  26
ATOM     26  C   UNL     1       4.983  -6.406   5.343  0.00  0.00    +0.075 C 
BRANCH  26  27
ATOM     27  C   UNL     1       4.076  -7.608   5.067  0.00  0.00    +0.009 C 
ATOM     28  C   UNL     1       4.057  -7.897   3.565  0.00  0.00    +0.004 C 
ENDBRANCH  26  27
BRANCH  26  29
ATOM     29  C   UNL     1       6.370  -6.668   4.753  0.00  0.00    +0.013 C 
BRANCH  29  30
ATOM     30  C   UNL     1       7.023  -7.841   5.487  0.00  0.00    +0.000 C 
BRANCH  30  31
ATOM     31  C   UNL     1       8.357  -8.181   4.819  0.00  0.00    -0.003 C 
ATOM     32  C   UNL     1       9.010  -9.354   5.553  0.00  0.00    +0.004 C 
ENDBRANCH  30  31
ENDBRANCH  29  30
ENDBRANCH  26  29
ENDBRANCH   2  26
TORSDOF 16
