REMARK  Name = ZINC35226646
REMARK  7 active torsions:
REMARK  status: ('A' for Active; 'I' for Inactive)
REMARK    1  A    between atoms: C_6  and  C_7
REMARK    2  A    between atoms: C_7  and  N_8
REMARK    3  A    between atoms: N_8  and  C_9
REMARK    4  A    between atoms: N_8  and  C_26
REMARK    5  A    between atoms: C_9  and  C_10
REMARK    6  A    between atoms: C_13  and  C_15
REMARK    7  A    between atoms: C_20  and  C_23
REMARK                            x       y       z     vdW  Elec       q    Type
REMARK                         _______ _______ _______ _____ _____    ______ ____
ROOT
ATOM      1  C   UNL     1      -3.514  -1.829  -2.433  0.00  0.00    +0.090 A 
ATOM      2  C   UNL     1      -3.496  -3.059  -2.990  0.00  0.00    +0.043 A 
ATOM      3  C   UNL     1      -4.206  -2.976  -4.198  0.00  0.00    +0.055 A 
ATOM      4  C   UNL     1      -4.627  -1.683  -4.318  0.00  0.00    +0.190 A 
ATOM      5  O   UNL     1      -4.201  -1.003  -3.233  0.00  0.00    -0.457 OA
ENDROOT
BRANCH   4   6
ATOM      6  C   UNL     1      -5.409  -1.131  -5.429  0.00  0.00    +0.282 C 
ATOM      7  O   UNL     1      -5.270   0.035  -5.751  0.00  0.00    -0.267 OA
ATOM      8  N   UNL     1      -6.282  -1.914  -6.094  0.00  0.00    -0.295 N 
ATOM      9  C   UNL     1      -6.530  -3.295  -5.658  0.00  0.00    +0.109 C 
ATOM     10  C   UNL     1      -8.038  -3.486  -5.464  0.00  0.00    +0.032 C 
ATOM     11  C   UNL     1      -8.768  -3.092  -6.750  0.00  0.00    +0.078 C 
ATOM     12  C   UNL     1      -8.505  -1.616  -7.055  0.00  0.00    +0.032 C 
ATOM     13  C   UNL     1      -7.007  -1.401  -7.264  0.00  0.00    +0.109 C 
BRANCH  11  14
ATOM     14  C   UNL     1     -10.249  -3.312  -6.574  0.00  0.00    +0.214 C 
ATOM     15  O   UNL     1     -10.677  -3.741  -5.524  0.00  0.00    -0.276 OA
ATOM     16  N   UNL     1     -11.096  -3.030  -7.583  0.00  0.00    -0.329 N 
ATOM     17  H   UNL     1     -10.753  -2.687  -8.423  0.00  0.00    +0.145 HD
ATOM     18  H   UNL     1     -12.049  -3.172  -7.470  0.00  0.00    +0.145 HD
ENDBRANCH  11  14
ENDBRANCH   4   6
BRANCH   1  19
ATOM     19  C   UNL     1      -2.873  -1.449  -1.123  0.00  0.00    -0.002 C 
BRANCH  19  20
ATOM     20  N   UNL     1      -1.411  -1.478  -1.266  0.00  0.00    +0.389 N 
ATOM     21  H   UNL     1      -1.129  -2.369  -1.647  0.00  0.00    -0.080 HD
BRANCH  20  22
ATOM     22  C   UNL     1      -0.987  -0.403  -2.172  0.00  0.00    -0.068 C 
ATOM     23  C   UNL     1      -1.744   0.881  -1.830  0.00  0.00    -0.015 C 
ATOM     24  C   UNL     1      -1.302   2.002  -2.773  0.00  0.00    -0.002 C 
ATOM     25  C   UNL     1      -1.604   1.601  -4.218  0.00  0.00    -0.000 C 
ATOM     26  C   UNL     1      -0.846   0.317  -4.561  0.00  0.00    -0.002 C 
ATOM     27  C   UNL     1      -1.289  -0.803  -3.617  0.00  0.00    -0.015 C 
ENDBRANCH  20  22
BRANCH  20  28
ATOM     28  C   UNL     1      -0.786  -1.287   0.049  0.00  0.00    -0.042 C 
BRANCH  28  34
ATOM     29  C   UNL     1       1.487  -0.289  -0.272  0.00  0.00    +0.003 A 
ATOM     30  C   UNL     1       2.858  -0.407  -0.392  0.00  0.00    +0.015 A 
ATOM     31  C   UNL     1       3.454  -1.654  -0.322  0.00  0.00    +0.018 A 
ATOM     32  C   UNL     1       2.675  -2.782  -0.133  0.00  0.00    +0.015 A 
ATOM     33  C   UNL     1       1.304  -2.663  -0.013  0.00  0.00    +0.003 A 
ATOM     34  C   UNL     1       0.709  -1.416  -0.082  0.00  0.00    -0.064 A 
ATOM     35 BR   UNL     1       5.330  -1.817  -0.487  0.00  0.00    -0.050 Br
ENDBRANCH  28  34
ENDBRANCH  20  28
ENDBRANCH  19  20
ENDBRANCH   1  19
TORSDOF 7
