REMARK  Name = ZINC36371593
REMARK  13 active torsions:
REMARK  status: ('A' for Active; 'I' for Inactive)
REMARK    1  A    between atoms: C_2  and  C_5
REMARK    2  A    between atoms: C_5  and  C_6
REMARK    3  A    between atoms: C_5  and  C_39
REMARK    4  A    between atoms: C_5  and  O_43
REMARK    5  A    between atoms: C_6  and  C_8
REMARK    6  A    between atoms: C_6  and  O_38
REMARK    7  A    between atoms: C_8  and  C_9
REMARK    8  A    between atoms: C_9  and  C_10
REMARK    9  A    between atoms: C_10  and  C_12
REMARK   10  A    between atoms: C_10  and  C_13
REMARK   11  A    between atoms: C_19  and  C_37
REMARK   12  A    between atoms: C_29  and  C_36
REMARK   13  A    between atoms: C_32  and  O_35
REMARK                            x       y       z     vdW  Elec       q    Type
REMARK                         _______ _______ _______ _____ _____    ______ ____
ROOT
ATOM      1  C   UNL     1       1.656  -2.594   4.688  0.00  0.00    -0.002 C 
ATOM      2  C   UNL     1       1.082  -2.272   6.087  0.00  0.00    +0.004 C 
ATOM      3  C   UNL     1       1.838  -3.165   7.088  0.00  0.00    +0.004 C 
ATOM      4  C   UNL     1       2.878  -3.966   6.258  0.00  0.00    -0.001 C 
ATOM      5  C   UNL     1       2.247  -4.006   4.856  0.00  0.00    -0.026 C 
ATOM      6  C   UNL     1       3.230  -4.360   3.766  0.00  0.00    +0.007 C 
ATOM      7  C   UNL     1       4.448  -3.440   3.810  0.00  0.00    +0.005 C 
ATOM      8  C   UNL     1       5.135  -3.598   5.174  0.00  0.00    +0.003 C 
ATOM      9  C   UNL     1       4.177  -3.153   6.288  0.00  0.00    +0.000 C 
ATOM     10  C   UNL     1       4.839  -3.385   7.655  0.00  0.00    +0.031 C 
ATOM     11  C   UNL     1       6.198  -2.754   7.683  0.00  0.00    -0.027 C 
ATOM     12  C   UNL     1       6.882  -2.476   6.620  0.00  0.00    -0.065 C 
ATOM     13  C   UNL     1       6.385  -2.726   5.180  0.00  0.00    -0.008 C 
ATOM     14  C   UNL     1       6.143  -1.411   4.443  0.00  0.00    +0.014 C 
ATOM     15  C   UNL     1       7.061  -0.323   4.998  0.00  0.00    +0.032 C 
ATOM     16  C   UNL     1       8.409  -0.903   5.421  0.00  0.00    +0.119 C 
ATOM     17  C   UNL     1       8.244  -1.813   6.752  0.00  0.00    +0.062 C 
ATOM     18  C   UNL     1       7.493  -3.475   4.436  0.00  0.00    +0.016 C 
ATOM     19  C   UNL     1       1.111  -5.032   4.847  0.00  0.00    +0.012 C 
ENDROOT
BRANCH   1  20
ATOM     20  C   UNL     1       0.544  -2.597   3.636  0.00  0.00    -0.010 C 
ATOM     21  C   UNL     1       1.130  -2.982   2.276  0.00  0.00    +0.008 C 
BRANCH  20  22
ATOM     22  C   UNL     1      -0.077  -1.202   3.548  0.00  0.00    +0.006 C 
BRANCH  22  23
ATOM     23  C   UNL     1      -1.269  -1.234   2.589  0.00  0.00    +0.034 C 
BRANCH  23  24
ATOM     24  C   UNL     1      -1.890   0.161   2.500  0.00  0.00    +0.146 C 
BRANCH  24  26
ATOM     25  C   UNL     1      -2.416  -0.226   0.088  0.00  0.00    +0.043 C 
ATOM     26  C   UNL     1      -3.002   0.159   1.449  0.00  0.00    +0.086 C 
ATOM     27  C   UNL     1      -3.623   1.554   1.360  0.00  0.00    +0.043 C 
BRANCH  26  28
ATOM     28  O   UNL     1      -4.006  -0.788   1.820  0.00  0.00    -0.387 OA
ATOM     29  H   UNL     1      -4.422  -0.606   2.674  0.00  0.00    +0.210 HD
ENDBRANCH  26  28
ENDBRANCH  24  26
BRANCH  24  30
ATOM     30  O   UNL     1      -2.437   0.520   3.771  0.00  0.00    -0.389 OA
ATOM     31  H   UNL     1      -3.127  -0.080   4.086  0.00  0.00    +0.210 HD
ENDBRANCH  24  30
ENDBRANCH  23  24
ENDBRANCH  22  23
ENDBRANCH  20  22
ENDBRANCH   1  20
BRANCH  16  32
ATOM     32  O   UNL     1       8.927  -1.721   4.370  0.00  0.00    -0.391 OA
ATOM     33  H   UNL     1       9.823  -2.046   4.529  0.00  0.00    +0.210 HD
ENDBRANCH  16  32
TORSDOF 8
