REMARK  Name = ZINC06408849
REMARK  7 active torsions:
REMARK  status: ('A' for Active; 'I' for Inactive)
REMARK    1  A    between atoms: C_1  and  C_2
REMARK    2  A    between atoms: C_9  and  C_14
REMARK    3  A    between atoms: C_14  and  C_16
REMARK    4  A    between atoms: C_14  and  N_60
REMARK    5  A    between atoms: N_20  and  C_21
REMARK    6  A    between atoms: C_21  and  C_22
REMARK    7  A    between atoms: C_32  and  C_35
REMARK                            x       y       z     vdW  Elec       q    Type
REMARK                         _______ _______ _______ _____ _____    ______ ____
ROOT
ATOM      1  C   UNL     1      -2.317  -0.396  -1.476  0.00  0.00    +0.039 C 
ENDROOT
BRANCH   1  10
ATOM      2  C   UNL     1       1.953  -2.448  -7.236  0.00  0.00    +0.044 C 
ATOM      3  C   UNL     1       0.978  -2.784  -6.137  0.00  0.00    -0.050 A 
ATOM      4  C   UNL     1       0.556  -4.096  -5.970  0.00  0.00    +0.005 A 
ATOM      5  C   UNL     1      -0.335  -4.427  -4.972  0.00  0.00    +0.026 A 
ATOM      6  C   UNL     1      -0.816  -3.437  -4.121  0.00  0.00    +0.049 A 
ATOM      7  C   UNL     1      -0.386  -2.108  -4.293  0.00  0.00    -0.001 A 
ATOM      8  C   UNL     1       0.519  -1.796  -5.314  0.00  0.00    +0.013 A 
ATOM      9  C   UNL     1      -0.902  -1.073  -3.396  0.00  0.00    +0.017 A 
ATOM     10  C   UNL     1      -1.771  -1.436  -2.420  0.00  0.00    +0.011 A 
ATOM     11  C   UNL     1      -2.171  -2.783  -2.290  0.00  0.00    +0.251 A 
ATOM     12  O   UNL     1      -2.958  -3.087  -1.410  0.00  0.00    -0.268 OA
ATOM     13  N   UNL     1      -1.707  -3.740  -3.113  0.00  0.00    -0.322 N 
ATOM     14  H   UNL     1      -2.003  -4.656  -2.996  0.00  0.00    +0.169 HD
ENDBRANCH   1  10
BRANCH   1  21
ATOM     15  C   UNL     1      -4.201  -0.106  -2.969  0.00  0.00    -0.077 C 
ATOM     16  C   UNL     1      -5.724  -0.217  -3.071  0.00  0.00    -0.018 C 
ATOM     17  C   UNL     1      -6.369   0.805  -2.130  0.00  0.00    -0.001 C 
ATOM     18  C   UNL     1      -5.878   0.552  -0.702  0.00  0.00    -0.031 C 
ATOM     19  C   UNL     1      -4.351   0.640  -0.669  0.00  0.00    -0.074 C 
ATOM     20  C   UNL     1      -6.471   1.605   0.236  0.00  0.00    +0.005 C 
ATOM     21  N   UNL     1      -3.791  -0.384  -1.576  0.00  0.00    +0.389 N 
ATOM     22  H   UNL     1      -4.152  -1.306  -1.301  0.00  0.00    -0.080 HD
ENDBRANCH   1  21
BRANCH   1  23
ATOM     23  C   UNL     1      -1.751   0.954  -1.834  0.00  0.00    +0.143 A 
ATOM     24  N   UNL     1      -2.100   1.704  -2.851  0.00  0.00    -0.115 NA
ATOM     25  N   UNL     1      -1.385   2.776  -2.817  0.00  0.00    -0.023 NA
ATOM     26  N   UNL     1      -0.594   2.732  -1.803  0.00  0.00    -0.044 NA
ATOM     27  N   UNL     1      -0.792   1.625  -1.170  0.00  0.00    -0.226 N 
BRANCH  27  28
ATOM     28  C   UNL     1      -0.098   1.179   0.041  0.00  0.00    +0.182 C 
BRANCH  28  29
ATOM     29  C   UNL     1      -0.849   1.660   1.256  0.00  0.00    -0.026 A 
ATOM     30  C   UNL     1      -0.542   2.886   1.817  0.00  0.00    +0.008 A 
ATOM     31  C   UNL     1      -1.233   3.330   2.928  0.00  0.00    +0.038 A 
ATOM     32  C   UNL     1      -2.225   2.542   3.486  0.00  0.00    +0.123 A 
ATOM     33  C   UNL     1      -2.528   1.312   2.927  0.00  0.00    +0.038 A 
ATOM     34  C   UNL     1      -1.839   0.873   1.812  0.00  0.00    +0.008 A 
ATOM     35  F   UNL     1      -2.898   2.974   4.575  0.00  0.00    -0.205 F 
ENDBRANCH  28  29
ENDBRANCH  27  28
ENDBRANCH   1  23
TORSDOF 5
