REMARK  Name = ZINC36214914
REMARK  11 active torsions:
REMARK  status: ('A' for Active; 'I' for Inactive)
REMARK    1  A    between atoms: C_1  and  C_2
REMARK    2  A    between atoms: C_5  and  S_8
REMARK    3  A    between atoms: S_8  and  N_11
REMARK    4  A    between atoms: C_14  and  C_17
REMARK    5  A    between atoms: C_17  and  C_19
REMARK    6  A    between atoms: C_17  and  N_28
REMARK    7  A    between atoms: N_21  and  C_22
REMARK    8  A    between atoms: C_22  and  C_23
REMARK    9  A    between atoms: C_29  and  C_31
REMARK   10  A    between atoms: C_35  and  O_37
REMARK   11  A    between atoms: O_37  and  C_38
REMARK                            x       y       z     vdW  Elec       q    Type
REMARK                         _______ _______ _______ _____ _____    ______ ____
ROOT
ATOM      1  C   UNL     1       4.508  -8.153  -0.078  0.00  0.00    +0.162 C 
ENDROOT
BRANCH   1   5
ATOM      2  N   UNL     1       1.651  -4.999  -0.034  0.00  0.00    -0.177 NA
ATOM      3  C   UNL     1       2.364  -5.199  -1.304  0.00  0.00    +0.110 C 
ATOM      4  C   UNL     1       2.984  -6.599  -1.306  0.00  0.00    +0.023 C 
ATOM      5  C   UNL     1       3.858  -6.767  -0.061  0.00  0.00    +0.021 C 
ATOM      6  C   UNL     1       2.995  -6.624   1.194  0.00  0.00    +0.023 C 
ATOM      7  C   UNL     1       2.376  -5.218   1.225  0.00  0.00    +0.110 C 
BRANCH   2   8
ATOM      8  S   UNL     1       0.063  -4.530  -0.023  0.00  0.00    +0.061 S 
ATOM      9  O   UNL     1      -0.476  -4.950   1.223  0.00  0.00    -0.153 OA
ATOM     10  O   UNL     1      -0.490  -4.937  -1.267  0.00  0.00    -0.153 OA
BRANCH   8  15
ATOM     11  C   UNL     1      -0.018   1.503   0.010  0.00  0.00    +0.044 C 
ATOM     12  C   UNL     1       0.002  -0.004   0.002  0.00  0.00    -0.050 A 
ATOM     13  C   UNL     1       0.006  -0.689  -1.199  0.00  0.00    +0.005 A 
ATOM     14  C   UNL     1       0.025  -2.071  -1.206  0.00  0.00    +0.029 A 
ATOM     15  C   UNL     1       0.040  -2.768  -0.013  0.00  0.00    +0.105 A 
ATOM     16  C   UNL     1       0.037  -2.084   1.188  0.00  0.00    +0.029 A 
ATOM     17  C   UNL     1       0.023  -0.702   1.195  0.00  0.00    +0.005 A 
ENDBRANCH   8  15
ENDBRANCH   2   8
ENDBRANCH   1   5
BRANCH   1  18
ATOM     18  C   UNL     1       5.369  -8.319   1.148  0.00  0.00    +0.234 C 
ATOM     19  O   UNL     1       5.134  -9.208   1.938  0.00  0.00    -0.274 OA
ATOM     20  N   UNL     1       6.400  -7.479   1.366  0.00  0.00    -0.307 N 
ATOM     21  H   UNL     1       6.588  -6.767   0.734  0.00  0.00    +0.149 HD
BRANCH  20  22
ATOM     22  C   UNL     1       7.237  -7.640   2.558  0.00  0.00    +0.178 C 
BRANCH  22  23
ATOM     23  C   UNL     1       8.310  -6.582   2.564  0.00  0.00    +0.122 A 
ATOM     24  C   UNL     1       8.211  -5.364   3.127  0.00  0.00    +0.046 A 
ATOM     25  C   UNL     1       9.441  -4.706   2.898  0.00  0.00    +0.041 A 
ATOM     26  C   UNL     1      10.218  -5.561   2.209  0.00  0.00    +0.195 A 
ATOM     27  O   UNL     1       9.530  -6.697   2.014  0.00  0.00    -0.466 OA
ENDBRANCH  22  23
ENDBRANCH  20  22
ENDBRANCH   1  18
BRANCH   1  28
ATOM     28  N   UNL     1       3.464  -9.181  -0.084  0.00  0.00    -0.300 N 
ATOM     29  C   UNL     1       3.725 -10.402  -0.591  0.00  0.00    +0.245 C 
ATOM     30  O   UNL     1       4.826 -10.651  -1.042  0.00  0.00    -0.270 OA
ATOM     31  H   UNL     1       2.586  -8.983   0.276  0.00  0.00    +0.150 HD
BRANCH  29  32
ATOM     32  C   UNL     1       2.672 -11.440  -0.598  0.00  0.00    +0.040 A 
ATOM     33  C   UNL     1       1.405 -11.156  -0.085  0.00  0.00    +0.013 A 
ATOM     34  C   UNL     1       0.424 -12.127  -0.093  0.00  0.00    +0.004 A 
ATOM     35  C   UNL     1       0.692 -13.382  -0.607  0.00  0.00    +0.045 A 
ATOM     36  C   UNL     1       1.949 -13.674  -1.119  0.00  0.00    +0.121 A 
ATOM     37  C   UNL     1       2.939 -12.705  -1.121  0.00  0.00    +0.058 A 
BRANCH  36  38
ATOM     38  O   UNL     1       2.207 -14.910  -1.622  0.00  0.00    -0.495 OA
ATOM     39  C   UNL     1       1.139 -15.858  -1.592  0.00  0.00    +0.277 C 
ENDBRANCH  36  38
ENDBRANCH  29  32
ENDBRANCH   1  28
TORSDOF 9
