REMARK  Name = ZINC11423675
REMARK  7 active torsions:
REMARK  status: ('A' for Active; 'I' for Inactive)
REMARK    1  A    between atoms: C_1  and  C_2
REMARK    2  A    between atoms: C_2  and  C_25
REMARK    3  A    between atoms: C_4  and  N_9
REMARK    4  A    between atoms: C_6  and  C_7
REMARK    5  A    between atoms: C_6  and  C_8
REMARK    6  A    between atoms: C_10  and  C_12
REMARK    7  A    between atoms: C_12  and  C_13
REMARK                            x       y       z     vdW  Elec       q    Type
REMARK                         _______ _______ _______ _____ _____    ______ ____
ROOT
ATOM      1  N   UNL     1      -0.011   0.966   0.007  0.00  0.00    -0.313 N 
ATOM      2  C   UNL     1       1.147   1.655   0.000  0.00  0.00    +0.215 C 
ATOM      3  O   UNL     1       1.130   2.868   0.007  0.00  0.00    -0.276 OA
ATOM      4  H   UNL     1       0.002  -0.004   0.002  0.00  0.00    +0.149 HD
ENDROOT
BRANCH   1   8
ATOM      5  C   UNL     1      -3.760   2.557  -1.666  0.00  0.00    -0.010 C 
ATOM      6  C   UNL     1      -3.727   1.497  -0.559  0.00  0.00    -0.072 C 
ATOM      7  C   UNL     1      -2.377   0.783  -0.576  0.00  0.00    +0.009 C 
ATOM      8  C   UNL     1      -1.293   1.683   0.017  0.00  0.00    +0.070 C 
ATOM      9  C   UNL     1      -1.672   2.015   1.460  0.00  0.00    +0.009 C 
ATOM     10  C   UNL     1      -3.014   2.741   1.503  0.00  0.00    -0.072 C 
ATOM     11  C   UNL     1      -2.827   4.192   1.045  0.00  0.00    -0.010 C 
ATOM     12  C   UNL     1      -3.473   2.784   2.978  0.00  0.00    -0.010 C 
ATOM     13  C   UNL     1      -4.811   0.449  -0.896  0.00  0.00    -0.010 C 
ATOM     14  N   UNL     1      -4.114   2.072   0.757  0.00  0.00    +0.386 N 
ATOM     15  H   UNL     1      -4.478   1.311   1.342  0.00  0.00    -0.084 HD
ATOM     16  H   UNL     1      -4.855   2.764   0.596  0.00  0.00    -0.084 HD
ENDBRANCH   1   8
BRANCH   2  17
ATOM     17  C   UNL     1       2.462   0.920  -0.017  0.00  0.00    +0.119 C 
BRANCH  17  18
ATOM     18  C   UNL     1       3.611   1.930  -0.022  0.00  0.00    +0.146 C 
ATOM     19  C   UNL     1       4.924   1.204  -0.162  0.00  0.00    +0.231 C 
ATOM     20  O   UNL     1       5.431   1.135  -1.262  0.00  0.00    -0.274 OA
ATOM     21  N   UNL     1       5.554   0.635   0.861  0.00  0.00    -0.284 N 
ATOM     22  C   UNL     1       5.190   0.703   2.203  0.00  0.00    +0.047 A 
ATOM     23  C   UNL     1       5.748  -0.197   3.106  0.00  0.00    +0.024 A 
ATOM     24  C   UNL     1       5.398  -0.151   4.441  0.00  0.00    +0.002 A 
ATOM     25  C   UNL     1       4.496   0.792   4.897  0.00  0.00    +0.001 A 
ATOM     26  C   UNL     1       3.947   1.704   4.014  0.00  0.00    +0.016 A 
ATOM     27  C   UNL     1       4.298   1.666   2.675  0.00  0.00    +0.030 A 
ATOM     28  S   UNL     1       3.627   2.848   1.548  0.00  0.00    -0.110 S 
ATOM     29  H   UNL     1       6.348   0.121   0.651  0.00  0.00    +0.155 HD
ENDBRANCH  17  18
ENDBRANCH   2  17
TORSDOF 3
