REMARK  Name = ZINC61857385
REMARK  6 active torsions:
REMARK  status: ('A' for Active; 'I' for Inactive)
REMARK    1  A    between atoms: C_1  and  C_2
REMARK    2  A    between atoms: C_5  and  C_8
REMARK    3  A    between atoms: C_8  and  C_9
REMARK    4  A    between atoms: C_11  and  C_14
REMARK    5  A    between atoms: C_18  and  N_21
REMARK    6  A    between atoms: C_19  and  C_20
REMARK                            x       y       z     vdW  Elec       q    Type
REMARK                         _______ _______ _______ _____ _____    ______ ____
ROOT
ATOM      1  C   UNL     1       1.500  -4.918   0.067  0.00  0.00    +0.176 A 
ATOM      2  N   UNL     1       2.205  -5.149  -1.043  0.00  0.00    -0.191 NA
ATOM      3  C   UNL     1       3.440  -5.473  -0.732  0.00  0.00    +0.259 A 
ATOM      4  O   UNL     1       3.549  -5.456   0.608  0.00  0.00    -0.333 OA
ATOM      5  N   UNL     1       2.271  -5.086   1.104  0.00  0.00    -0.061 NA
ENDROOT
BRANCH   3   6
ATOM      6  C   UNL     1       4.519  -5.801  -1.688  0.00  0.00    +0.044 A 
ATOM      7  C   UNL     1       4.277  -6.683  -2.743  0.00  0.00    +0.013 A 
ATOM      8  C   UNL     1       5.286  -6.987  -3.633  0.00  0.00    +0.003 A 
ATOM      9  C   UNL     1       6.539  -6.421  -3.485  0.00  0.00    +0.023 A 
ATOM     10  C   UNL     1       6.790  -5.542  -2.438  0.00  0.00    +0.028 A 
ATOM     11  C   UNL     1       5.781  -5.225  -1.542  0.00  0.00    -0.018 A 
ATOM     12  C   UNL     1       6.048  -4.267  -0.410  0.00  0.00    +0.046 C 
BRANCH  10  13
ATOM     13  N   UNL     1       8.058  -4.973  -2.293  0.00  0.00    -0.358 N 
ATOM     14  H   UNL     1       8.763  -5.192  -2.922  0.00  0.00    +0.142 HD
ATOM     15  H   UNL     1       8.233  -4.360  -1.562  0.00  0.00    +0.142 HD
ENDBRANCH  10  13
ENDBRANCH   3   6
BRANCH   1  16
ATOM     16  C   UNL     1       0.048  -4.520   0.113  0.00  0.00    +0.114 C 
BRANCH  16  21
ATOM     17  C   UNL     1      -0.382   1.240  -0.037  0.00  0.00    +0.044 C 
ATOM     18  C   UNL     1      -0.270  -0.262   0.002  0.00  0.00    -0.050 A 
ATOM     19  C   UNL     1      -0.265  -0.986  -1.176  0.00  0.00    +0.003 A 
ATOM     20  C   UNL     1      -0.162  -2.364  -1.140  0.00  0.00    +0.004 A 
ATOM     21  C   UNL     1      -0.064  -3.018   0.074  0.00  0.00    -0.040 A 
ATOM     22  C   UNL     1      -0.068  -2.294   1.252  0.00  0.00    +0.004 A 
ATOM     23  C   UNL     1      -0.166  -0.916   1.216  0.00  0.00    +0.003 A 
ENDBRANCH  16  21
ENDBRANCH   1  16
TORSDOF 4
