REMARK  Name = ZINC14156996
REMARK  9 active torsions:
REMARK  status: ('A' for Active; 'I' for Inactive)
REMARK    1  A    between atoms: C_1  and  C_2
REMARK    2  A    between atoms: C_7  and  N_8
REMARK    3  A    between atoms: N_8  and  C_9
REMARK    4  A    between atoms: C_9  and  N_11
REMARK    5  A    between atoms: N_13  and  C_14
REMARK    6  A    between atoms: C_14  and  C_15
REMARK    7  A    between atoms: C_15  and  C_16
REMARK    8  A    between atoms: C_25  and  C_30
REMARK    9  A    between atoms: C_27  and  C_29
REMARK                            x       y       z     vdW  Elec       q    Type
REMARK                         _______ _______ _______ _____ _____    ______ ____
ROOT
ATOM      1  N   UNL     1       4.632   1.419  -0.048  0.00  0.00    -0.159 NA
ATOM      2  C   UNL     1       5.810   2.016  -0.108  0.00  0.00    +0.195 C 
ATOM      3  N   UNL     1       5.884   3.379  -0.131  0.00  0.00    -0.357 N 
ATOM      4  N   UNL     1       6.956   1.268  -0.146  0.00  0.00    -0.297 N 
ATOM      5  C   UNL     1       6.881  -0.118  -0.122  0.00  0.00    +0.231 A 
ATOM      6  N   UNL     1       5.693  -0.700  -0.057  0.00  0.00    -0.217 NA
ATOM      7  C   UNL     1       5.585  -2.018  -0.037  0.00  0.00    +0.044 A 
ATOM      8  C   UNL     1       6.736  -2.791  -0.075  0.00  0.00    +0.046 A 
ATOM      9  C   UNL     1       7.963  -2.149  -0.138  0.00  0.00    +0.044 A 
ATOM     10  N   UNL     1       7.999  -0.827  -0.160  0.00  0.00    -0.217 NA
ATOM     11  C   UNL     1       9.240  -2.947  -0.181  0.00  0.00    +0.066 C 
ATOM     12  C   UNL     1       4.230  -2.672   0.031  0.00  0.00    +0.066 C 
ATOM     13  H   UNL     1       5.073   3.909  -0.088  0.00  0.00    +0.162 HD
ATOM     14  H   UNL     1       7.820   1.706  -0.190  0.00  0.00    +0.171 HD
ENDROOT
BRANCH   1  15
ATOM     15  C   UNL     1       3.508   2.145  -0.125  0.00  0.00    +0.161 C 
ATOM     16  S   UNL     1       3.141   3.006  -1.558  0.00  0.00    -0.016 S 
BRANCH  15  17
ATOM     17  N   UNL     1       2.666   2.197   0.926  0.00  0.00    -0.295 N 
ATOM     18  H   UNL     1       2.906   1.766   1.762  0.00  0.00    +0.154 HD
BRANCH  17  25
ATOM     19  C   UNL     1       0.318   0.894   1.867  0.00  0.00    +0.045 C 
ATOM     20  C   UNL     1       0.276   2.272   1.259  0.00  0.00    -0.029 A 
ATOM     21  C   UNL     1      -0.928   2.939   1.140  0.00  0.00    +0.005 A 
ATOM     22  C   UNL     1      -0.968   4.205   0.587  0.00  0.00    +0.000 A 
ATOM     23  C   UNL     1       0.197   4.805   0.141  0.00  0.00    +0.002 A 
ATOM     24  C   UNL     1       1.403   4.142   0.252  0.00  0.00    +0.023 A 
ATOM     25  C   UNL     1       1.446   2.871   0.812  0.00  0.00    +0.036 A 
ENDBRANCH  17  25
ENDBRANCH  15  17
ENDBRANCH   1  15
BRANCH   3  26
ATOM     26  C   UNL     1       7.188   4.041  -0.221  0.00  0.00    +0.120 C 
BRANCH  26  27
ATOM     27  C   UNL     1       6.990   5.558  -0.230  0.00  0.00    +0.056 C 
BRANCH  27  28
ATOM     28  C   UNL     1       8.332   6.238  -0.323  0.00  0.00    -0.046 A 
ATOM     29  C   UNL     1       9.019   6.572   0.829  0.00  0.00    +0.004 A 
ATOM     30  C   UNL     1      10.251   7.192   0.744  0.00  0.00    +0.000 A 
ATOM     31  C   UNL     1      10.793   7.487  -0.493  0.00  0.00    +0.000 A 
ATOM     32  C   UNL     1      10.103   7.158  -1.645  0.00  0.00    +0.000 A 
ATOM     33  C   UNL     1       8.873   6.534  -1.560  0.00  0.00    +0.004 A 
ENDBRANCH  27  28
ENDBRANCH  26  27
ENDBRANCH   3  26
TORSDOF 6
