REMARK  Name = ZINC36569346
REMARK  10 active torsions:
REMARK  status: ('A' for Active; 'I' for Inactive)
REMARK    1  A    between atoms: C_1  and  O_2
REMARK    2  A    between atoms: O_2  and  C_3
REMARK    3  A    between atoms: C_3  and  C_5
REMARK    4  A    between atoms: C_5  and  C_6
REMARK    5  A    between atoms: C_6  and  C_7
REMARK    6  A    between atoms: C_7  and  C_9
REMARK    7  A    between atoms: C_7  and  N_13
REMARK    8  A    between atoms: C_9  and  O_11
REMARK    9  A    between atoms: O_11  and  C_12
REMARK   10  A    between atoms: C_25  and  C_27
REMARK                            x       y       z     vdW  Elec       q    Type
REMARK                         _______ _______ _______ _____ _____    ______ ____
ROOT
ATOM      1  N   UNL     1       0.673  -6.347  -1.770  0.00  0.00    -0.286 N 
ATOM      2  C   UNL     1      -0.373  -5.719  -2.342  0.00  0.00    +0.304 C 
ATOM      3  O   UNL     1      -0.265  -4.563  -2.704  0.00  0.00    -0.253 OA
ATOM      4  N   UNL     1      -1.540  -6.372  -2.514  0.00  0.00    -0.273 N 
ATOM      5  C   UNL     1      -2.654  -5.745  -3.240  0.00  0.00    +0.116 C 
ATOM      6  C   UNL     1      -2.938  -6.548  -4.515  0.00  0.00    +0.074 C 
ATOM      7  C   UNL     1      -2.940  -8.016  -4.175  0.00  0.00    +0.040 A 
ATOM      8  C   UNL     1      -2.403  -8.549  -3.056  0.00  0.00    +0.062 A 
ATOM      9  N   UNL     1      -2.588  -9.870  -3.096  0.00  0.00    -0.348 N 
ATOM     10  C   UNL     1      -3.223 -10.181  -4.196  0.00  0.00    +0.171 A 
ATOM     11  N   UNL     1      -3.461  -9.047  -4.896  0.00  0.00    -0.349 N 
ATOM     12  H   UNL     1      -3.917  -8.982  -5.750  0.00  0.00    +0.166 HD
ATOM     13  C   UNL     1      -1.726  -7.735  -1.984  0.00  0.00    +0.159 C 
ATOM     14  H   UNL     1       0.565  -7.243  -1.414  0.00  0.00    +0.151 HD
ATOM     15  H   UNL     1      -2.297 -10.499  -2.417  0.00  0.00    +0.167 HD
ENDROOT
BRANCH  13  16
ATOM     16  C   UNL     1      -2.595  -7.692  -0.754  0.00  0.00    +0.017 A 
ATOM     17  C   UNL     1      -3.922  -8.073  -0.831  0.00  0.00    +0.047 A 
ATOM     18  C   UNL     1      -4.720  -8.034   0.299  0.00  0.00    +0.124 A 
ATOM     19  C   UNL     1      -4.190  -7.614   1.507  0.00  0.00    +0.041 A 
ATOM     20  C   UNL     1      -2.864  -7.233   1.584  0.00  0.00    +0.041 A 
ATOM     21  C   UNL     1      -2.064  -7.277   0.455  0.00  0.00    +0.129 A 
ATOM     22  F   UNL     1      -0.766  -6.909   0.531  0.00  0.00    -0.205 F 
ATOM     23  F   UNL     1      -6.016  -8.407   0.224  0.00  0.00    -0.205 F 
ENDBRANCH  13  16
BRANCH   1  24
ATOM     24  C   UNL     1       1.973  -5.677  -1.685  0.00  0.00    +0.184 C 
BRANCH  24  25
ATOM     25  C   UNL     1       2.009  -4.805  -0.457  0.00  0.00    +0.327 C 
ATOM     26  O   UNL     1       1.048  -4.749   0.273  0.00  0.00    -0.249 OA
BRANCH  25  27
ATOM     27  O   UNL     1       3.110  -4.090  -0.174  0.00  0.00    -0.467 OA
ATOM     28  C   UNL     1       3.075  -3.285   1.007  0.00  0.00    +0.280 C 
ENDBRANCH  25  27
ENDBRANCH  24  25
BRANCH  24  29
ATOM     29  C   UNL     1       3.083  -6.726  -1.599  0.00  0.00    +0.045 C 
BRANCH  29  30
ATOM     30  C   UNL     1       3.127  -7.530  -2.900  0.00  0.00    +0.123 C 
BRANCH  30  31
ATOM     31  C   UNL     1       4.220  -8.564  -2.815  0.00  0.00    +0.307 C 
ATOM     32  O   UNL     1       4.896  -8.648  -1.817  0.00  0.00    -0.251 OA
BRANCH  31  34
ATOM     33  C   UNL     1       5.496 -10.345  -3.700  0.00  0.00    +0.280 C 
ATOM     34  O   UNL     1       4.444  -9.390  -3.849  0.00  0.00    -0.468 OA
ENDBRANCH  31  34
ENDBRANCH  30  31
ENDBRANCH  29  30
ENDBRANCH  24  29
ENDBRANCH   1  24
TORSDOF 8
