REMARK  Name = ZINC54311856
REMARK  11 active torsions:
REMARK  status: ('A' for Active; 'I' for Inactive)
REMARK    1  A    between atoms: C_1  and  C_2
REMARK    2  A    between atoms: C_2  and  C_3
REMARK    3  A    between atoms: C_3  and  C_5
REMARK    4  A    between atoms: C_3  and  C_6
REMARK    5  A    between atoms: C_6  and  C_8
REMARK    6  A    between atoms: C_6  and  N_25
REMARK    7  A    between atoms: N_10  and  C_11
REMARK    8  A    between atoms: C_11  and  C_12
REMARK    9  A    between atoms: C_12  and  S_13
REMARK   10  A    between atoms: S_13  and  C_14
REMARK   11  A    between atoms: C_14  and  C_15
REMARK                            x       y       z     vdW  Elec       q    Type
REMARK                         _______ _______ _______ _____ _____    ______ ____
ROOT
ATOM      1  C   UNL     1       1.212  -2.504   2.760  0.00  0.00    +0.234 C 
ATOM      2  O   UNL     1       2.328  -2.780   3.145  0.00  0.00    -0.274 OA
ATOM      3  N   UNL     1       0.165  -2.601   3.603  0.00  0.00    -0.313 N 
ATOM      4  H   UNL     1      -0.728  -2.381   3.295  0.00  0.00    +0.149 HD
ENDROOT
BRANCH   1   5
ATOM      5  C   UNL     1       0.995  -2.054   1.338  0.00  0.00    +0.163 C 
BRANCH   5   6
ATOM      6  N   UNL     1       2.131  -2.473   0.514  0.00  0.00    -0.288 N 
ATOM      7  C   UNL     1       2.156  -3.710  -0.021  0.00  0.00    +0.298 C 
ATOM      8  O   UNL     1       1.282  -4.509   0.255  0.00  0.00    -0.253 OA
ATOM      9  N   UNL     1       3.149  -4.061  -0.861  0.00  0.00    -0.313 N 
ATOM     10  H   UNL     1       2.866  -1.861   0.353  0.00  0.00    +0.151 HD
ATOM     11  H   UNL     1       3.846  -3.424  -1.081  0.00  0.00    +0.146 HD
ATOM     12  H   UNL     1       3.167  -4.952  -1.246  0.00  0.00    +0.146 HD
ENDBRANCH   5   6
BRANCH   5  13
ATOM     13  C   UNL     1       0.871  -0.530   1.299  0.00  0.00    +0.015 C 
ATOM     14  C   UNL     1       2.163   0.100   1.822  0.00  0.00    +0.010 C 
BRANCH  13  16
ATOM     15  C   UNL     1       0.382   1.435  -0.165  0.00  0.00    +0.004 C 
ATOM     16  C   UNL     1       0.629  -0.074  -0.142  0.00  0.00    +0.002 C 
ENDBRANCH  13  16
ENDBRANCH   5  13
ENDBRANCH   1   5
BRANCH   3  17
ATOM     17  C   UNL     1       0.376  -3.038   4.985  0.00  0.00    +0.115 C 
BRANCH  17  18
ATOM     18  C   UNL     1      -0.964  -3.062   5.723  0.00  0.00    +0.088 C 
BRANCH  18  19
ATOM     19  S   UNL     1      -0.703  -3.603   7.434  0.00  0.00    -0.155 S 
BRANCH  19  20
ATOM     20  C   UNL     1      -2.365  -3.577   8.162  0.00  0.00    +0.104 C 
BRANCH  20  21
ATOM     21  C   UNL     1      -2.289  -4.012   9.602  0.00  0.00    -0.030 A 
ATOM     22  C   UNL     1      -2.412  -5.328   9.927  0.00  0.00    +0.005 A 
ATOM     23  C   UNL     1      -2.345  -5.750  11.253  0.00  0.00    +0.001 A 
ATOM     24  C   UNL     1      -2.156  -4.857  12.264  0.00  0.00    +0.008 A 
ATOM     25  C   UNL     1      -2.025  -3.490  11.967  0.00  0.00    -0.018 A 
ATOM     26  C   UNL     1      -2.087  -3.062  10.617  0.00  0.00    -0.014 A 
ATOM     27  C   UNL     1      -1.950  -1.695  10.321  0.00  0.00    +0.009 A 
ATOM     28  C   UNL     1      -1.756  -0.803  11.331  0.00  0.00    +0.001 A 
ATOM     29  C   UNL     1      -1.688  -1.224  12.657  0.00  0.00    +0.001 A 
ATOM     30  C   UNL     1      -1.829  -2.538  12.983  0.00  0.00    +0.008 A 
ENDBRANCH  20  21
ENDBRANCH  19  20
ENDBRANCH  18  19
ENDBRANCH  17  18
ENDBRANCH   3  17
TORSDOF 9
