REMARK  Name = ZINC39796078
REMARK  10 active torsions:
REMARK  status: ('A' for Active; 'I' for Inactive)
REMARK    1  A    between atoms: C_1  and  C_2
REMARK    2  A    between atoms: C_2  and  C_4
REMARK    3  A    between atoms: C_2  and  S_14
REMARK    4  A    between atoms: N_9  and  C_10
REMARK    5  A    between atoms: C_10  and  C_11
REMARK    6  A    between atoms: C_10  and  C_12
REMARK    7  A    between atoms: C_10  and  C_13
REMARK    8  A    between atoms: S_14  and  C_15
REMARK    9  A    between atoms: C_19  and  C_24
REMARK   10  A    between atoms: N_20  and  C_21
REMARK                            x       y       z     vdW  Elec       q    Type
REMARK                         _______ _______ _______ _____ _____    ______ ____
ROOT
ATOM      1  C   UNL     1       2.516  -0.044   1.192  0.00  0.00    +0.238 C 
ATOM      2  N   UNL     1       2.388   1.404   0.959  0.00  0.00    -0.237 N 
ATOM      3  N   UNL     1       3.082   1.679  -0.226  0.00  0.00    -0.169 NA
ATOM      4  C   UNL     1       3.606   0.594  -0.731  0.00  0.00    +0.147 C 
ATOM      5  N   UNL     1       3.323  -0.526   0.059  0.00  0.00    -0.282 N 
ATOM      6  H   UNL     1       1.915   2.042   1.516  0.00  0.00    +0.171 HD
ENDROOT
BRANCH   4   7
ATOM      7  C   UNL     1       4.359   0.556  -1.915  0.00  0.00    +0.022 C 
ATOM      8  C   UNL     1       4.761   1.642  -2.694  0.00  0.00    +0.006 A 
ATOM      9  C   UNL     1       4.564   3.033  -2.564  0.00  0.00    +0.010 A 
ATOM     10  C   UNL     1       5.082   3.877  -3.493  0.00  0.00    +0.001 A 
ATOM     11  C   UNL     1       5.812   3.402  -4.585  0.00  0.00    +0.002 A 
ATOM     12  C   UNL     1       6.040   2.079  -4.772  0.00  0.00    +0.026 A 
ATOM     13  C   UNL     1       5.530   1.137  -3.843  0.00  0.00    +0.043 A 
ATOM     14  N   UNL     1       5.612  -0.179  -3.800  0.00  0.00    -0.380 N 
ATOM     15  C   UNL     1       4.909  -0.669  -2.611  0.00  0.00    +0.152 C 
ATOM     16  H   UNL     1       6.070  -0.734  -4.450  0.00  0.00    +0.160 HD
ENDBRANCH   4   7
BRANCH   5  17
ATOM     17  C   UNL     1       3.745  -1.907  -0.190  0.00  0.00    +0.078 C 
ATOM     18  C   UNL     1       3.240  -2.985   0.771  0.00  0.00    +0.024 C 
ATOM     19  C   UNL     1       4.705  -2.545   0.817  0.00  0.00    +0.024 C 
ENDBRANCH   5  17
BRANCH   1  20
ATOM     20  S   UNL     1       0.883  -0.834   1.189  0.00  0.00    -0.106 S 
BRANCH  20  22
ATOM     21  C   UNL     1      -0.027   1.120  -0.495  0.00  0.00    +0.029 C 
ATOM     22  C   UNL     1       0.185  -0.394  -0.426  0.00  0.00    +0.133 C 
BRANCH  22  23
ATOM     23  C   UNL     1      -1.136  -1.095  -0.610  0.00  0.00    +0.233 C 
ATOM     24  O   UNL     1      -1.783  -1.433   0.358  0.00  0.00    -0.274 OA
ATOM     25  N   UNL     1      -1.598  -1.346  -1.851  0.00  0.00    -0.239 N 
ATOM     26  C   UNL     1      -2.780  -1.973  -2.016  0.00  0.00    +0.306 C 
ATOM     27  O   UNL     1      -3.428  -2.312  -1.046  0.00  0.00    -0.252 OA
ATOM     28  N   UNL     1      -3.242  -2.224  -3.257  0.00  0.00    -0.294 N 
ATOM     29  H   UNL     1      -1.081  -1.075  -2.626  0.00  0.00    +0.159 HD
ATOM     30  H   UNL     1      -2.724  -1.954  -4.031  0.00  0.00    +0.151 HD
BRANCH  28  31
ATOM     31  C   UNL     1      -4.526  -2.906  -3.436  0.00  0.00    +0.028 C 
ATOM     32  C   UNL     1      -5.638  -2.079  -2.788  0.00  0.00    +0.031 C 
ATOM     33  C   UNL     1      -4.815  -3.067  -4.930  0.00  0.00    +0.031 C 
ATOM     34  C   UNL     1      -4.468  -4.286  -2.777  0.00  0.00    +0.031 C 
ENDBRANCH  28  31
ENDBRANCH  22  23
ENDBRANCH  20  22
ENDBRANCH   1  20
TORSDOF 6
