REMARK  Name = ZINC61882322
REMARK  6 active torsions:
REMARK  status: ('A' for Active; 'I' for Inactive)
REMARK    1  A    between atoms: C_1  and  C_2
REMARK    2  A    between atoms: C_2  and  C_4
REMARK    3  A    between atoms: C_2  and  N_10
REMARK    4  A    between atoms: N_10  and  S_11
REMARK    5  A    between atoms: S_11  and  C_14
REMARK    6  A    between atoms: C_18  and  N_21
REMARK                            x       y       z     vdW  Elec       q    Type
REMARK                         _______ _______ _______ _____ _____    ______ ____
ROOT
ATOM      1  S   UNL     1      -2.163  -0.790  -1.416  0.00  0.00    +0.060 S 
ATOM      2  O   UNL     1      -3.524  -1.138  -1.201  0.00  0.00    -0.153 OA
ATOM      3  O   UNL     1      -1.778   0.344  -2.180  0.00  0.00    -0.153 OA
ENDROOT
BRANCH   1   4
ATOM      4  C   UNL     1      -1.399  -2.188  -2.170  0.00  0.00    +0.122 A 
ATOM      5  C   UNL     1      -0.638  -2.026  -3.313  0.00  0.00    +0.049 A 
ATOM      6  C   UNL     1      -0.036  -3.121  -3.908  0.00  0.00    +0.045 A 
ATOM      7  C   UNL     1      -0.194  -4.380  -3.360  0.00  0.00    +0.044 A 
ATOM      8  C   UNL     1      -0.958  -4.546  -2.212  0.00  0.00    +0.042 A 
ATOM      9  C   UNL     1      -1.556  -3.443  -1.615  0.00  0.00    +0.065 A 
ATOM     10 BR   UNL     1      -2.591  -3.662  -0.047  0.00  0.00    -0.046 Br
ATOM     11 CL   UNL     1       0.917  -2.912  -5.343  0.00  0.00    -0.083 Cl
BRANCH   8  12
ATOM     12  N   UNL     1      -1.120  -5.817  -1.657  0.00  0.00    -0.357 N 
ATOM     13  H   UNL     1      -0.699  -6.586  -2.073  0.00  0.00    +0.142 HD
ATOM     14  H   UNL     1      -1.653  -5.932  -0.855  0.00  0.00    +0.142 HD
ENDBRANCH   8  12
ENDBRANCH   1   4
BRANCH   1  15
ATOM     15  N   UNL     1      -1.479  -0.607   0.081  0.00  0.00    -0.182 NA
ATOM     16  H   UNL     1      -2.020  -0.718   0.879  0.00  0.00    +0.149 HD
BRANCH  15  18
ATOM     17  C   UNL     1       0.103   1.238   0.360  0.00  0.00    +0.031 C 
ATOM     18  C   UNL     1      -0.057  -0.276   0.202  0.00  0.00    +0.110 C 
BRANCH  18  19
ATOM     19  C   UNL     1       0.520  -0.970   1.408  0.00  0.00    +0.009 A 
ATOM     20  C   UNL     1       1.727  -1.569   1.551  0.00  0.00    +0.014 A 
ATOM     21  C   UNL     1       2.048  -2.150   2.764  0.00  0.00    +0.028 A 
ATOM     22  C   UNL     1       1.145  -2.103   3.775  0.00  0.00    +0.078 A 
ATOM     23  S   UNL     1      -0.206  -1.211   3.021  0.00  0.00    -0.080 S 
ATOM     24 CL   UNL     1       1.271  -2.739   5.385  0.00  0.00    -0.076 Cl
ENDBRANCH  18  19
ENDBRANCH  15  18
ENDBRANCH   1  15
TORSDOF 5
