REMARK  Name = ZINC09341489
REMARK  5 active torsions:
REMARK  status: ('A' for Active; 'I' for Inactive)
REMARK    1  A    between atoms: C_3  and  O_12
REMARK    2  A    between atoms: O_12  and  C_13
REMARK    3  A    between atoms: C_13  and  C_14
REMARK    4  A    between atoms: C_19  and  C_22
REMARK    5  A    between atoms: C_19  and  O_29
REMARK                            x       y       z     vdW  Elec       q    Type
REMARK                         _______ _______ _______ _____ _____    ______ ____
ROOT
ATOM      1  C   UNL     1      -0.078   2.261  -2.138  0.00  0.00    +0.253 C 
ATOM      2  O   UNL     1       1.110   2.480  -2.029  0.00  0.00    -0.272 OA
ATOM      3  N   UNL     1      -0.729   1.575  -1.178  0.00  0.00    -0.298 N 
ATOM      4  C   UNL     1      -0.013   1.086   0.008  0.00  0.00    +0.111 C 
ATOM      5  C   UNL     1      -0.736   1.583   1.264  0.00  0.00    +0.058 C 
ATOM      6  C   UNL     1      -2.208   1.161   1.197  0.00  0.00    +0.094 C 
ATOM      7  C   UNL     1      -2.869   1.797  -0.028  0.00  0.00    +0.058 C 
ATOM      8  C   UNL     1      -2.168   1.303  -1.297  0.00  0.00    +0.111 C 
ENDROOT
BRANCH   6   9
ATOM      9  C   UNL     1      -2.918   1.619   2.445  0.00  0.00    -0.016 A 
ATOM     10  C   UNL     1      -3.513   2.866   2.484  0.00  0.00    +0.008 A 
ATOM     11  C   UNL     1      -4.168   3.284   3.626  0.00  0.00    +0.020 A 
ATOM     12  C   UNL     1      -4.219   2.459   4.735  0.00  0.00    +0.041 A 
ATOM     13  C   UNL     1      -3.619   1.213   4.698  0.00  0.00    +0.020 A 
ATOM     14  C   UNL     1      -2.969   0.794   3.553  0.00  0.00    +0.008 A 
ATOM     15 CL   UNL     1      -5.037   2.986   6.173  0.00  0.00    -0.084 Cl
ENDBRANCH   6   9
BRANCH   6  16
ATOM     16  O   UNL     1      -2.291  -0.262   1.097  0.00  0.00    -0.384 OA
ATOM     17  H   UNL     1      -1.891  -0.733   1.841  0.00  0.00    +0.211 HD
ENDBRANCH   6  16
BRANCH   1  18
ATOM     18  C   UNL     1      -0.827   2.757  -3.349  0.00  0.00    +0.324 C 
BRANCH  18  19
ATOM     19  O   UNL     1       0.074   3.449  -4.215  0.00  0.00    -0.483 OA
BRANCH  19  22
ATOM     20  C   UNL     1      -2.335   4.309  -6.786  0.00  0.00    +0.015 A 
ATOM     21  C   UNL     1      -1.798   3.794  -5.642  0.00  0.00    +0.046 A 
ATOM     22  C   UNL     1      -0.444   3.963  -5.360  0.00  0.00    +0.125 A 
ATOM     23  C   UNL     1       0.379   4.645  -6.241  0.00  0.00    +0.092 A 
ATOM     24  C   UNL     1      -0.149   5.170  -7.411  0.00  0.00    +0.143 A 
ATOM     25  C   UNL     1      -1.519   5.001  -7.688  0.00  0.00    +0.018 A 
ATOM     26  C   UNL     1      -2.067   5.559  -8.926  0.00  0.00    +0.018 A 
ATOM     27  C   UNL     1      -1.223   6.221  -9.760  0.00  0.00    +0.092 A 
ATOM     28  C   UNL     1       0.139   6.352  -9.420  0.00  0.00    +0.337 A 
ATOM     29  O   UNL     1       0.885   6.948 -10.177  0.00  0.00    -0.245 OA
ATOM     30  O   UNL     1       0.635   5.839  -8.283  0.00  0.00    -0.422 OA
ENDBRANCH  19  22
ENDBRANCH  18  19
ENDBRANCH   1  18
TORSDOF 5
