REMARK  Name = ZINC08818222
REMARK  9 active torsions:
REMARK  status: ('A' for Active; 'I' for Inactive)
REMARK    1  A    between atoms: C_1  and  C_2
REMARK    2  A    between atoms: C_2  and  C_27
REMARK    3  A    between atoms: N_3  and  N_4
REMARK    4  A    between atoms: C_5  and  C_7
REMARK    5  A    between atoms: C_7  and  S_8
REMARK    6  A    between atoms: S_8  and  C_9
REMARK    7  A    between atoms: C_12  and  C_21
REMARK    8  A    between atoms: N_13  and  C_14
REMARK    9  A    between atoms: C_30  and  N_33
REMARK                            x       y       z     vdW  Elec       q    Type
REMARK                         _______ _______ _______ _____ _____    ______ ____
ROOT
ATOM      1  S   UNL     1      -3.874   2.010   0.031  0.00  0.00    -0.076 S 
ENDROOT
BRANCH   1   2
ATOM      2  C   UNL     1      -5.218   0.872   0.032  0.00  0.00    +0.197 A 
ATOM      3  N   UNL     1      -5.130  -0.440   0.024  0.00  0.00    -0.122 NA
ATOM      4  N   UNL     1      -6.304  -0.962   0.028  0.00  0.00    -0.128 NA
ATOM      5  C   UNL     1      -7.216  -0.018   0.037  0.00  0.00    +0.169 A 
ATOM      6  N   UNL     1      -6.549   1.187   0.045  0.00  0.00    -0.270 N 
BRANCH   6   7
ATOM      7  C   UNL     1      -7.116   2.470   0.061  0.00  0.00    +0.051 A 
ATOM      8  C   UNL     1      -7.857   2.888   1.158  0.00  0.00    +0.028 A 
ATOM      9  C   UNL     1      -8.410   4.154   1.175  0.00  0.00    +0.022 A 
ATOM     10  C   UNL     1      -8.235   5.001   0.094  0.00  0.00    +0.041 A 
ATOM     11  C   UNL     1      -7.501   4.584  -1.003  0.00  0.00    +0.022 A 
ATOM     12  C   UNL     1      -6.942   3.321  -1.021  0.00  0.00    +0.028 A 
ATOM     13 CL   UNL     1      -8.937   6.588   0.114  0.00  0.00    -0.084 Cl
ENDBRANCH   6   7
BRANCH   5  14
ATOM     14  C   UNL     1      -8.681  -0.212   0.043  0.00  0.00    +0.020 A 
ATOM     15  C   UNL     1      -9.531   0.855  -0.254  0.00  0.00    +0.011 A 
ATOM     16  C   UNL     1     -10.898   0.666  -0.250  0.00  0.00    +0.001 A 
ATOM     17  C   UNL     1     -11.427  -0.575   0.057  0.00  0.00    +0.000 A 
ATOM     18  C   UNL     1     -10.591  -1.635   0.357  0.00  0.00    +0.001 A 
ATOM     19  C   UNL     1      -9.222  -1.461   0.352  0.00  0.00    +0.011 A 
ENDBRANCH   5  14
ENDBRANCH   1   2
BRANCH   1  20
ATOM     20  C   UNL     1      -2.482   0.853   0.018  0.00  0.00    +0.174 C 
BRANCH  20  22
ATOM     21  N   UNL     1      -0.011   0.966   0.007  0.00  0.00    -0.206 N 
ATOM     22  C   UNL     1      -1.187   1.624   0.017  0.00  0.00    +0.242 C 
ATOM     23  O   UNL     1      -1.204   2.837   0.023  0.00  0.00    -0.273 OA
ATOM     24  H   UNL     1       0.002  -0.004   0.002  0.00  0.00    +0.177 HD
BRANCH  21  27
ATOM     25  C   UNL     1       2.345  -0.458  -0.023  0.00  0.00    +0.068 C 
ATOM     26  C   UNL     1       2.325   1.049  -0.015  0.00  0.00    +0.063 C 
ATOM     27  N   UNL     1       1.193   1.683  -0.000  0.00  0.00    -0.185 NA
BRANCH  26  28
ATOM     28  C   UNL     1       3.592   1.804  -0.022  0.00  0.00    -0.002 A 
ATOM     29  C   UNL     1       4.813   1.125  -0.032  0.00  0.00    +0.012 A 
ATOM     30  C   UNL     1       5.994   1.838  -0.045  0.00  0.00    +0.033 A 
ATOM     31  C   UNL     1       5.971   3.221  -0.037  0.00  0.00    +0.126 A 
ATOM     32  C   UNL     1       4.766   3.900  -0.022  0.00  0.00    +0.033 A 
ATOM     33  C   UNL     1       3.577   3.201  -0.015  0.00  0.00    +0.012 A 
BRANCH  31  34
ATOM     34  N   UNL     1       7.243   3.979  -0.045  0.00  0.00    +0.056 N 
ATOM     35  O   UNL     1       7.227   5.197  -0.038  0.00  0.00    -0.126 OA
ATOM     36  O   UNL     1       8.306   3.384  -0.059  0.00  0.00    -0.126 OA
ENDBRANCH  31  34
ENDBRANCH  26  28
ENDBRANCH  21  27
ENDBRANCH  20  22
ENDBRANCH   1  20
TORSDOF 8
