REMARK  Name = ZINC20566901
REMARK  6 active torsions:
REMARK  status: ('A' for Active; 'I' for Inactive)
REMARK    1  A    between atoms: C_1  and  C_2
REMARK    2  A    between atoms: C_2  and  C_3
REMARK    3  A    between atoms: C_2  and  C_4
REMARK    4  A    between atoms: C_2  and  N_5
REMARK    5  A    between atoms: C_10  and  C_28
REMARK    6  A    between atoms: C_28  and  C_29
REMARK                            x       y       z     vdW  Elec       q    Type
REMARK                         _______ _______ _______ _____ _____    ______ ____
ROOT
ATOM      1  N   UNL     1       0.688  -0.476  -1.203  0.00  0.00    -0.236 N 
ATOM      2  C   UNL     1       0.096  -1.263  -2.151  0.00  0.00    +0.228 C 
ATOM      3  O   UNL     1      -1.091  -1.456  -2.305  0.00  0.00    -0.275 OA
ATOM      4  C   UNL     1       1.223  -1.840  -2.963  0.00  0.00    +0.107 C 
ATOM      5  C   UNL     1       1.092  -1.897  -4.491  0.00  0.00    +0.076 C 
ATOM      6  N   UNL     1       2.500  -1.656  -4.952  0.00  0.00    -0.295 NA
ATOM      7  C   UNL     1       3.183  -0.849  -3.894  0.00  0.00    +0.136 C 
ATOM      8  C   UNL     1       2.148  -0.559  -2.888  0.00  0.00    +0.122 C 
ATOM      9  C   UNL     1       1.992  -0.172  -1.505  0.00  0.00    +0.229 C 
ATOM     10  O   UNL     1       2.828   0.313  -0.773  0.00  0.00    -0.275 OA
ATOM     11  C   UNL     1       4.349  -1.629  -3.343  0.00  0.00    +0.005 A 
ATOM     12  C   UNL     1       4.447  -2.820  -2.658  0.00  0.00    +0.008 A 
ATOM     13  C   UNL     1       5.687  -3.295  -2.271  0.00  0.00    +0.002 A 
ATOM     14  C   UNL     1       6.827  -2.571  -2.572  0.00  0.00    +0.022 A 
ATOM     15  C   UNL     1       6.733  -1.378  -3.258  0.00  0.00    +0.062 A 
ATOM     16  C   UNL     1       5.487  -0.892  -3.653  0.00  0.00    +0.057 A 
ATOM     17  N   UNL     1       5.137   0.268  -4.346  0.00  0.00    -0.282 N 
ATOM     18  C   UNL     1       3.808   0.370  -4.529  0.00  0.00    +0.243 C 
ATOM     19  O   UNL     1       3.224   1.269  -5.096  0.00  0.00    -0.273 OA
ATOM     20 CL   UNL     1       8.170  -0.478  -3.632  0.00  0.00    -0.082 Cl
ATOM     21  H   UNL     1       2.983  -2.528  -5.109  0.00  0.00    +0.124 HD
ATOM     22  H   UNL     1       5.778   0.925  -4.659  0.00  0.00    +0.155 HD
ENDROOT
BRANCH   1  24
ATOM     23  C   UNL     1      -0.019   1.526   0.010  0.00  0.00    +0.031 C 
ATOM     24  C   UNL     1       0.002  -0.004   0.002  0.00  0.00    +0.036 C 
ATOM     25  C   UNL     1       0.742  -0.511   1.242  0.00  0.00    +0.031 C 
ATOM     26  C   UNL     1      -1.433  -0.534   0.013  0.00  0.00    +0.031 C 
ENDBRANCH   1  24
BRANCH   5  27
ATOM     27  C   UNL     1       0.597  -3.272  -4.942  0.00  0.00    +0.115 C 
BRANCH  27  28
ATOM     28  C   UNL     1       0.362  -3.258  -6.431  0.00  0.00    +0.212 C 
ATOM     29  O   UNL     1       0.570  -2.248  -7.068  0.00  0.00    -0.276 OA
ATOM     30  N   UNL     1      -0.080  -4.369  -7.054  0.00  0.00    -0.329 N 
ATOM     31  H   UNL     1      -0.246  -5.177  -6.544  0.00  0.00    +0.145 HD
ATOM     32  H   UNL     1      -0.231  -4.360  -8.012  0.00  0.00    +0.145 HD
ENDBRANCH  27  28
ENDBRANCH   5  27
TORSDOF 3
