REMARK  Name = ZINC08789611
REMARK  11 active torsions:
REMARK  status: ('A' for Active; 'I' for Inactive)
REMARK    1  A    between atoms: C_1  and  C_2
REMARK    2  A    between atoms: C_2  and  C_4
REMARK    3  A    between atoms: C_2  and  C_34
REMARK    4  A    between atoms: C_4  and  N_5
REMARK    5  A    between atoms: C_6  and  C_8
REMARK    6  A    between atoms: C_8  and  C_10
REMARK    7  A    between atoms: C_8  and  N_14
REMARK    8  A    between atoms: C_10  and  C_11
REMARK    9  A    between atoms: C_11  and  C_12
REMARK   10  A    between atoms: C_11  and  C_13
REMARK   11  A    between atoms: C_17  and  C_33
REMARK                            x       y       z     vdW  Elec       q    Type
REMARK                         _______ _______ _______ _____ _____    ______ ____
ROOT
ATOM      1  N   UNL     1       5.152  -0.508   3.277  0.00  0.00    -0.212 N 
ATOM      2  C   UNL     1       5.772   0.293   4.171  0.00  0.00    +0.253 C 
ATOM      3  O   UNL     1       5.901   1.497   4.113  0.00  0.00    -0.272 OA
ATOM      4  C   UNL     1       6.273  -0.628   5.258  0.00  0.00    +0.153 C 
ATOM      5  C   UNL     1       7.767  -0.513   5.440  0.00  0.00    +0.053 A 
ATOM      6  H   UNL     1       8.095   1.514   5.793  0.00  0.00    +0.166 HD
ATOM      7  C   UNL     1       8.601  -1.575   5.361  0.00  0.00    -0.015 A 
ATOM      8  C   UNL     1       9.940  -1.068   5.608  0.00  0.00    +0.003 A 
ATOM      9  C   UNL     1      11.189  -1.693   5.663  0.00  0.00    +0.010 A 
ATOM     10  C   UNL     1      12.272  -0.890   5.923  0.00  0.00    +0.001 A 
ATOM     11  C   UNL     1      12.146   0.474   6.122  0.00  0.00    +0.002 A 
ATOM     12  C   UNL     1      10.921   1.118   6.074  0.00  0.00    +0.026 A 
ATOM     13  C   UNL     1       9.804   0.328   5.813  0.00  0.00    +0.047 A 
ATOM     14  N   UNL     1       8.477   0.627   5.701  0.00  0.00    -0.356 N 
ATOM     15  C   UNL     1       8.210  -2.998   5.054  0.00  0.00    +0.056 C 
ATOM     16  C   UNL     1       6.691  -3.178   5.204  0.00  0.00    +0.115 C 
ATOM     17  N   UNL     1       6.047  -1.973   4.678  0.00  0.00    -0.266 N 
ATOM     18  C   UNL     1       5.259  -1.803   3.615  0.00  0.00    +0.313 C 
ATOM     19  O   UNL     1       4.709  -2.710   3.022  0.00  0.00    -0.252 OA
ATOM     20  C   UNL     1       5.511  -0.431   6.570  0.00  0.00    +0.048 C 
ENDROOT
BRANCH   1  21
ATOM     21  C   UNL     1       4.443  -0.023   2.090  0.00  0.00    +0.171 C 
BRANCH  21  23
ATOM     22  N   UNL     1       2.148  -0.104   1.172  0.00  0.00    -0.313 N 
ATOM     23  C   UNL     1       2.997  -0.441   2.162  0.00  0.00    +0.234 C 
ATOM     24  O   UNL     1       2.598  -1.082   3.111  0.00  0.00    -0.274 OA
ATOM     25  H   UNL     1       2.467   0.409   0.412  0.00  0.00    +0.149 HD
BRANCH  22  26
ATOM     26  C   UNL     1       0.742  -0.511   1.242  0.00  0.00    +0.112 C 
BRANCH  26  28
ATOM     27  C   UNL     1      -0.019   1.526   0.010  0.00  0.00    +0.014 C 
ATOM     28  C   UNL     1       0.002  -0.004   0.002  0.00  0.00    +0.033 C 
BRANCH  28  29
ATOM     29  C   UNL     1      -1.412  -0.526   0.013  0.00  0.00    -0.043 A 
ATOM     30  C   UNL     1      -2.259  -0.204   1.056  0.00  0.00    +0.004 A 
ATOM     31  C   UNL     1      -3.556  -0.683   1.066  0.00  0.00    +0.000 A 
ATOM     32  C   UNL     1      -4.006  -1.482   0.032  0.00  0.00    +0.000 A 
ATOM     33  C   UNL     1      -3.159  -1.803  -1.012  0.00  0.00    +0.000 A 
ATOM     34  C   UNL     1      -1.863  -1.321  -1.024  0.00  0.00    +0.004 A 
ENDBRANCH  28  29
ENDBRANCH  26  28
ENDBRANCH  22  26
ENDBRANCH  21  23
BRANCH  21  35
ATOM     35  C   UNL     1       5.084  -0.617   0.835  0.00  0.00    +0.035 C 
BRANCH  35  36
ATOM     36  C   UNL     1       6.514  -0.092   0.695  0.00  0.00    -0.015 C 
ATOM     37  C   UNL     1       7.197  -0.781  -0.488  0.00  0.00    +0.007 C 
ATOM     38  C   UNL     1       6.482   1.419   0.456  0.00  0.00    +0.007 C 
ENDBRANCH  35  36
ENDBRANCH  21  35
ENDBRANCH   1  21
TORSDOF 7
