REMARK  Name = ZINC35671207
REMARK  8 active torsions:
REMARK  status: ('A' for Active; 'I' for Inactive)
REMARK    1  A    between atoms: C_1  and  C_2
REMARK    2  A    between atoms: C_2  and  C_3
REMARK    3  A    between atoms: C_3  and  C_4
REMARK    4  A    between atoms: C_3  and  C_6
REMARK    5  A    between atoms: C_4  and  C_5
REMARK    6  A    between atoms: C_11  and  C_26
REMARK    7  A    between atoms: C_12  and  C_14
REMARK    8  A    between atoms: C_16  and  C_19
REMARK                            x       y       z     vdW  Elec       q    Type
REMARK                         _______ _______ _______ _____ _____    ______ ____
ROOT
ATOM      1  C   UNL     1      -1.463  -2.009   0.428  0.00  0.00    +0.222 C 
ATOM      2  O   UNL     1      -2.051  -2.759  -0.322  0.00  0.00    -0.275 OA
ATOM      3  N   UNL     1      -0.841  -2.498   1.519  0.00  0.00    -0.264 N 
ATOM      4  C   UNL     1      -0.873  -3.858   1.783  0.00  0.00    +0.165 A 
ATOM      5  N   UNL     1      -1.454  -4.814   1.083  0.00  0.00    -0.229 NA
ATOM      6  C   UNL     1      -1.399  -6.068   1.463  0.00  0.00    +0.060 A 
ATOM      7  C   UNL     1      -0.707  -6.332   2.623  0.00  0.00    +0.101 A 
ATOM      8  S   UNL     1      -0.176  -4.687   3.071  0.00  0.00    -0.047 S 
ATOM      9  C   UNL     1      -2.059  -7.165   0.668  0.00  0.00    +0.067 C 
ATOM     10  H   UNL     1      -0.370  -1.899   2.118  0.00  0.00    +0.157 HD
ENDROOT
BRANCH   7  11
ATOM     11  C   UNL     1      -0.469  -7.610   3.301  0.00  0.00    +0.267 A 
ATOM     12  N   UNL     1       0.204  -7.778   4.421  0.00  0.00    -0.187 NA
ATOM     13  C   UNL     1       0.223  -9.078   4.751  0.00  0.00    +0.202 A 
ATOM     14  N   UNL     1      -0.439  -9.757   3.845  0.00  0.00    -0.056 NA
ATOM     15  O   UNL     1      -0.906  -8.816   2.890  0.00  0.00    -0.332 OA
BRANCH  13  16
ATOM     16  C   UNL     1       0.886  -9.654   5.947  0.00  0.00    +0.023 A 
ATOM     17  C   UNL     1       1.557  -8.823   6.843  0.00  0.00    +0.014 A 
ATOM     18  C   UNL     1       2.172  -9.363   7.954  0.00  0.00    +0.039 A 
ATOM     19  C   UNL     1       2.123 -10.729   8.180  0.00  0.00    +0.123 A 
ATOM     20  C   UNL     1       1.456 -11.559   7.292  0.00  0.00    +0.039 A 
ATOM     21  C   UNL     1       0.835 -11.026   6.182  0.00  0.00    +0.014 A 
ATOM     22  F   UNL     1       2.727 -11.254   9.269  0.00  0.00    -0.205 F 
ENDBRANCH  13  16
ENDBRANCH   7  11
BRANCH   1  23
ATOM     23  C   UNL     1      -1.427  -0.530   0.140  0.00  0.00    +0.075 C 
BRANCH  23  25
ATOM     24  C   UNL     1       0.071   1.444  -0.178  0.00  0.00    +0.004 C 
ATOM     25  C   UNL     1       0.025  -0.078  -0.029  0.00  0.00    +0.009 C 
ENDBRANCH  23  25
BRANCH  23  26
ATOM     26  C   UNL     1      -2.204  -0.242  -1.147  0.00  0.00    +0.009 C 
ATOM     27  C   UNL     1      -3.688  -0.543  -0.925  0.00  0.00    +0.004 C 
ENDBRANCH  23  26
ENDBRANCH   1  23
TORSDOF 5
