REMARK  Name = ZINC39440842
REMARK  6 active torsions:
REMARK  status: ('A' for Active; 'I' for Inactive)
REMARK    1  A    between atoms: C_1  and  C_2
REMARK    2  A    between atoms: C_4  and  C_15
REMARK    3  A    between atoms: C_5  and  C_14
REMARK    4  A    between atoms: N_7  and  C_8
REMARK    5  A    between atoms: N_22  and  C_23
REMARK    6  A    between atoms: C_23  and  C_24
REMARK                            x       y       z     vdW  Elec       q    Type
REMARK                         _______ _______ _______ _____ _____    ______ ____
ROOT
ATOM      1  C   UNL     1      -2.565  -0.326  -0.748  0.00  0.00    +0.050 C 
ATOM      2  C   UNL     1      -2.335  -1.072  -2.032  0.00  0.00    +0.204 C 
ATOM      3  O   UNL     1      -1.876  -2.193  -1.979  0.00  0.00    -0.277 OA
ATOM      4  N   UNL     1      -2.616  -0.549  -3.231  0.00  0.00    -0.318 N 
ATOM      5  C   UNL     1      -3.146   0.802  -3.396  0.00  0.00    +0.085 C 
ATOM      6  C   UNL     1      -3.714   1.304  -2.067  0.00  0.00    -0.058 C 
ATOM      7  N   UNL     1      -2.701   1.110  -1.018  0.00  0.00    +0.396 N 
ATOM      8  H   UNL     1      -2.462  -1.089  -4.022  0.00  0.00    +0.149 HD
ATOM      9  H   UNL     1      -1.815   1.481  -1.329  0.00  0.00    -0.080 HD
ENDROOT
BRANCH   1  12
ATOM     10  C   UNL     1       0.169   1.342  -0.273  0.00  0.00    +0.034 C 
ATOM     11  C   UNL     1       0.042  -0.172  -0.090  0.00  0.00    +0.117 C 
ATOM     12  C   UNL     1      -1.397  -0.552   0.177  0.00  0.00    -0.035 C 
ATOM     13  C   UNL     1      -1.443  -1.117   1.365  0.00  0.00    +0.019 C 
ATOM     14  N   UNL     1      -0.197  -1.173   1.958  0.00  0.00    -0.268 N 
ATOM     15  N   UNL     1       0.772  -0.607   1.113  0.00  0.00    -0.247 N 
ATOM     16  C   UNL     1      -2.705  -1.638   2.003  0.00  0.00    +0.062 C 
ATOM     17  H   UNL     1      -0.015  -1.550   2.833  0.00  0.00    +0.170 HD
BRANCH  15  18
ATOM     18  C   UNL     1       2.141  -0.483   1.359  0.00  0.00    +0.048 A 
ATOM     19  C   UNL     1       2.968   0.111   0.414  0.00  0.00    +0.025 A 
ATOM     20  C   UNL     1       4.321   0.233   0.661  0.00  0.00    +0.002 A 
ATOM     21  C   UNL     1       4.854  -0.236   1.848  0.00  0.00    +0.000 A 
ATOM     22  C   UNL     1       4.034  -0.828   2.791  0.00  0.00    +0.002 A 
ATOM     23  C   UNL     1       2.679  -0.947   2.553  0.00  0.00    +0.025 A 
ENDBRANCH  15  18
ENDBRANCH   1  12
BRANCH   7  24
ATOM     24  C   UNL     1      -3.125   1.803   0.206  0.00  0.00    -0.002 C 
BRANCH  24  25
ATOM     25  C   UNL     1      -3.145   3.290  -0.040  0.00  0.00    +0.094 A 
ATOM     26  N   UNL     1      -3.509   4.107   0.982  0.00  0.00    -0.312 N 
ATOM     27  H   UNL     1      -3.746   3.725   1.842  0.00  0.00    +0.170 HD
ATOM     28  C   UNL     1      -3.544   5.450   0.813  0.00  0.00    +0.259 A 
ATOM     29  O   UNL     1      -3.868   6.193   1.720  0.00  0.00    -0.267 OA
ATOM     30  C   UNL     1      -3.174   5.975  -0.510  0.00  0.00    +0.065 A 
ATOM     31  C   UNL     1      -3.177   7.340  -0.788  0.00  0.00    +0.017 A 
ATOM     32  C   UNL     1      -2.823   7.778  -2.045  0.00  0.00    +0.021 A 
ATOM     33  C   UNL     1      -2.463   6.870  -3.034  0.00  0.00    +0.043 A 
ATOM     34  C   UNL     1      -2.454   5.515  -2.779  0.00  0.00    +0.048 A 
ATOM     35  C   UNL     1      -2.809   5.048  -1.513  0.00  0.00    +0.079 A 
ATOM     36  N   UNL     1      -2.809   3.724  -1.217  0.00  0.00    -0.236 NA
ATOM     37 CL   UNL     1      -2.021   7.449  -4.610  0.00  0.00    -0.083 Cl
ENDBRANCH  24  25
ENDBRANCH   7  24
TORSDOF 4
