REMARK  Name = ZINC07459434
REMARK  8 active torsions:
REMARK  status: ('A' for Active; 'I' for Inactive)
REMARK    1  A    between atoms: C_1  and  C_2
REMARK    2  A    between atoms: C_2  and  N_3
REMARK    3  A    between atoms: C_5  and  C_12
REMARK    4  A    between atoms: C_12  and  C_14
REMARK    5  A    between atoms: C_14  and  S_15
REMARK    6  A    between atoms: S_15  and  C_16
REMARK    7  A    between atoms: C_19  and  C_22
REMARK    8  A    between atoms: N_20  and  C_21
REMARK                            x       y       z     vdW  Elec       q    Type
REMARK                         _______ _______ _______ _____ _____    ______ ____
ROOT
ATOM      1  C   UNL     1      -5.521   2.689  -0.686  0.00  0.00    +0.157 C 
ENDROOT
BRANCH   1   2
ATOM      2  C   UNL     1      -5.064   1.294  -0.342  0.00  0.00    +0.175 C 
ATOM      3  O   UNL     1      -5.879   0.405  -0.206  0.00  0.00    -0.291 OA
BRANCH   2   6
ATOM      4  N   UNL     1      -1.474   1.287  -0.070  0.00  0.00    -0.346 N 
ATOM      5  C   UNL     1      -2.643   1.919  -0.293  0.00  0.00    +0.098 A 
ATOM      6  C   UNL     1      -3.683   1.022  -0.177  0.00  0.00    +0.043 A 
ATOM      7  C   UNL     1      -3.070  -0.278   0.158  0.00  0.00    +0.010 A 
ATOM      8  C   UNL     1      -1.686  -0.047   0.211  0.00  0.00    +0.050 A 
ATOM      9  C   UNL     1      -0.831  -1.102   0.510  0.00  0.00    +0.026 A 
ATOM     10  C   UNL     1      -1.345  -2.358   0.750  0.00  0.00    +0.002 A 
ATOM     11  C   UNL     1      -2.712  -2.584   0.698  0.00  0.00    +0.001 A 
ATOM     12  C   UNL     1      -3.576  -1.551   0.404  0.00  0.00    +0.011 A 
BRANCH   4  14
ATOM     13  C   UNL     1       0.460   1.733  -1.499  0.00  0.00    +0.027 C 
ATOM     14  C   UNL     1      -0.159   1.930  -0.113  0.00  0.00    +0.118 C 
ENDBRANCH   4  14
ENDBRANCH   2   6
ENDBRANCH   1   2
BRANCH   1  15
ATOM     15  S   UNL     1      -7.325   2.714  -0.829  0.00  0.00    -0.078 S 
BRANCH  15  16
ATOM     16  C   UNL     1      -7.577   4.413  -1.225  0.00  0.00    +0.192 A 
ATOM     17  N   UNL     1      -6.644   5.330  -1.352  0.00  0.00    -0.122 NA
ATOM     18  N   UNL     1      -7.176   6.462  -1.649  0.00  0.00    -0.128 NA
ATOM     19  C   UNL     1      -8.481   6.339  -1.721  0.00  0.00    +0.165 A 
ATOM     20  N   UNL     1      -8.778   5.022  -1.452  0.00  0.00    -0.305 N 
ATOM     21  C   UNL     1     -10.105   4.404  -1.415  0.00  0.00    +0.153 C 
BRANCH  19  22
ATOM     22  C   UNL     1      -9.449   7.412  -2.032  0.00  0.00    +0.019 A 
ATOM     23  C   UNL     1      -9.025   8.570  -2.686  0.00  0.00    +0.013 A 
ATOM     24  C   UNL     1      -9.934   9.565  -2.979  0.00  0.00    +0.021 A 
ATOM     25  C   UNL     1     -11.262   9.422  -2.616  0.00  0.00    +0.041 A 
ATOM     26  C   UNL     1     -11.688   8.278  -1.962  0.00  0.00    +0.021 A 
ATOM     27  C   UNL     1     -10.789   7.274  -1.669  0.00  0.00    +0.013 A 
ATOM     28 CL   UNL     1     -12.399  10.682  -2.981  0.00  0.00    -0.084 Cl
ENDBRANCH  19  22
ENDBRANCH  15  16
ENDBRANCH   1  15
TORSDOF 6
