REMARK  Name = ZINC21801737
REMARK  4 active torsions:
REMARK  status: ('A' for Active; 'I' for Inactive)
REMARK    1  A    between atoms: C_4  and  C_8
REMARK    2  A    between atoms: C_8  and  C_10
REMARK    3  A    between atoms: C_8  and  N_20
REMARK    4  A    between atoms: C_12  and  N_17
REMARK                            x       y       z     vdW  Elec       q    Type
REMARK                         _______ _______ _______ _____ _____    ______ ____
ROOT
ATOM      1  C   UNL     1      -1.332   2.115   0.020  0.00  0.00    +0.115 C 
ENDROOT
BRANCH   1   5
ATOM      2  C   UNL     1       1.509  -1.023  -0.564  0.00  0.00    +0.003 A 
ATOM      3  C   UNL     1       0.157  -1.288  -0.670  0.00  0.00    +0.020 A 
ATOM      4  C   UNL     1      -0.764  -0.272  -0.479  0.00  0.00    +0.047 A 
ATOM      5  C   UNL     1      -0.330   1.007  -0.182  0.00  0.00    +0.010 A 
ATOM      6  C   UNL     1       1.024   1.271  -0.077  0.00  0.00    +0.047 A 
ATOM      7  C   UNL     1       1.943   0.255  -0.268  0.00  0.00    +0.020 A 
ATOM      8 CL   UNL     1       1.569   2.877   0.295  0.00  0.00    -0.083 Cl
ATOM      9 CL   UNL     1      -2.463  -0.604  -0.612  0.00  0.00    -0.083 Cl
ENDBRANCH   1   5
BRANCH   1  10
ATOM     10  C   UNL     1      -1.366   2.502   1.476  0.00  0.00    -0.023 A 
ATOM     11  C   UNL     1      -2.122   1.765   2.369  0.00  0.00    +0.038 A 
ATOM     12  C   UNL     1      -2.150   2.116   3.706  0.00  0.00    +0.128 A 
ATOM     13  C   UNL     1      -1.431   3.211   4.148  0.00  0.00    +0.052 A 
ATOM     14  C   UNL     1      -0.680   3.952   3.254  0.00  0.00    +0.043 A 
ATOM     15  C   UNL     1      -0.647   3.596   1.917  0.00  0.00    +0.025 A 
ATOM     16 CL   UNL     1       0.223   5.327   3.809  0.00  0.00    -0.083 Cl
BRANCH  12  17
ATOM     17  N   UNL     1      -2.954   1.323   4.662  0.00  0.00    +0.056 N 
ATOM     18  O   UNL     1      -2.982   1.634   5.839  0.00  0.00    -0.126 OA
ATOM     19  O   UNL     1      -3.587   0.358   4.272  0.00  0.00    -0.126 OA
ENDBRANCH  12  17
ENDBRANCH   1  10
BRANCH   1  20
ATOM     20  N   UNL     1      -0.943   3.280  -0.787  0.00  0.00    -0.320 NA
ATOM     21  H   UNL     1      -1.675   4.088  -0.639  0.00  0.00    +0.119 HD
ATOM     22  H   UNL     1       0.053   3.625  -0.475  0.00  0.00    +0.119 HD
ENDBRANCH   1  20
TORSDOF 4
