REMARK  Name = ZINC55073601
REMARK  9 active torsions:
REMARK  status: ('A' for Active; 'I' for Inactive)
REMARK    1  A    between atoms: C_1  and  C_2
REMARK    2  A    between atoms: C_4  and  C_24
REMARK    3  A    between atoms: C_5  and  C_22
REMARK    4  A    between atoms: C_6  and  C_21
REMARK    5  A    between atoms: C_7  and  C_8
REMARK    6  A    between atoms: C_8  and  N_9
REMARK    7  A    between atoms: C_13  and  C_15
REMARK    8  A    between atoms: C_16  and  C_20
REMARK    9  A    between atoms: C_22  and  O_23
REMARK                            x       y       z     vdW  Elec       q    Type
REMARK                         _______ _______ _______ _____ _____    ______ ____
ROOT
ATOM      1  C   UNL     1       0.291   0.047   2.467  0.00  0.00    -0.042 C 
ENDROOT
BRANCH   1   8
ATOM      2  C   UNL     1       0.121  -2.827   2.225  0.00  0.00    +0.044 C 
ATOM      3  C   UNL     1       0.058  -1.962   0.992  0.00  0.00    -0.049 A 
ATOM      4  C   UNL     1      -0.086  -2.543  -0.254  0.00  0.00    +0.007 A 
ATOM      5  C   UNL     1      -0.144  -1.750  -1.384  0.00  0.00    -0.045 A 
ATOM      6  C   UNL     1      -0.057  -0.375  -1.269  0.00  0.00    -0.016 A 
ATOM      7  C   UNL     1       0.086   0.206  -0.023  0.00  0.00    -0.043 A 
ATOM      8  C   UNL     1       0.140  -0.587   1.108  0.00  0.00    -0.058 A 
ATOM      9  C   UNL     1       0.181   1.705   0.103  0.00  0.00    +0.044 C 
ATOM     10  C   UNL     1      -0.300  -2.384  -2.742  0.00  0.00    +0.044 C 
BRANCH   6  11
ATOM     11  C   UNL     1      -0.119   0.490  -2.501  0.00  0.00    +0.191 C 
BRANCH  11  12
ATOM     12  O   UNL     1      -1.479   0.838  -2.771  0.00  0.00    -0.390 OA
ATOM     13  H   UNL     1      -1.594   1.395  -3.553  0.00  0.00    +0.210 HD
ENDBRANCH  11  12
ENDBRANCH   6  11
ENDBRANCH   1   8
BRANCH   1  14
ATOM     14  N   UNL     1      -1.005   0.038   3.158  0.00  0.00    +0.388 N 
ATOM     15  C   UNL     1      -1.956   0.908   2.441  0.00  0.00    -0.077 C 
ATOM     16  C   UNL     1      -2.414   1.999   3.432  0.00  0.00    -0.020 C 
ATOM     17  C   UNL     1      -2.136   1.354   4.815  0.00  0.00    -0.011 C 
ATOM     18  C   UNL     1      -0.839   0.556   4.533  0.00  0.00    -0.013 C 
ATOM     19  H   UNL     1      -1.367  -0.903   3.191  0.00  0.00    -0.080 HD
BRANCH  18  20
ATOM     20  C   UNL     1      -0.701  -0.584   5.510  0.00  0.00    +0.094 A 
ATOM     21  C   UNL     1       0.246  -0.655   6.550  0.00  0.00    +0.103 A 
ATOM     22  N   UNL     1       0.089  -1.768   7.201  0.00  0.00    -0.054 NA
ATOM     23  O   UNL     1      -0.985  -2.468   6.593  0.00  0.00    -0.242 OA
ATOM     24  N   UNL     1      -1.442  -1.652   5.527  0.00  0.00    -0.055 NA
ATOM     25  C   UNL     1       1.280   0.397   6.859  0.00  0.00    +0.071 C 
ENDBRANCH  18  20
ENDBRANCH   1  14
TORSDOF 5
