REMARK  Name = ZINC59890389
REMARK  15 active torsions:
REMARK  status: ('A' for Active; 'I' for Inactive)
REMARK    1  A    between atoms: C_1  and  C_2
REMARK    2  A    between atoms: C_2  and  N_3
REMARK    3  A    between atoms: C_7  and  S_29
REMARK    4  A    between atoms: C_11  and  C_12
REMARK    5  A    between atoms: C_12  and  C_13
REMARK    6  A    between atoms: C_13  and  C_14
REMARK    7  A    between atoms: N_16  and  C_17
REMARK    8  A    between atoms: C_17  and  C_18
REMARK    9  A    between atoms: C_18  and  N_26
REMARK   10  A    between atoms: C_22  and  C_25
REMARK   11  A    between atoms: N_26  and  C_27
REMARK   12  A    between atoms: N_26  and  C_28
REMARK   13  A    between atoms: S_29  and  N_32
REMARK   14  A    between atoms: N_32  and  C_33
REMARK   15  A    between atoms: N_32  and  C_34
REMARK                            x       y       z     vdW  Elec       q    Type
REMARK                         _______ _______ _______ _____ _____    ______ ____
ROOT
ATOM      1  C   UNL     1       2.925  -0.977  -0.374  0.00  0.00    +0.083 C 
ENDROOT
BRANCH   1  10
ATOM      2  N   UNL     1       0.651  -1.213  -1.490  0.00  0.00    -0.328 N 
ATOM      3  C   UNL     1       0.184  -1.549  -2.745  0.00  0.00    +0.069 A 
ATOM      4  C   UNL     1      -1.079  -1.657  -3.310  0.00  0.00    +0.030 A 
ATOM      5  C   UNL     1      -1.207  -2.026  -4.632  0.00  0.00    +0.030 A 
ATOM      6  C   UNL     1      -0.083  -2.290  -5.400  0.00  0.00    +0.108 A 
ATOM      7  C   UNL     1       1.169  -2.190  -4.861  0.00  0.00    +0.058 A 
ATOM      8  C   UNL     1       1.323  -1.817  -3.523  0.00  0.00    +0.091 A 
ATOM      9  N   UNL     1       2.403  -1.635  -2.721  0.00  0.00    -0.232 NA
ATOM     10  C   UNL     1       2.009  -1.276  -1.533  0.00  0.00    +0.111 A 
BRANCH   6  11
ATOM     11  S   UNL     1      -0.270  -2.761  -7.088  0.00  0.00    +0.060 S 
ATOM     12  O   UNL     1       0.902  -3.483  -7.441  0.00  0.00    -0.153 OA
ATOM     13  O   UNL     1      -1.573  -3.315  -7.213  0.00  0.00    -0.153 OA
BRANCH  11  14
ATOM     14  N   UNL     1      -0.259  -1.371  -7.988  0.00  0.00    -0.183 NA
ATOM     15  C   UNL     1       1.007  -0.842  -8.502  0.00  0.00    +0.131 C 
ATOM     16  C   UNL     1      -1.514  -0.670  -8.270  0.00  0.00    +0.131 C 
ENDBRANCH  11  14
ENDBRANCH   6  11
BRANCH   2  18
ATOM     17  C   UNL     1      -0.398   0.661  -0.321  0.00  0.00    +0.027 C 
ATOM     18  C   UNL     1      -0.165  -0.851  -0.329  0.00  0.00    +0.120 C 
ENDBRANCH   2  18
ENDBRANCH   1  10
BRANCH   1  19
ATOM     19  C   UNL     1       3.183  -2.261   0.416  0.00  0.00    +0.103 C 
BRANCH  19  20
ATOM     20  C   UNL     1       4.099  -1.962   1.575  0.00  0.00    +0.213 C 
ATOM     21  O   UNL     1       4.505  -0.833   1.752  0.00  0.00    -0.276 OA
ATOM     22  N   UNL     1       4.467  -2.950   2.415  0.00  0.00    -0.317 N 
ATOM     23  H   UNL     1       4.143  -3.853   2.274  0.00  0.00    +0.149 HD
BRANCH  22  24
ATOM     24  C   UNL     1       5.357  -2.659   3.542  0.00  0.00    +0.092 C 
BRANCH  24  25
ATOM     25  C   UNL     1       5.509  -3.911   4.408  0.00  0.00    -0.050 C 
ATOM     26  C   UNL     1       6.124  -5.037   3.573  0.00  0.00    -0.010 C 
ATOM     27  C   UNL     1       6.276  -6.289   4.439  0.00  0.00    -0.001 C 
ATOM     28  C   UNL     1       4.902  -6.726   4.950  0.00  0.00    +0.003 C 
ATOM     29  C   UNL     1       4.287  -5.600   5.785  0.00  0.00    -0.015 C 
ATOM     30  C   UNL     1       4.135  -4.348   4.919  0.00  0.00    -0.007 C 
ATOM     31  C   UNL     1       2.913  -6.037   6.296  0.00  0.00    +0.007 C 
BRANCH  25  32
ATOM     32  N   UNL     1       6.384  -3.614   5.549  0.00  0.00    +0.381 N 
ATOM     33  C   UNL     1       7.706  -3.201   5.059  0.00  0.00    -0.096 C 
ATOM     34  C   UNL     1       5.797  -2.529   6.347  0.00  0.00    -0.096 C 
ATOM     35  H   UNL     1       6.481  -4.438   6.123  0.00  0.00    -0.082 HD
ENDBRANCH  25  32
ENDBRANCH  24  25
ENDBRANCH  22  24
ENDBRANCH  19  20
ENDBRANCH   1  19
TORSDOF 9
