REMARK  Name = ZINC01592818
REMARK  6 active torsions:
REMARK  status: ('A' for Active; 'I' for Inactive)
REMARK    1  A    between atoms: C_1  and  C_2
REMARK    2  A    between atoms: C_2  and  O_25
REMARK    3  A    between atoms: C_4  and  C_16
REMARK    4  A    between atoms: C_19  and  N_22
REMARK    5  A    between atoms: N_22  and  C_23
REMARK    6  A    between atoms: N_22  and  C_24
REMARK                            x       y       z     vdW  Elec       q    Type
REMARK                         _______ _______ _______ _____ _____    ______ ____
ROOT
ATOM      1  C   UNL     1       2.026   1.140  -1.261  0.00  0.00    +0.089 C 
ATOM      2  C   UNL     1       1.287   1.560   0.011  0.00  0.00    +0.208 C 
ATOM      3  C   UNL     1       1.149   3.087   0.050  0.00  0.00    +0.091 C 
ATOM      4  C   UNL     1       2.545   3.699  -0.091  0.00  0.00    +0.059 C 
ATOM      5  C   UNL     1       3.495   3.020   0.863  0.00  0.00    +0.006 A 
ATOM      6  C   UNL     1       4.692   3.649   1.169  0.00  0.00    +0.057 A 
ATOM      7  C   UNL     1       5.594   3.055   2.034  0.00  0.00    +0.167 A 
ATOM      8  C   UNL     1       5.297   1.817   2.601  0.00  0.00    +0.170 A 
ATOM      9  C   UNL     1       4.101   1.192   2.296  0.00  0.00    +0.095 A 
ATOM     10  C   UNL     1       3.196   1.793   1.427  0.00  0.00    +0.132 A 
ATOM     11  O   UNL     1       2.031   1.146   1.158  0.00  0.00    -0.461 OA
ATOM     12  O   UNL     1       6.334   1.447   3.408  0.00  0.00    -0.452 OA
ATOM     13  C   UNL     1       7.083   2.653   3.650  0.00  0.00    +0.466 C 
ATOM     14  O   UNL     1       6.818   3.459   2.486  0.00  0.00    -0.453 OA
ENDROOT
BRANCH   4  15
ATOM     15  C   UNL     1       2.481   5.171   0.228  0.00  0.00    -0.040 A 
ATOM     16  C   UNL     1       2.053   5.589   1.475  0.00  0.00    +0.006 A 
ATOM     17  C   UNL     1       1.998   6.936   1.772  0.00  0.00    +0.023 A 
ATOM     18  C   UNL     1       2.363   7.872   0.812  0.00  0.00    +0.029 A 
ATOM     19  C   UNL     1       2.787   7.449  -0.441  0.00  0.00    +0.023 A 
ATOM     20  C   UNL     1       2.844   6.100  -0.729  0.00  0.00    +0.006 A 
BRANCH  18  21
ATOM     21  N   UNL     1       2.303   9.236   1.107  0.00  0.00    -0.336 N 
ATOM     22  C   UNL     1       2.805  10.217   0.142  0.00  0.00    +0.129 C 
ATOM     23  C   UNL     1       1.739   9.686   2.382  0.00  0.00    +0.129 C 
ENDBRANCH  18  21
ENDBRANCH   4  15
BRANCH   2  24
ATOM     24  O   UNL     1      -0.009   0.959   0.036  0.00  0.00    -0.356 OA
ATOM     25  H   UNL     1       0.005  -0.008   0.031  0.00  0.00    +0.214 HD
ENDBRANCH   2  24
TORSDOF 3
