REMARK  Name = ZINC13145845
REMARK  7 active torsions:
REMARK  status: ('A' for Active; 'I' for Inactive)
REMARK    1  A    between atoms: C_3  and  C_7
REMARK    2  A    between atoms: C_10  and  S_13
REMARK    3  A    between atoms: N_11  and  N_12
REMARK    4  A    between atoms: S_13  and  C_14
REMARK    5  A    between atoms: C_14  and  C_15
REMARK    6  A    between atoms: N_17  and  C_18
REMARK    7  A    between atoms: C_19  and  C_26
REMARK                            x       y       z     vdW  Elec       q    Type
REMARK                         _______ _______ _______ _____ _____    ______ ____
ROOT
ATOM      1  C   UNL     1       2.510   2.216  -5.263  0.00  0.00    +0.228 C 
ATOM      2  O   UNL     1       3.497   1.828  -4.675  0.00  0.00    -0.275 OA
ATOM      3  N   UNL     1       2.604   2.614  -6.547  0.00  0.00    -0.279 N 
ATOM      4  H   UNL     1       1.815   2.924  -7.018  0.00  0.00    +0.155 HD
ENDROOT
BRANCH   3   5
ATOM      5  C   UNL     1       3.829   2.581  -7.195  0.00  0.00    +0.084 A 
ATOM      6  C   UNL     1       4.123   2.940  -8.500  0.00  0.00    +0.068 A 
ATOM      7  C   UNL     1       5.511   2.813  -8.941  0.00  0.00    -0.023 A 
ATOM      8  C   UNL     1       6.364   2.342  -8.014  0.00  0.00    -0.004 A 
ATOM      9  S   UNL     1       5.362   2.073  -6.572  0.00  0.00    -0.077 S 
ATOM     10  C   UNL     1       7.769   2.237  -8.542  0.00  0.00    +0.043 C 
ATOM     11  C   UNL     1       7.775   3.118  -9.811  0.00  0.00    +0.010 C 
ATOM     12  C   UNL     1       6.292   3.075 -10.230  0.00  0.00    +0.037 C 
BRANCH   6  13
ATOM     13  C   UNL     1       3.080   3.434  -9.404  0.00  0.00    +0.244 C 
ATOM     14  O   UNL     1       2.841   4.626  -9.465  0.00  0.00    -0.270 OA
ATOM     15  N   UNL     1       2.386   2.568 -10.169  0.00  0.00    -0.325 N 
ATOM     16  H   UNL     1       2.576   1.619 -10.121  0.00  0.00    +0.145 HD
ATOM     17  H   UNL     1       1.696   2.895 -10.768  0.00  0.00    +0.145 HD
ENDBRANCH   6  13
ENDBRANCH   3   5
BRANCH   1  18
ATOM     18  C   UNL     1       1.178   2.252  -4.559  0.00  0.00    +0.173 C 
BRANCH  18  19
ATOM     19  S   UNL     1       1.377   1.660  -2.860  0.00  0.00    -0.075 S 
BRANCH  19  23
ATOM     20  C   UNL     1      -2.087   1.770  -1.058  0.00  0.00    +0.183 A 
ATOM     21  N   UNL     1      -2.373   2.215  -2.259  0.00  0.00    -0.127 NA
ATOM     22  N   UNL     1      -1.313   2.233  -2.984  0.00  0.00    -0.121 NA
ATOM     23  C   UNL     1      -0.283   1.805  -2.288  0.00  0.00    +0.209 A 
ATOM     24  N   UNL     1      -0.741   1.490  -1.041  0.00  0.00    -0.224 N 
BRANCH  20  27
ATOM     25  C   UNL     1      -5.146   2.015   1.105  0.00  0.00    +0.020 A 
ATOM     26  C   UNL     1      -4.297   2.204   0.028  0.00  0.00    +0.014 A 
ATOM     27  C   UNL     1      -3.034   1.601   0.065  0.00  0.00    +0.039 A 
ATOM     28  C   UNL     1      -2.686   0.833   1.177  0.00  0.00    +0.122 A 
ATOM     29  N   UNL     1      -3.527   0.687   2.180  0.00  0.00    -0.263 NA
ATOM     30  C   UNL     1      -4.724   1.244   2.172  0.00  0.00    +0.111 A 
ENDBRANCH  20  27
BRANCH  24  31
ATOM     31  N   UNL     1      -0.012   1.005   0.008  0.00  0.00    -0.295 N 
ATOM     32  H   UNL     1       0.002  -0.004   0.002  0.00  0.00    +0.163 HD
ATOM     33  H   UNL     1       0.925   1.379   0.001  0.00  0.00    +0.163 HD
ENDBRANCH  24  31
ENDBRANCH  19  23
ENDBRANCH  18  19
ENDBRANCH   1  18
TORSDOF 7
