REMARK  Name = ZINC67388303
REMARK  13 active torsions:
REMARK  status: ('A' for Active; 'I' for Inactive)
REMARK    1  A    between atoms: C_1  and  C_2
REMARK    2  A    between atoms: C_2  and  C_3
REMARK    3  A    between atoms: C_2  and  C_4
REMARK    4  A    between atoms: C_4  and  C_6
REMARK    5  A    between atoms: C_4  and  N_24
REMARK    6  A    between atoms: C_6  and  N_7
REMARK    7  A    between atoms: N_10  and  C_11
REMARK    8  A    between atoms: C_11  and  C_12
REMARK    9  A    between atoms: C_16  and  C_18
REMARK   10  A    between atoms: N_20  and  C_21
REMARK   11  A    between atoms: C_21  and  C_22
REMARK   12  A    between atoms: C_21  and  C_23
REMARK   13  A    between atoms: N_24  and  C_25
REMARK                            x       y       z     vdW  Elec       q    Type
REMARK                         _______ _______ _______ _____ _____    ______ ____
ROOT
ATOM      1  N   UNL     1      -3.592  -0.352   1.149  0.00  0.00    -0.298 N 
ATOM      2  C   UNL     1      -4.452   0.055   2.103  0.00  0.00    +0.300 C 
ATOM      3  O   UNL     1      -4.062   0.763   3.011  0.00  0.00    -0.253 OA
ATOM      4  N   UNL     1      -5.744  -0.324   2.051  0.00  0.00    -0.295 N 
ATOM      5  H   UNL     1      -3.903  -0.917   0.424  0.00  0.00    +0.150 HD
ATOM      6  H   UNL     1      -6.055  -0.889   1.327  0.00  0.00    +0.151 HD
ENDROOT
BRANCH   1   7
ATOM      7  C   UNL     1      -2.187   0.060   1.205  0.00  0.00    +0.128 C 
BRANCH   7   8
ATOM      8  C   UNL     1      -1.433  -0.534   0.013  0.00  0.00    +0.090 C 
BRANCH   8  10
ATOM      9  C   UNL     1      -0.019   1.526   0.010  0.00  0.00    +0.009 C 
ATOM     10  C   UNL     1       0.002  -0.004   0.002  0.00  0.00    +0.005 C 
ATOM     11  C   UNL     1       0.742  -0.511   1.242  0.00  0.00    +0.009 C 
ENDBRANCH   8  10
BRANCH   8  12
ATOM     12  N   UNL     1      -2.105  -0.148  -1.230  0.00  0.00    -0.339 N 
ATOM     13  H   UNL     1      -2.648   0.655  -1.260  0.00  0.00    +0.146 HD
BRANCH  12  14
ATOM     14  C   UNL     1      -1.965  -0.938  -2.374  0.00  0.00    +0.027 A 
ATOM     15  C   UNL     1      -1.193  -2.092  -2.333  0.00  0.00    +0.023 A 
ATOM     16  C   UNL     1      -1.056  -2.871  -3.465  0.00  0.00    +0.002 A 
ATOM     17  C   UNL     1      -1.687  -2.503  -4.639  0.00  0.00    +0.000 A 
ATOM     18  C   UNL     1      -2.456  -1.354  -4.684  0.00  0.00    +0.002 A 
ATOM     19  C   UNL     1      -2.602  -0.574  -3.554  0.00  0.00    +0.023 A 
ENDBRANCH  12  14
ENDBRANCH   8  12
ENDBRANCH   7   8
ENDBRANCH   1   7
BRANCH   4  20
ATOM     20  C   UNL     1      -6.679   0.118   3.089  0.00  0.00    +0.141 C 
BRANCH  20  21
ATOM     21  C   UNL     1      -8.050  -0.439   2.800  0.00  0.00    -0.030 A 
ATOM     22  C   UNL     1      -8.935   0.278   2.014  0.00  0.00    +0.005 A 
ATOM     23  C   UNL     1     -10.194  -0.226   1.744  0.00  0.00    +0.001 A 
ATOM     24  C   UNL     1     -10.576  -1.448   2.259  0.00  0.00    +0.013 A 
ATOM     25  C   UNL     1      -9.688  -2.176   3.052  0.00  0.00    +0.037 A 
ATOM     26  C   UNL     1      -8.417  -1.664   3.316  0.00  0.00    +0.018 A 
BRANCH  25  27
ATOM     27  C   UNL     1     -10.091  -3.486   3.606  0.00  0.00    +0.244 C 
ATOM     28  O   UNL     1      -9.316  -4.118   4.297  0.00  0.00    -0.270 OA
ATOM     29  N   UNL     1     -11.318  -3.980   3.346  0.00  0.00    -0.309 N 
ATOM     30  H   UNL     1     -11.937  -3.476   2.795  0.00  0.00    +0.149 HD
BRANCH  29  31
ATOM     31  C   UNL     1     -11.717  -5.278   3.895  0.00  0.00    +0.067 C 
ATOM     32  C   UNL     1     -12.255  -5.087   5.315  0.00  0.00    +0.027 C 
ATOM     33  C   UNL     1     -12.807  -5.891   3.014  0.00  0.00    +0.027 C 
ENDBRANCH  29  31
ENDBRANCH  25  27
ENDBRANCH  20  21
ENDBRANCH   4  20
TORSDOF 9
