REMARK  Name = ZINC36549046
REMARK  13 active torsions:
REMARK  status: ('A' for Active; 'I' for Inactive)
REMARK    1  A    between atoms: C_1  and  C_2
REMARK    2  A    between atoms: C_5  and  S_8
REMARK    3  A    between atoms: S_8  and  C_11
REMARK    4  A    between atoms: C_11  and  N_12
REMARK    5  A    between atoms: C_13  and  C_15
REMARK    6  A    between atoms: C_15  and  C_17
REMARK    7  A    between atoms: C_15  and  N_25
REMARK    8  A    between atoms: C_20  and  C_24
REMARK    9  A    between atoms: C_22  and  C_23
REMARK   10  A    between atoms: N_25  and  C_26
REMARK   11  A    between atoms: C_33  and  C_35
REMARK   12  A    between atoms: C_35  and  O_36
REMARK   13  A    between atoms: O_36  and  C_37
REMARK                            x       y       z     vdW  Elec       q    Type
REMARK                         _______ _______ _______ _____ _____    ______ ____
ROOT
ATOM      1  C   UNL     1       3.682  -5.150   4.031  0.00  0.00    +0.198 C 
ENDROOT
BRANCH   1   2
ATOM      2  C   UNL     1       4.827  -4.516   3.283  0.00  0.00    -0.015 A 
ATOM      3  C   UNL     1       5.595  -5.277   2.421  0.00  0.00    +0.006 A 
ATOM      4  C   UNL     1       6.644  -4.695   1.736  0.00  0.00    +0.004 A 
ATOM      5  C   UNL     1       6.926  -3.353   1.911  0.00  0.00    -0.050 A 
ATOM      6  C   UNL     1       6.157  -2.593   2.772  0.00  0.00    +0.007 A 
ATOM      7  C   UNL     1       5.105  -3.173   3.455  0.00  0.00    -0.045 A 
ATOM      8  C   UNL     1       4.264  -2.343   4.390  0.00  0.00    +0.044 C 
ATOM      9  C   UNL     1       8.071  -2.719   1.164  0.00  0.00    +0.044 C 
ENDBRANCH   1   2
BRANCH   1  11
ATOM     10  N   UNL     1       2.267  -5.985   2.182  0.00  0.00    -0.294 N 
ATOM     11  C   UNL     1       3.099  -6.267   3.204  0.00  0.00    +0.240 C 
ATOM     12  O   UNL     1       3.378  -7.419   3.458  0.00  0.00    -0.273 OA
ATOM     13  H   UNL     1       2.000  -5.068   2.013  0.00  0.00    +0.150 HD
BRANCH  10  14
ATOM     14  C   UNL     1       1.766  -7.063   1.326  0.00  0.00    +0.278 C 
BRANCH  14  15
ATOM     15  S   UNL     1       0.144  -7.608   1.927  0.00  0.00    +0.013 S 
ATOM     16  O   UNL     1       0.184  -7.805   3.333  0.00  0.00    -0.168 OA
ATOM     17  O   UNL     1      -0.384  -8.611   1.069  0.00  0.00    -0.168 OA
BRANCH  15  22
ATOM     18  C   UNL     1      -3.482  -2.849   1.142  0.00  0.00    +0.044 C 
ATOM     19  C   UNL     1      -2.576  -4.038   1.338  0.00  0.00    -0.050 A 
ATOM     20  C   UNL     1      -2.435  -4.973   0.330  0.00  0.00    +0.005 A 
ATOM     21  C   UNL     1      -1.604  -6.063   0.509  0.00  0.00    +0.027 A 
ATOM     22  C   UNL     1      -0.914  -6.218   1.697  0.00  0.00    +0.090 A 
ATOM     23  C   UNL     1      -1.054  -5.282   2.705  0.00  0.00    +0.027 A 
ATOM     24  C   UNL     1      -1.882  -4.190   2.523  0.00  0.00    +0.005 A 
ENDBRANCH  15  22
ENDBRANCH  14  15
ENDBRANCH  10  14
ENDBRANCH   1  11
BRANCH   1  25
ATOM     25  N   UNL     1       4.168  -5.688   5.304  0.00  0.00    -0.252 N 
ATOM     26  C   UNL     1       3.296  -6.188   6.202  0.00  0.00    +0.247 C 
ATOM     27  O   UNL     1       3.687  -6.543   7.294  0.00  0.00    -0.273 OA
BRANCH  25  28
ATOM     28  C   UNL     1       5.539  -5.683   5.588  0.00  0.00    +0.056 A 
ATOM     29  C   UNL     1       6.111  -4.595   6.235  0.00  0.00    +0.025 A 
ATOM     30  C   UNL     1       7.464  -4.593   6.513  0.00  0.00    +0.002 A 
ATOM     31  C   UNL     1       8.249  -5.672   6.149  0.00  0.00    +0.002 A 
ATOM     32  C   UNL     1       7.683  -6.756   5.505  0.00  0.00    +0.022 A 
ATOM     33  C   UNL     1       6.329  -6.768   5.228  0.00  0.00    +0.062 A 
ATOM     34 CL   UNL     1       5.617  -8.133   4.426  0.00  0.00    -0.082 Cl
ENDBRANCH  25  28
BRANCH  26  35
ATOM     35  C   UNL     1       1.836  -6.306   5.849  0.00  0.00    +0.255 C 
BRANCH  35  36
ATOM     36  O   UNL     1       1.095  -6.692   7.008  0.00  0.00    -0.374 OA
ATOM     37  C   UNL     1      -0.309  -6.832   6.781  0.00  0.00    +0.194 C 
ENDBRANCH  35  36
ENDBRANCH  26  35
ENDBRANCH   1  25
TORSDOF 9
