REMARK  Name = ZINC12288023
REMARK  10 active torsions:
REMARK  status: ('A' for Active; 'I' for Inactive)
REMARK    1  A    between atoms: C_1  and  C_2
REMARK    2  A    between atoms: C_2  and  N_3
REMARK    3  A    between atoms: C_6  and  N_33
REMARK    4  A    between atoms: N_12  and  C_13
REMARK    5  A    between atoms: C_13  and  C_15
REMARK    6  A    between atoms: C_18  and  S_21
REMARK    7  A    between atoms: S_21  and  N_24
REMARK    8  A    between atoms: N_24  and  C_25
REMARK    9  A    between atoms: N_24  and  C_27
REMARK   10  A    between atoms: C_25  and  C_26
REMARK                            x       y       z     vdW  Elec       q    Type
REMARK                         _______ _______ _______ _____ _____    ______ ____
ROOT
ATOM      1  C   UNL     1      -9.795   2.498   0.063  0.00  0.00    +0.039 A 
ATOM      2  C   UNL     1     -10.185   1.161  -0.013  0.00  0.00    +0.015 A 
ATOM      3  C   UNL     1     -11.525   0.834   0.003  0.00  0.00    +0.029 A 
ATOM      4  C   UNL     1     -12.482   1.830   0.082  0.00  0.00    +0.109 A 
ATOM      5  C   UNL     1     -12.102   3.158   0.151  0.00  0.00    +0.029 A 
ATOM      6  C   UNL     1     -10.765   3.497   0.142  0.00  0.00    +0.015 A 
ENDROOT
BRANCH   4   7
ATOM      7  S   UNL     1     -14.192   1.405   0.093  0.00  0.00    +0.075 S 
ATOM      8  O   UNL     1     -14.275   0.068   0.570  0.00  0.00    -0.150 OA
ATOM      9  O   UNL     1     -14.874   2.481   0.722  0.00  0.00    -0.150 OA
BRANCH   7  10
ATOM     10  N   UNL     1     -14.701   1.378  -1.482  0.00  0.00    -0.203 N 
BRANCH  10  11
ATOM     11  C   UNL     1     -15.111   2.560  -2.104  0.00  0.00    +0.051 A 
ATOM     12  C   UNL     1     -14.443   3.022  -3.231  0.00  0.00    +0.025 A 
ATOM     13  C   UNL     1     -14.853   4.188  -3.846  0.00  0.00    +0.002 A 
ATOM     14  C   UNL     1     -15.922   4.902  -3.334  0.00  0.00    +0.000 A 
ATOM     15  C   UNL     1     -16.586   4.448  -2.210  0.00  0.00    +0.002 A 
ATOM     16  C   UNL     1     -16.184   3.279  -1.593  0.00  0.00    +0.025 A 
ENDBRANCH  10  11
BRANCH  10  17
ATOM     17  C   UNL     1     -14.721   0.115  -2.224  0.00  0.00    +0.128 C 
ATOM     18  C   UNL     1     -16.119  -0.501  -2.145  0.00  0.00    +0.026 C 
ENDBRANCH  10  17
ENDBRANCH   7  10
ENDBRANCH   4   7
BRANCH   1  19
ATOM     19  C   UNL     1      -8.358   2.855   0.053  0.00  0.00    +0.269 C 
ATOM     20  O   UNL     1      -8.020   4.024   0.115  0.00  0.00    -0.268 OA
BRANCH  19  30
ATOM     21  N   UNL     1      -5.066   1.385  -0.102  0.00  0.00    -0.321 N 
ATOM     22  C   UNL     1      -3.786   1.907  -0.098  0.00  0.00    +0.060 A 
ATOM     23  C   UNL     1      -2.565   1.218  -0.164  0.00  0.00    +0.059 A 
ATOM     24  C   UNL     1      -1.371   1.901  -0.149  0.00  0.00    +0.128 A 
ATOM     25  C   UNL     1      -1.336   3.283  -0.063  0.00  0.00    +0.034 A 
ATOM     26  C   UNL     1      -2.525   3.987  -0.002  0.00  0.00    +0.019 A 
ATOM     27  C   UNL     1      -3.719   3.306  -0.017  0.00  0.00    +0.039 A 
ATOM     28  S   UNL     1      -5.425   3.792   0.047  0.00  0.00    -0.052 S 
ATOM     29  C   UNL     1      -6.141   2.215  -0.031  0.00  0.00    +0.167 A 
ATOM     30  N   UNL     1      -7.431   1.895  -0.022  0.00  0.00    -0.152 NA
BRANCH  24  31
ATOM     31  N   UNL     1      -0.101   1.144  -0.220  0.00  0.00    +0.056 N 
ATOM     32  O   UNL     1      -0.119  -0.071  -0.291  0.00  0.00    -0.126 OA
ATOM     33  O   UNL     1       0.962   1.738  -0.213  0.00  0.00    -0.126 OA
ENDBRANCH  24  31
BRANCH  21  35
ATOM     34  C   UNL     1      -6.463  -0.464   0.680  0.00  0.00    +0.027 C 
ATOM     35  C   UNL     1      -5.265  -0.064  -0.184  0.00  0.00    +0.121 C 
ENDBRANCH  21  35
ENDBRANCH  19  30
ENDBRANCH   1  19
TORSDOF 8
