REMARK  Name = ZINC38736590
REMARK  8 active torsions:
REMARK  status: ('A' for Active; 'I' for Inactive)
REMARK    1  A    between atoms: C_1  and  C_2
REMARK    2  A    between atoms: C_2  and  C_3
REMARK    3  A    between atoms: C_2  and  C_4
REMARK    4  A    between atoms: N_6  and  C_7
REMARK    5  A    between atoms: C_10  and  S_13
REMARK    6  A    between atoms: S_13  and  N_16
REMARK    7  A    between atoms: N_16  and  C_17
REMARK    8  A    between atoms: C_20  and  C_23
REMARK                            x       y       z     vdW  Elec       q    Type
REMARK                         _______ _______ _______ _____ _____    ______ ____
ROOT
ATOM      1  N   UNL     1      -7.800  -4.333  -1.826  0.00  0.00    -0.216 N 
ATOM      2  H   UNL     1      -8.506  -3.735  -2.118  0.00  0.00    +0.174 HD
ENDROOT
BRANCH   1   3
ATOM      3  C   UNL     1      -7.274  -5.276  -2.710  0.00  0.00    +0.048 A 
ATOM      4  C   UNL     1      -5.898  -5.452  -2.798  0.00  0.00    +0.025 A 
ATOM      5  C   UNL     1      -5.377  -6.383  -3.671  0.00  0.00    +0.012 A 
ATOM      6  C   UNL     1      -6.230  -7.147  -4.466  0.00  0.00    +0.002 A 
ATOM      7  C   UNL     1      -7.610  -6.968  -4.375  0.00  0.00    +0.012 A 
ATOM      8  C   UNL     1      -8.128  -6.041  -3.497  0.00  0.00    +0.025 A 
BRANCH   6   9
ATOM      9  C   UNL     1      -5.671  -8.148  -5.406  0.00  0.00    +0.093 A 
ATOM     10  C   UNL     1      -6.527  -8.912  -6.208  0.00  0.00    +0.033 A 
ATOM     11  C   UNL     1      -5.958  -9.833  -7.070  0.00  0.00    +0.047 A 
ATOM     12  C   UNL     1      -4.567  -9.943  -7.085  0.00  0.00    +0.144 A 
ATOM     13  N   UNL     1      -3.834  -9.178  -6.290  0.00  0.00    -0.134 NA
ATOM     14  N   UNL     1      -4.359  -8.319  -5.494  0.00  0.00    -0.147 NA
ATOM     15  N   UNL     1      -3.950 -10.855  -7.934  0.00  0.00    -0.314 N 
ATOM     16  C   UNL     1      -2.511 -11.152  -7.974  0.00  0.00    +0.106 C 
ATOM     17  C   UNL     1      -2.290 -12.202  -9.083  0.00  0.00    +0.020 C 
ATOM     18  C   UNL     1      -3.538 -12.020  -9.988  0.00  0.00    +0.020 C 
ATOM     19  C   UNL     1      -4.633 -11.690  -8.940  0.00  0.00    +0.106 C 
ENDBRANCH   6   9
ENDBRANCH   1   3
BRANCH   1  20
ATOM     20  S   UNL     1      -7.220  -4.235  -0.278  0.00  0.00    +0.072 S 
ATOM     21  O   UNL     1      -7.995  -3.245   0.385  0.00  0.00    -0.150 OA
ATOM     22  O   UNL     1      -5.805  -4.153  -0.380  0.00  0.00    -0.150 OA
BRANCH  20  26
ATOM     23  C   UNL     1      -8.145  -8.177   1.751  0.00  0.00    +0.034 A 
ATOM     24  C   UNL     1      -6.904  -7.971   1.163  0.00  0.00    +0.025 A 
ATOM     25  C   UNL     1      -6.625  -6.768   0.545  0.00  0.00    +0.030 A 
ATOM     26  C   UNL     1      -7.580  -5.769   0.511  0.00  0.00    +0.109 A 
ATOM     27  C   UNL     1      -8.816  -5.970   1.096  0.00  0.00    +0.030 A 
ATOM     28  C   UNL     1      -9.104  -7.173   1.710  0.00  0.00    +0.025 A 
BRANCH  23  31
ATOM     29  C   UNL     1      -9.673  -9.913   2.309  0.00  0.00    +0.220 C 
ATOM     30  O   UNL     1     -10.564  -9.284   1.778  0.00  0.00    -0.275 OA
ATOM     31  N   UNL     1      -8.431  -9.395   2.378  0.00  0.00    -0.285 N 
ATOM     32  H   UNL     1      -7.735  -9.866   2.861  0.00  0.00    +0.155 HD
BRANCH  29  34
ATOM     33  C   UNL     1     -11.431 -11.622   2.683  0.00  0.00    +0.017 C 
ATOM     34  C   UNL     1      -9.956 -11.273   2.893  0.00  0.00    +0.069 C 
ATOM     35  C   UNL     1      -9.081 -12.318   2.197  0.00  0.00    +0.017 C 
ENDBRANCH  29  34
ENDBRANCH  23  31
ENDBRANCH  20  26
ENDBRANCH   1  20
TORSDOF 6
