REMARK  Name = ZINC54751996
REMARK  2 active torsions:
REMARK  status: ('A' for Active; 'I' for Inactive)
REMARK    1  A    between atoms: C_5  and  C_7
REMARK    2  A    between atoms: C_16  and  C_18
REMARK                            x       y       z     vdW  Elec       q    Type
REMARK                         _______ _______ _______ _____ _____    ______ ____
ROOT
ATOM      1  C   UNL     1       1.247  -2.164  -0.023  0.00  0.00    +0.005 A 
ATOM      2  C   UNL     1       0.760  -2.857  -1.083  0.00  0.00    +0.056 A 
ATOM      3  S   UNL     1       1.017  -4.559  -0.616  0.00  0.00    -0.076 S 
ATOM      4  C   UNL     1       1.763  -4.303   0.973  0.00  0.00    +0.116 A 
ATOM      5  C   UNL     1       1.801  -2.903   1.103  0.00  0.00    +0.080 A 
ATOM      6  C   UNL     1       2.371  -2.405   2.319  0.00  0.00    +0.261 A 
ATOM      7  O   UNL     1       2.442  -1.205   2.522  0.00  0.00    -0.267 OA
ATOM      8  N   UNL     1       2.827  -3.280   3.235  0.00  0.00    -0.304 N 
ATOM      9  H   UNL     1       3.214  -2.948   4.060  0.00  0.00    +0.170 HD
ATOM     10  C   UNL     1       2.754  -4.628   3.022  0.00  0.00    +0.180 A 
ATOM     11  N   UNL     1       2.227  -5.110   1.919  0.00  0.00    -0.219 NA
ENDROOT
BRANCH   1  16
ATOM     12  C   UNL     1      -0.017   1.376   0.010  0.00  0.00    +0.001 A 
ATOM     13  C   UNL     1       1.170   2.087   0.002  0.00  0.00    +0.001 A 
ATOM     14  C   UNL     1       2.382   1.421  -0.013  0.00  0.00    +0.020 A 
ATOM     15  C   UNL     1       2.414   0.040  -0.021  0.00  0.00    +0.049 A 
ATOM     16  C   UNL     1       1.220  -0.682  -0.014  0.00  0.00    +0.002 A 
ATOM     17  C   UNL     1       0.002  -0.004   0.002  0.00  0.00    +0.010 A 
ATOM     18 CL   UNL     1       3.936  -0.795  -0.042  0.00  0.00    -0.083 Cl
ENDBRANCH   1  16
BRANCH  10  19
ATOM     19  C   UNL     1       3.267  -5.559   4.053  0.00  0.00    +0.196 A 
ATOM     20  N   UNL     1       3.784  -5.066   5.171  0.00  0.00    -0.233 NA
ATOM     21  C   UNL     1       4.250  -5.869   6.111  0.00  0.00    +0.115 A 
ATOM     22  C   UNL     1       4.193  -7.242   5.918  0.00  0.00    +0.039 A 
ATOM     23  C   UNL     1       3.646  -7.724   4.737  0.00  0.00    +0.115 A 
ATOM     24  N   UNL     1       3.192  -6.866   3.840  0.00  0.00    -0.233 NA
ENDBRANCH  10  19
TORSDOF 2
