REMARK  Name = ZINC37099750
REMARK  5 active torsions:
REMARK  status: ('A' for Active; 'I' for Inactive)
REMARK    1  A    between atoms: C_1  and  C_2
REMARK    2  A    between atoms: C_2  and  C_4
REMARK    3  A    between atoms: C_2  and  N_10
REMARK    4  A    between atoms: N_10  and  C_11
REMARK    5  A    between atoms: C_17  and  C_19
REMARK                            x       y       z     vdW  Elec       q    Type
REMARK                         _______ _______ _______ _____ _____    ______ ____
ROOT
ATOM      1  N   UNL     1      -1.183  -0.585  -0.342  0.00  0.00    +0.386 N 
ATOM      2  H   UNL     1      -1.191  -1.575  -0.151  0.00  0.00    -0.085 HD
ATOM      3  H   UNL     1      -1.426  -0.078   0.496  0.00  0.00    -0.085 HD
ENDROOT
BRANCH   1   4
ATOM      4  C   UNL     1      -2.159  -0.282  -1.398  0.00  0.00    -0.059 C 
ATOM      5  C   UNL     1      -2.196   1.229  -1.639  0.00  0.00    -0.015 C 
ATOM      6  C   UNL     1      -2.603   1.942  -0.348  0.00  0.00    -0.002 C 
ATOM      7  C   UNL     1      -3.989   1.460   0.085  0.00  0.00    +0.000 C 
ATOM      8  C   UNL     1      -3.952  -0.050   0.327  0.00  0.00    +0.010 C 
ATOM      9  C   UNL     1      -3.545  -0.763  -0.964  0.00  0.00    +0.079 C 
BRANCH   9  10
ATOM     10  C   UNL     1      -3.507  -2.273  -0.723  0.00  0.00    +0.391 C 
ATOM     11  F   UNL     1      -2.702  -2.548   0.388  0.00  0.00    -0.171 F 
ATOM     12  F   UNL     1      -4.804  -2.740  -0.485  0.00  0.00    -0.171 F 
ATOM     13  F   UNL     1      -2.981  -2.913  -1.850  0.00  0.00    -0.171 F 
ENDBRANCH   9  10
ENDBRANCH   1   4
BRANCH   1  15
ATOM     14  C   UNL     1       0.442   1.248  -0.320  0.00  0.00    -0.008 C 
ATOM     15  C   UNL     1       0.159  -0.182  -0.785  0.00  0.00    -0.037 C 
BRANCH  15  16
ATOM     16  C   UNL     1       1.184  -1.115  -0.194  0.00  0.00    -0.023 A 
ATOM     17  C   UNL     1       2.298  -1.632  -0.767  0.00  0.00    +0.011 A 
ATOM     18  C   UNL     1       3.103  -2.477  -0.025  0.00  0.00    +0.028 A 
ATOM     19  C   UNL     1       2.753  -2.763   1.254  0.00  0.00    +0.078 A 
ATOM     20  S   UNL     1       1.250  -1.818   1.446  0.00  0.00    -0.083 S 
ATOM     21 CL   UNL     1       3.560  -3.779   2.407  0.00  0.00    -0.076 Cl
ENDBRANCH  15  16
ENDBRANCH   1  15
TORSDOF 4
