REMARK  Name = ZINC02631595
REMARK  5 active torsions:
REMARK  status: ('A' for Active; 'I' for Inactive)
REMARK    1  A    between atoms: C_1  and  C_2
REMARK    2  A    between atoms: C_5  and  N_8
REMARK    3  A    between atoms: C_9  and  C_20
REMARK    4  A    between atoms: C_20  and  C_28
REMARK    5  A    between atoms: C_21  and  C_22
REMARK                            x       y       z     vdW  Elec       q    Type
REMARK                         _______ _______ _______ _____ _____    ______ ____
ROOT
ATOM      1  N   UNL     1       2.760  -4.468  -1.622  0.00  0.00    -0.245 N 
ATOM      2  C   UNL     1       2.346  -4.091  -0.270  0.00  0.00    +0.193 C 
ATOM      3  N   UNL     1       3.251  -4.685   0.720  0.00  0.00    -0.321 N 
ATOM      4  C   UNL     1       4.620  -4.655   0.478  0.00  0.00    +0.041 A 
ATOM      5  C   UNL     1       5.542  -4.628   1.511  0.00  0.00    +0.024 A 
ATOM      6  C   UNL     1       6.893  -4.609   1.222  0.00  0.00    +0.002 A 
ATOM      7  C   UNL     1       7.332  -4.617  -0.093  0.00  0.00    +0.001 A 
ATOM      8  C   UNL     1       6.427  -4.639  -1.133  0.00  0.00    +0.015 A 
ATOM      9  C   UNL     1       5.062  -4.654  -0.856  0.00  0.00    +0.058 A 
ATOM     10  C   UNL     1       4.055  -4.653  -1.932  0.00  0.00    +0.254 C 
ATOM     11  O   UNL     1       4.393  -4.818  -3.089  0.00  0.00    -0.270 OA
ATOM     12  H   UNL     1       2.901  -5.092   1.528  0.00  0.00    +0.148 HD
ENDROOT
BRANCH   1  17
ATOM     13  C   UNL     1      -1.173  -5.156  -5.651  0.00  0.00    +0.044 C 
ATOM     14  C   UNL     1      -0.128  -4.973  -4.580  0.00  0.00    -0.050 A 
ATOM     15  C   UNL     1      -0.063  -5.860  -3.522  0.00  0.00    +0.005 A 
ATOM     16  C   UNL     1       0.894  -5.695  -2.539  0.00  0.00    +0.024 A 
ATOM     17  C   UNL     1       1.790  -4.637  -2.615  0.00  0.00    +0.039 A 
ATOM     18  C   UNL     1       1.718  -3.745  -3.677  0.00  0.00    +0.024 A 
ATOM     19  C   UNL     1       0.763  -3.919  -4.660  0.00  0.00    +0.005 A 
ENDBRANCH   1  17
BRANCH   2  20
ATOM     20  C   UNL     1       2.378  -2.590  -0.138  0.00  0.00    -0.034 C 
ATOM     21  C   UNL     1       1.268  -1.927   0.155  0.00  0.00    +0.010 C 
ATOM     22  C   UNL     1       3.671  -1.844  -0.340  0.00  0.00    +0.042 C 
BRANCH  21  23
ATOM     23  C   UNL     1       1.327  -0.478   0.440  0.00  0.00    -0.025 A 
ATOM     24  C   UNL     1       0.304   0.364   0.003  0.00  0.00    +0.008 A 
ATOM     25  C   UNL     1       0.365   1.716   0.272  0.00  0.00    +0.001 A 
ATOM     26  C   UNL     1       1.437   2.237   0.975  0.00  0.00    +0.000 A 
ATOM     27  C   UNL     1       2.454   1.407   1.411  0.00  0.00    +0.001 A 
ATOM     28  C   UNL     1       2.405   0.053   1.149  0.00  0.00    +0.008 A 
ENDBRANCH  21  23
ENDBRANCH   2  20
TORSDOF 3
