REMARK  Name = ZINC22644748
REMARK  8 active torsions:
REMARK  status: ('A' for Active; 'I' for Inactive)
REMARK    1  A    between atoms: C_1  and  C_2
REMARK    2  A    between atoms: C_11  and  N_30
REMARK    3  A    between atoms: C_13  and  S_15
REMARK    4  A    between atoms: S_15  and  C_16
REMARK    5  A    between atoms: C_16  and  C_17
REMARK    6  A    between atoms: N_19  and  C_20
REMARK    7  A    between atoms: C_24  and  S_26
REMARK    8  A    between atoms: S_26  and  C_29
REMARK                            x       y       z     vdW  Elec       q    Type
REMARK                         _______ _______ _______ _____ _____    ______ ____
ROOT
ATOM      1  C   UNL     1      -1.568   1.109  -2.042  0.00  0.00    +0.008 C 
ATOM      2  C   UNL     1      -0.077   1.335  -1.786  0.00  0.00    -0.009 C 
ATOM      3  C   UNL     1       0.368   0.521  -0.567  0.00  0.00    +0.008 C 
ATOM      4  C   UNL     1       1.892   0.544  -0.456  0.00  0.00    +0.037 C 
ATOM      5  C   UNL     1       2.370   1.994  -0.486  0.00  0.00    -0.025 A 
ATOM      6  C   UNL     1       1.567   2.971  -0.962  0.00  0.00    -0.004 A 
ATOM      7  S   UNL     1       2.511   4.468  -0.809  0.00  0.00    -0.073 S 
ATOM      8  C   UNL     1       3.978   3.784  -0.110  0.00  0.00    +0.115 A 
ATOM      9  C   UNL     1       3.685   2.400  -0.016  0.00  0.00    +0.051 A 
ATOM     10  C   UNL     1       4.701   1.559   0.523  0.00  0.00    +0.129 A 
ATOM     11  N   UNL     1       5.828   2.166   0.887  0.00  0.00    -0.207 NA
ATOM     12  C   UNL     1       6.035   3.470   0.770  0.00  0.00    +0.191 A 
ATOM     13  N   UNL     1       5.125   4.310   0.273  0.00  0.00    -0.214 NA
ATOM     14  C   UNL     1       0.178   2.822  -1.503  0.00  0.00    +0.046 C 
ENDROOT
BRANCH  10  15
ATOM     15  N   UNL     1       4.526   0.194   0.663  0.00  0.00    -0.343 N 
ATOM     16  H   UNL     1       5.333  -0.424   1.083  0.00  0.00    +0.144 HD
ATOM     17  H   UNL     1       3.580  -0.274   0.353  0.00  0.00    +0.144 HD
ENDBRANCH  10  15
BRANCH  12  18
ATOM     18  S   UNL     1       7.585   4.124   1.296  0.00  0.00    -0.077 S 
BRANCH  18  19
ATOM     19  C   UNL     1       8.394   2.605   1.856  0.00  0.00    +0.173 C 
BRANCH  19  20
ATOM     20  C   UNL     1       9.775   2.930   2.364  0.00  0.00    +0.227 C 
ATOM     21  O   UNL     1      10.173   4.076   2.349  0.00  0.00    -0.275 OA
ATOM     22  N   UNL     1      10.568   1.947   2.835  0.00  0.00    -0.285 N 
ATOM     23  H   UNL     1      10.178   0.923   2.930  0.00  0.00    +0.155 HD
BRANCH  22  24
ATOM     24  C   UNL     1      11.888   2.230   3.205  0.00  0.00    +0.035 A 
ATOM     25  C   UNL     1      12.610   3.198   2.519  0.00  0.00    +0.023 A 
ATOM     26  C   UNL     1      13.911   3.478   2.889  0.00  0.00    +0.004 A 
ATOM     27  C   UNL     1      14.497   2.788   3.935  0.00  0.00    +0.027 A 
ATOM     28  C   UNL     1      13.783   1.821   4.616  0.00  0.00    +0.090 A 
ATOM     29  C   UNL     1      12.480   1.539   4.254  0.00  0.00    +0.050 A 
BRANCH  28  30
ATOM     30  S   UNL     1      14.535   0.945   5.947  0.00  0.00    -0.006 S 
ATOM     31  O   UNL     1      15.532   1.827   6.444  0.00  0.00    -0.170 OA
ATOM     32  O   UNL     1      13.451   0.538   6.772  0.00  0.00    -0.170 OA
ATOM     33  C   UNL     1      15.309  -0.503   5.175  0.00  0.00    +0.200 C 
ENDBRANCH  28  30
ENDBRANCH  22  24
ENDBRANCH  19  20
ENDBRANCH  18  19
ENDBRANCH  12  18
TORSDOF 6
