REMARK  Name = ZINC05459053
REMARK  4 active torsions:
REMARK  status: ('A' for Active; 'I' for Inactive)
REMARK    1  A    between atoms: C_1  and  C_2
REMARK    2  A    between atoms: C_2  and  C_3
REMARK    3  A    between atoms: C_6  and  C_9
REMARK    4  A    between atoms: C_12  and  C_24
REMARK                            x       y       z     vdW  Elec       q    Type
REMARK                         _______ _______ _______ _____ _____    ______ ____
ROOT
ATOM      1  C   UNL     1      -5.419  -2.005   0.043  0.00  0.00    +0.122 C 
ATOM      2  C   UNL     1      -6.339  -1.011  -0.675  0.00  0.00    +0.057 C 
ATOM      3  C   UNL     1      -7.715  -1.649  -0.899  0.00  0.00    +0.106 C 
ATOM      4  N   UNL     1      -7.553  -2.814  -1.788  0.00  0.00    -0.309 N 
ATOM      5  C   UNL     1      -6.483  -3.654  -1.516  0.00  0.00    +0.175 A 
ATOM      6  N   UNL     1      -5.471  -3.293  -0.654  0.00  0.00    -0.306 N 
ATOM      7  C   UNL     1      -4.590  -4.337  -0.604  0.00  0.00    +0.069 A 
ATOM      8  C   UNL     1      -3.402  -4.538   0.089  0.00  0.00    +0.028 A 
ATOM      9  C   UNL     1      -2.756  -5.748  -0.104  0.00  0.00    +0.002 A 
ATOM     10  C   UNL     1      -3.260  -6.723  -0.948  0.00  0.00    +0.002 A 
ATOM     11  C   UNL     1      -4.440  -6.548  -1.649  0.00  0.00    +0.028 A 
ATOM     12  C   UNL     1      -5.110  -5.333  -1.468  0.00  0.00    +0.065 A 
ATOM     13  N   UNL     1      -6.260  -4.850  -1.992  0.00  0.00    -0.327 N 
ATOM     14  H   UNL     1      -8.162  -2.985  -2.523  0.00  0.00    +0.149 HD
ATOM     15  H   UNL     1      -6.832  -5.320  -2.619  0.00  0.00    +0.169 HD
ENDROOT
BRANCH   3  16
ATOM     16  C   UNL     1      -8.289  -2.091   0.422  0.00  0.00    -0.027 A 
ATOM     17  C   UNL     1      -7.867  -3.276   0.997  0.00  0.00    +0.008 A 
ATOM     18  C   UNL     1      -8.393  -3.682   2.209  0.00  0.00    +0.038 A 
ATOM     19  C   UNL     1      -9.342  -2.902   2.848  0.00  0.00    +0.123 A 
ATOM     20  C   UNL     1      -9.763  -1.715   2.271  0.00  0.00    +0.038 A 
ATOM     21  C   UNL     1      -9.232  -1.308   1.062  0.00  0.00    +0.008 A 
ATOM     22  F   UNL     1      -9.857  -3.298   4.032  0.00  0.00    -0.205 F 
ENDBRANCH   3  16
BRANCH   1  26
ATOM     23  C   UNL     1      -1.412  -0.526   0.013  0.00  0.00    -0.048 A 
ATOM     24  C   UNL     1      -2.051  -0.766   1.215  0.00  0.00    +0.004 A 
ATOM     25  C   UNL     1      -3.348  -1.244   1.225  0.00  0.00    +0.006 A 
ATOM     26  C   UNL     1      -4.006  -1.482   0.032  0.00  0.00    -0.025 A 
ATOM     27  C   UNL     1      -3.367  -1.241  -1.170  0.00  0.00    +0.006 A 
ATOM     28  C   UNL     1      -2.072  -0.758  -1.179  0.00  0.00    +0.004 A 
BRANCH  23  30
ATOM     29  C   UNL     1      -0.019   1.526   0.010  0.00  0.00    +0.009 C 
ATOM     30  C   UNL     1       0.002  -0.004   0.002  0.00  0.00    +0.032 C 
ENDBRANCH  23  30
ENDBRANCH   1  26
TORSDOF 3
