REMARK  Name = ZINC13064705
REMARK  12 active torsions:
REMARK  status: ('A' for Active; 'I' for Inactive)
REMARK    1  A    between atoms: C_1  and  C_2
REMARK    2  A    between atoms: C_2  and  C_3
REMARK    3  A    between atoms: C_3  and  C_5
REMARK    4  A    between atoms: C_3  and  N_66
REMARK    5  A    between atoms: N_9  and  C_10
REMARK    6  A    between atoms: C_10  and  C_11
REMARK    7  A    between atoms: C_16  and  C_17
REMARK    8  A    between atoms: C_16  and  N_66
REMARK    9  A    between atoms: C_23  and  C_24
REMARK   10  A    between atoms: C_23  and  N_66
REMARK   11  A    between atoms: C_28  and  C_37
REMARK   12  A    between atoms: C_29  and  C_36
REMARK                            x       y       z     vdW  Elec       q    Type
REMARK                         _______ _______ _______ _____ _____    ______ ____
ROOT
ATOM      1  N   UNL     1      -5.463   4.055  -1.792  0.00  0.00    +0.392 N 
ATOM      2  H   UNL     1      -4.910   4.435  -2.569  0.00  0.00    -0.080 HD
ENDROOT
BRANCH   1   3
ATOM      3  C   UNL     1      -6.782   4.722  -1.769  0.00  0.00    +0.003 C 
BRANCH   3   4
ATOM      4  C   UNL     1      -6.603   6.154  -2.205  0.00  0.00    +0.139 A 
ATOM      5  N   UNL     1      -5.643   6.969  -1.842  0.00  0.00    -0.115 NA
ATOM      6  N   UNL     1      -5.839   8.100  -2.427  0.00  0.00    -0.023 NA
ATOM      7  N   UNL     1      -6.899   8.028  -3.154  0.00  0.00    -0.044 NA
ATOM      8  N   UNL     1      -7.396   6.842  -3.048  0.00  0.00    -0.223 N 
BRANCH   8   9
ATOM      9  C   UNL     1      -8.599   6.340  -3.716  0.00  0.00    +0.221 C 
BRANCH   9  10
ATOM     10  C   UNL     1      -9.802   6.601  -2.848  0.00  0.00    +0.126 A 
ATOM     11  C   UNL     1     -10.564   7.709  -2.872  0.00  0.00    +0.046 A 
ATOM     12  C   UNL     1     -11.577   7.531  -1.902  0.00  0.00    +0.041 A 
ATOM     13  C   UNL     1     -11.369   6.328  -1.337  0.00  0.00    +0.195 A 
ATOM     14  O   UNL     1     -10.292   5.770  -1.914  0.00  0.00    -0.466 OA
ENDBRANCH   9  10
ENDBRANCH   8   9
ENDBRANCH   3   4
BRANCH   3  16
ATOM     15  C   UNL     1      -7.681   3.242   0.031  0.00  0.00    +0.002 C 
ATOM     16  C   UNL     1      -7.373   4.689  -0.358  0.00  0.00    -0.011 C 
ENDBRANCH   3  16
ENDBRANCH   1   3
BRANCH   1  17
ATOM     17  C   UNL     1      -5.637   2.601  -1.993  0.00  0.00    -0.042 C 
BRANCH  17  18
ATOM     18  C   UNL     1      -6.098   2.358  -3.407  0.00  0.00    -0.064 A 
ATOM     19  C   UNL     1      -7.445   2.207  -3.679  0.00  0.00    +0.002 A 
ATOM     20  C   UNL     1      -7.868   1.990  -4.976  0.00  0.00    +0.000 A 
ATOM     21  C   UNL     1      -6.944   1.912  -6.001  0.00  0.00    +0.000 A 
ATOM     22  C   UNL     1      -5.596   2.057  -5.729  0.00  0.00    +0.000 A 
ATOM     23  C   UNL     1      -5.173   2.280  -4.432  0.00  0.00    +0.002 A 
ENDBRANCH  17  18
ENDBRANCH   1  17
BRANCH   1  24
ATOM     24  C   UNL     1      -4.747   4.308  -0.524  0.00  0.00    -0.036 C 
BRANCH  24  25
ATOM     25  C   UNL     1      -3.305   3.903  -0.693  0.00  0.00    +0.001 A 
ATOM     26  C   UNL     1      -2.379   4.831  -1.040  0.00  0.00    +0.017 A 
ATOM     27  C   UNL     1      -0.988   4.405  -1.201  0.00  0.00    -0.001 A 
ATOM     28  C   UNL     1       0.009   5.313  -1.574  0.00  0.00    +0.013 A 
ATOM     29  C   UNL     1       1.297   4.884  -1.716  0.00  0.00    -0.047 A 
ATOM     30  C   UNL     1       1.628   3.554  -1.493  0.00  0.00    -0.046 A 
ATOM     31  C   UNL     1       0.662   2.642  -1.125  0.00  0.00    +0.030 A 
ATOM     32  C   UNL     1      -0.658   3.055  -0.980  0.00  0.00    +0.049 A 
ATOM     33  N   UNL     1      -1.645   2.163  -0.618  0.00  0.00    -0.322 N 
ATOM     34  H   UNL     1      -1.415   1.233  -0.462  0.00  0.00    +0.169 HD
ATOM     35  C   UNL     1      -2.921   2.562  -0.477  0.00  0.00    +0.251 A 
ATOM     36  O   UNL     1      -3.767   1.746  -0.156  0.00  0.00    -0.268 OA
ATOM     37  C   UNL     1       3.056   3.103  -1.656  0.00  0.00    +0.044 C 
ATOM     38  C   UNL     1       2.371   5.862  -2.118  0.00  0.00    +0.044 C 
ENDBRANCH  24  25
ENDBRANCH   1  24
TORSDOF 9
