REMARK  Name = ZINC35929762
REMARK  3 active torsions:
REMARK  status: ('A' for Active; 'I' for Inactive)
REMARK    1  A    between atoms: C_1  and  N_2
REMARK    2  A    between atoms: C_3  and  N_23
REMARK    3  A    between atoms: C_5  and  C_16
REMARK                            x       y       z     vdW  Elec       q    Type
REMARK                         _______ _______ _______ _____ _____    ______ ____
ROOT
ATOM      1  C   UNL     1      -1.107   1.268  -0.017  0.00  0.00    +0.174 C 
ATOM      2  N   UNL     1      -0.610  -0.110  -0.013  0.00  0.00    -0.251 N 
ATOM      3  C   UNL     1      -0.283  -0.816  -1.109  0.00  0.00    +0.126 A 
ATOM      4  C   UNL     1       0.142  -2.070  -0.688  0.00  0.00    +0.086 A 
ATOM      5  C   UNL     1       0.607  -3.246  -1.319  0.00  0.00    +0.090 A 
ATOM      6  N   UNL     1       0.931  -4.282  -0.556  0.00  0.00    -0.213 NA
ATOM      7  C   UNL     1       0.830  -4.244   0.769  0.00  0.00    +0.220 A 
ATOM      8  N   UNL     1       0.406  -3.191   1.438  0.00  0.00    -0.193 NA
ATOM      9  C   UNL     1       0.045  -2.070   0.783  0.00  0.00    +0.188 A 
ATOM     10  N   UNL     1      -0.400  -0.884   1.134  0.00  0.00    -0.149 NA
ATOM     11  N   UNL     1       1.189  -5.372   1.485  0.00  0.00    -0.300 N 
ATOM     12  C   UNL     1       1.688  -6.629   0.909  0.00  0.00    +0.108 C 
ATOM     13  C   UNL     1       1.931  -7.605   2.080  0.00  0.00    +0.020 C 
ATOM     14  C   UNL     1       1.022  -7.036   3.201  0.00  0.00    +0.020 C 
ATOM     15  C   UNL     1       1.142  -5.509   2.952  0.00  0.00    +0.108 C 
ENDROOT
BRANCH   5  16
ATOM     16  C   UNL     1       0.731  -3.319  -2.792  0.00  0.00    +0.020 A 
ATOM     17  C   UNL     1       1.517  -2.392  -3.476  0.00  0.00    +0.011 A 
ATOM     18  C   UNL     1       1.628  -2.466  -4.849  0.00  0.00    +0.001 A 
ATOM     19  C   UNL     1       0.961  -3.457  -5.549  0.00  0.00    +0.001 A 
ATOM     20  C   UNL     1       0.179  -4.378  -4.878  0.00  0.00    +0.020 A 
ATOM     21  C   UNL     1       0.065  -4.320  -3.502  0.00  0.00    +0.050 A 
ATOM     22 CL   UNL     1      -0.911  -5.483  -2.659  0.00  0.00    -0.083 Cl
ENDBRANCH   5  16
BRANCH   3  23
ATOM     23  N   UNL     1      -0.356  -0.374  -2.417  0.00  0.00    -0.343 N 
ATOM     24  H   UNL     1      -0.553   0.557  -2.604  0.00  0.00    +0.144 HD
ATOM     25  H   UNL     1      -0.210  -0.995  -3.148  0.00  0.00    +0.144 HD
ENDBRANCH   3  23
TORSDOF 2
