REMARK  Name = ZINC20872491
REMARK  14 active torsions:
REMARK  status: ('A' for Active; 'I' for Inactive)
REMARK    1  A    between atoms: C_1  and  C_2
REMARK    2  A    between atoms: C_2  and  C_3
REMARK    3  A    between atoms: C_2  and  C_4
REMARK    4  A    between atoms: C_2  and  N_5
REMARK    5  A    between atoms: C_6  and  C_8
REMARK    6  A    between atoms: C_8  and  O_9
REMARK    7  A    between atoms: O_9  and  C_10
REMARK    8  A    between atoms: C_15  and  C_16
REMARK    9  A    between atoms: C_16  and  N_17
REMARK   10  A    between atoms: N_17  and  C_18
REMARK   11  A    between atoms: C_18  and  C_19
REMARK   12  A    between atoms: C_19  and  S_20
REMARK   13  A    between atoms: S_20  and  C_21
REMARK   14  A    between atoms: N_25  and  C_26
REMARK                            x       y       z     vdW  Elec       q    Type
REMARK                         _______ _______ _______ _____ _____    ______ ____
ROOT
ATOM      1  C   UNL     1      -2.505   0.019   0.025  0.00  0.00    -0.043 C 
ENDROOT
BRANCH   1   7
ATOM      2  C   UNL     1       0.002  -0.004   0.002  0.00  0.00    +0.123 A 
ATOM      3  C   UNL     1       1.212  -0.682  -0.019  0.00  0.00    +0.046 A 
ATOM      4  C   UNL     1       1.228  -2.064  -0.021  0.00  0.00    +0.004 A 
ATOM      5  C   UNL     1       0.040  -2.770  -0.013  0.00  0.00    +0.000 A 
ATOM      6  C   UNL     1      -1.167  -2.096   0.002  0.00  0.00    +0.005 A 
ATOM      7  C   UNL     1      -1.189  -0.715   0.010  0.00  0.00    -0.023 A 
BRANCH   2   8
ATOM      8  O   UNL     1      -0.016   1.355   0.009  0.00  0.00    -0.483 OA
BRANCH   8   9
ATOM      9  C   UNL     1       1.248   2.021   0.001  0.00  0.00    +0.324 C 
BRANCH   9  11
ATOM     10  N   UNL     1       2.088   4.347   0.005  0.00  0.00    -0.308 N 
ATOM     11  C   UNL     1       1.030   3.512   0.011  0.00  0.00    +0.251 C 
ATOM     12  O   UNL     1      -0.097   3.960   0.024  0.00  0.00    -0.272 OA
ATOM     13  H   UNL     1       3.110   3.941  -0.006  0.00  0.00    +0.149 HD
BRANCH  10  15
ATOM     14  C   UNL     1       1.101   6.191   1.274  0.00  0.00    +0.031 C 
ATOM     15  C   UNL     1       1.876   5.797   0.015  0.00  0.00    +0.026 C 
ATOM     16  C   UNL     1       3.230   6.510   0.006  0.00  0.00    +0.031 C 
ATOM     17  C   UNL     1       1.077   6.204  -1.224  0.00  0.00    +0.031 C 
ENDBRANCH  10  15
ENDBRANCH   9  11
ENDBRANCH   8   9
ENDBRANCH   2   8
ENDBRANCH   1   7
BRANCH   1  18
ATOM     18  N   UNL     1      -2.828   0.474  -1.333  0.00  0.00    +0.382 N 
ATOM     19  H   UNL     1      -2.037   1.149  -1.692  0.00  0.00    -0.085 HD
ATOM     20  H   UNL     1      -2.901  -0.395  -2.004  0.00  0.00    -0.085 HD
BRANCH  18  21
ATOM     21  C   UNL     1      -4.108   1.195  -1.356  0.00  0.00    -0.071 C 
BRANCH  21  22
ATOM     22  C   UNL     1      -4.410   1.653  -2.785  0.00  0.00    +0.058 C 
BRANCH  22  23
ATOM     23  S   UNL     1      -5.987   2.541  -2.813  0.00  0.00    -0.086 S 
BRANCH  23  24
ATOM     24  C   UNL     1      -6.082   2.940  -4.527  0.00  0.00    +0.214 A 
ATOM     25  N   UNL     1      -5.199   2.632  -5.452  0.00  0.00    -0.101 NA
ATOM     26  N   UNL     1      -5.575   3.074  -6.598  0.00  0.00    -0.022 NA
ATOM     27  N   UNL     1      -6.705   3.686  -6.495  0.00  0.00    -0.038 NA
ATOM     28  N   UNL     1      -7.083   3.619  -5.142  0.00  0.00    -0.187 N 
BRANCH  28  29
ATOM     29  C   UNL     1      -8.244   4.142  -4.556  0.00  0.00    +0.070 A 
ATOM     30  C   UNL     1      -8.861   3.467  -3.511  0.00  0.00    +0.028 A 
ATOM     31  C   UNL     1     -10.001   3.988  -2.932  0.00  0.00    +0.002 A 
ATOM     32  C   UNL     1     -10.535   5.175  -3.398  0.00  0.00    +0.000 A 
ATOM     33  C   UNL     1      -9.925   5.848  -4.442  0.00  0.00    +0.002 A 
ATOM     34  C   UNL     1      -8.782   5.334  -5.022  0.00  0.00    +0.028 A 
ENDBRANCH  28  29
ENDBRANCH  23  24
ENDBRANCH  22  23
ENDBRANCH  21  22
ENDBRANCH  18  21
ENDBRANCH   1  18
TORSDOF 11
