REMARK  Name = ZINC45511181
REMARK  10 active torsions:
REMARK  status: ('A' for Active; 'I' for Inactive)
REMARK    1  A    between atoms: C_1  and  C_2
REMARK    2  A    between atoms: C_2  and  N_3
REMARK    3  A    between atoms: C_5  and  C_14
REMARK    4  A    between atoms: C_14  and  N_15
REMARK    5  A    between atoms: N_15  and  C_16
REMARK    6  A    between atoms: N_15  and  C_17
REMARK    7  A    between atoms: C_17  and  C_18
REMARK    8  A    between atoms: N_20  and  C_21
REMARK    9  A    between atoms: C_22  and  C_29
REMARK   10  A    between atoms: C_24  and  C_28
REMARK                            x       y       z     vdW  Elec       q    Type
REMARK                         _______ _______ _______ _____ _____    ______ ____
ROOT
ATOM      1  N   UNL     1      -5.535   1.198   4.914  0.00  0.00    +0.386 N 
ATOM      2  C   UNL     1      -5.938   1.900   6.139  0.00  0.00    -0.095 C 
ATOM      3  H   UNL     1      -5.589   1.832   4.130  0.00  0.00    -0.081 HD
ENDROOT
BRANCH   1   4
ATOM      4  C   UNL     1      -4.155   0.714   5.058  0.00  0.00    -0.032 C 
BRANCH   4   7
ATOM      5  N   UNL     1      -0.883   2.585   5.383  0.00  0.00    -0.324 N 
ATOM      6  C   UNL     1      -1.762   1.404   5.322  0.00  0.00    +0.147 C 
ATOM      7  C   UNL     1      -3.205   1.907   5.172  0.00  0.00    +0.174 C 
ATOM      8  O   UNL     1      -3.293   2.708   3.990  0.00  0.00    -0.487 OA
ATOM      9  C   UNL     1      -2.362   3.683   3.815  0.00  0.00    +0.142 A 
ATOM     10  C   UNL     1      -1.153   3.645   4.503  0.00  0.00    +0.072 A 
ATOM     11  C   UNL     1      -0.215   4.647   4.315  0.00  0.00    +0.027 A 
ATOM     12  C   UNL     1      -0.486   5.691   3.449  0.00  0.00    +0.002 A 
ATOM     13  C   UNL     1      -1.690   5.733   2.772  0.00  0.00    +0.004 A 
ATOM     14  C   UNL     1      -2.622   4.731   2.946  0.00  0.00    +0.047 A 
BRANCH   5  16
ATOM     15  C   UNL     1      -0.258   3.270   7.646  0.00  0.00    +0.024 C 
ATOM     16  C   UNL     1       0.230   2.653   6.333  0.00  0.00    +0.102 C 
ENDBRANCH   5  16
ENDBRANCH   4   7
ENDBRANCH   1   4
BRANCH   1  17
ATOM     17  C   UNL     1      -6.432   0.058   4.684  0.00  0.00    +0.019 C 
BRANCH  17  18
ATOM     18  C   UNL     1      -7.827   0.563   4.415  0.00  0.00    +0.201 C 
ATOM     19  O   UNL     1      -8.050   1.755   4.413  0.00  0.00    -0.278 OA
ATOM     20  N   UNL     1      -8.825  -0.310   4.175  0.00  0.00    -0.286 N 
ATOM     21  H   UNL     1      -8.633  -1.258   4.104  0.00  0.00    +0.155 HD
BRANCH  20  22
ATOM     22  C   UNL     1     -10.138   0.151   4.028  0.00  0.00    +0.055 A 
ATOM     23  C   UNL     1     -10.961   0.271   5.140  0.00  0.00    -0.028 A 
ATOM     24  C   UNL     1     -12.257   0.727   4.992  0.00  0.00    +0.008 A 
ATOM     25  C   UNL     1     -12.735   1.064   3.739  0.00  0.00    -0.049 A 
ATOM     26  C   UNL     1     -11.918   0.946   2.630  0.00  0.00    +0.025 A 
ATOM     27  C   UNL     1     -10.619   0.496   2.771  0.00  0.00    +0.063 A 
ATOM     28 CL   UNL     1      -9.592   0.355   1.379  0.00  0.00    -0.082 Cl
ATOM     29  C   UNL     1     -14.149   1.560   3.582  0.00  0.00    +0.044 C 
ATOM     30  C   UNL     1     -10.442  -0.096   6.506  0.00  0.00    +0.046 C 
ENDBRANCH  20  22
ENDBRANCH  17  18
ENDBRANCH   1  17
TORSDOF 6
