REMARK  Name = ZINC08280163
REMARK  5 active torsions:
REMARK  status: ('A' for Active; 'I' for Inactive)
REMARK    1  A    between atoms: C_1  and  C_2
REMARK    2  A    between atoms: C_8  and  C_14
REMARK    3  A    between atoms: C_11  and  C_13
REMARK    4  A    between atoms: N_16  and  C_17
REMARK    5  A    between atoms: C_20  and  N_23
REMARK                            x       y       z     vdW  Elec       q    Type
REMARK                         _______ _______ _______ _____ _____    ______ ____
ROOT
ATOM      1  C   UNL     1       8.425  -0.105  -1.145  0.00  0.00    +0.252 C 
ATOM      2  O   UNL     1       7.815  -1.101  -1.484  0.00  0.00    -0.270 OA
ATOM      3  N   UNL     1       7.753   1.001  -0.769  0.00  0.00    -0.281 N 
ATOM      4  H   UNL     1       8.236   1.819  -0.574  0.00  0.00    +0.155 HD
ENDROOT
BRANCH   1  11
ATOM      5  C   UNL     1      13.569  -3.131  -1.055  0.00  0.00    +0.016 C 
ATOM      6  C   UNL     1      12.465  -2.603  -1.974  0.00  0.00    +0.060 C 
ATOM      7  C   UNL     1      11.991  -1.235  -1.523  0.00  0.00    +0.001 A 
ATOM      8  C   UNL     1      12.672  -0.101  -1.141  0.00  0.00    +0.007 A 
ATOM      9  C   UNL     1      11.979   1.035  -0.755  0.00  0.00    +0.001 A 
ATOM     10  C   UNL     1      10.601   1.036  -0.761  0.00  0.00    +0.017 A 
ATOM     11  C   UNL     1       9.900  -0.108  -1.144  0.00  0.00    +0.079 A 
ATOM     12  C   UNL     1      10.603  -1.262  -1.536  0.00  0.00    +0.137 A 
ATOM     13  O   UNL     1      10.136  -2.466  -1.958  0.00  0.00    -0.487 OA
ATOM     14  C   UNL     1      11.177  -3.449  -1.833  0.00  0.00    +0.178 C 
ATOM     15  C   UNL     1      11.083  -4.485  -2.955  0.00  0.00    +0.052 C 
ENDBRANCH   1  11
BRANCH   3  16
ATOM     16  C   UNL     1       6.358   0.969  -0.660  0.00  0.00    +0.034 A 
ATOM     17  C   UNL     1       5.609   2.092  -0.989  0.00  0.00    +0.025 A 
ATOM     18  C   UNL     1       4.234   2.061  -0.881  0.00  0.00    +0.025 A 
ATOM     19  C   UNL     1       3.598   0.906  -0.443  0.00  0.00    +0.036 A 
ATOM     20  C   UNL     1       4.346  -0.215  -0.109  0.00  0.00    +0.025 A 
ATOM     21  C   UNL     1       5.721  -0.185  -0.223  0.00  0.00    +0.025 A 
BRANCH  19  22
ATOM     22  N   UNL     1       2.202   0.875  -0.333  0.00  0.00    -0.271 N 
ATOM     23  C   UNL     1       1.328   2.035  -0.544  0.00  0.00    +0.114 C 
ATOM     24  C   UNL     1      -0.088   1.452  -0.750  0.00  0.00    +0.029 C 
ATOM     25  C   UNL     1       0.013   0.105   0.002  0.00  0.00    +0.098 C 
ATOM     26  C   UNL     1       1.490  -0.221  -0.019  0.00  0.00    +0.220 C 
ATOM     27  O   UNL     1       1.964  -1.313   0.215  0.00  0.00    -0.275 OA
ENDBRANCH  19  22
ENDBRANCH   3  16
TORSDOF 3
