REMARK  Name = ZINC42607921
REMARK  6 active torsions:
REMARK  status: ('A' for Active; 'I' for Inactive)
REMARK    1  A    between atoms: C_1  and  C_2
REMARK    2  A    between atoms: C_4  and  C_22
REMARK    3  A    between atoms: C_7  and  C_8
REMARK    4  A    between atoms: N_11  and  C_12
REMARK    5  A    between atoms: N_11  and  C_13
REMARK    6  A    between atoms: C_19  and  C_21
REMARK                            x       y       z     vdW  Elec       q    Type
REMARK                         _______ _______ _______ _____ _____    ______ ____
ROOT
ATOM      1  C   UNL     1      -0.402   1.875  -0.138  0.00  0.00    +0.044 C 
ATOM      2  C   UNL     1       0.140   0.470  -0.210  0.00  0.00    -0.035 A 
ATOM      3  C   UNL     1       0.389  -0.132  -1.431  0.00  0.00    +0.027 A 
ATOM      4  C   UNL     1       0.886  -1.422  -1.466  0.00  0.00    +0.041 A 
ATOM      5  N   UNL     1       1.128  -2.091  -0.355  0.00  0.00    -0.236 NA
ATOM      6  C   UNL     1       0.907  -1.562   0.839  0.00  0.00    +0.132 A 
ATOM      7  C   UNL     1       0.408  -0.254   0.955  0.00  0.00    +0.055 A 
ATOM      8  N   UNL     1       1.175  -2.300   1.978  0.00  0.00    -0.314 N 
ATOM      9  C   UNL     1       1.070  -1.674   3.298  0.00  0.00    +0.131 C 
ATOM     10  C   UNL     1       1.156  -2.076  -2.796  0.00  0.00    +0.065 C 
ENDROOT
BRANCH   7  11
ATOM     11  C   UNL     1       0.166   0.342   2.284  0.00  0.00    +0.098 C 
ATOM     12  N   UNL     1       1.131   1.036   2.888  0.00  0.00    -0.387 N 
ATOM     13  N   UNL     1      -1.017   0.188   2.878  0.00  0.00    -0.344 N 
ATOM     14  H   UNL     1       0.972   1.428   3.761  0.00  0.00    +0.157 HD
ATOM     15  H   UNL     1      -1.703  -0.355   2.459  0.00  0.00    +0.144 HD
ATOM     16  H   UNL     1      -1.191   0.618   3.730  0.00  0.00    +0.144 HD
ATOM     17  H   UNL     1       1.992   1.148   2.456  0.00  0.00    +0.157 HD
ENDBRANCH   7  11
BRANCH   8  18
ATOM     18  C   UNL     1       1.563  -3.708   1.864  0.00  0.00    +0.077 C 
ATOM     19  C   UNL     1       0.584  -4.574   2.660  0.00  0.00    +0.023 C 
ATOM     20  C   UNL     1       0.612  -4.154   4.131  0.00  0.00    +0.002 C 
ATOM     21  C   UNL     1       2.025  -4.340   4.687  0.00  0.00    +0.000 C 
ATOM     22  C   UNL     1       3.004  -3.475   3.892  0.00  0.00    +0.005 C 
ATOM     23  C   UNL     1       2.976  -3.894   2.420  0.00  0.00    +0.006 C 
ATOM     24  C   UNL     1       3.956  -3.030   1.625  0.00  0.00    +0.009 C 
ENDBRANCH   8  18
TORSDOF 2
