REMARK  Name = ZINC10748450
REMARK  12 active torsions:
REMARK  status: ('A' for Active; 'I' for Inactive)
REMARK    1  A    between atoms: C_1  and  C_2
REMARK    2  A    between atoms: C_2  and  C_3
REMARK    3  A    between atoms: C_3  and  C_5
REMARK    4  A    between atoms: C_3  and  C_6
REMARK    5  A    between atoms: C_11  and  N_12
REMARK    6  A    between atoms: C_13  and  C_15
REMARK    7  A    between atoms: C_15  and  C_17
REMARK    8  A    between atoms: C_15  and  O_18
REMARK    9  A    between atoms: O_18  and  C_19
REMARK   10  A    between atoms: C_19  and  C_21
REMARK   11  A    between atoms: C_21  and  N_22
REMARK   12  A    between atoms: C_30  and  C_32
REMARK                            x       y       z     vdW  Elec       q    Type
REMARK                         _______ _______ _______ _____ _____    ______ ____
ROOT
ATOM      1  O   UNL     1      -3.836  -2.267   5.609  0.00  0.00    -0.451 OA
ENDROOT
BRANCH   1   2
ATOM      2  C   UNL     1      -3.580  -1.480   4.415  0.00  0.00    +0.259 C 
ATOM      3  C   UNL     1      -4.905  -0.963   3.851  0.00  0.00    +0.062 C 
BRANCH   2   5
ATOM      4  N   UNL     1      -2.470  -1.794   2.228  0.00  0.00    -0.282 N 
ATOM      5  C   UNL     1      -2.897  -2.340   3.384  0.00  0.00    +0.258 C 
ATOM      6  O   UNL     1      -2.731  -3.523   3.594  0.00  0.00    -0.271 OA
ATOM      7  H   UNL     1      -2.550  -0.839   2.083  0.00  0.00    +0.155 HD
BRANCH   4  13
ATOM      8  C   UNL     1      -1.961  -2.215  -0.096  0.00  0.00    -0.023 A 
ATOM      9  C   UNL     1      -1.403  -3.017  -1.072  0.00  0.00    +0.006 A 
ATOM     10  C   UNL     1      -0.798  -4.211  -0.726  0.00  0.00    +0.000 A 
ATOM     11  C   UNL     1      -0.750  -4.606   0.598  0.00  0.00    +0.002 A 
ATOM     12  C   UNL     1      -1.307  -3.810   1.579  0.00  0.00    +0.023 A 
ATOM     13  C   UNL     1      -1.910  -2.607   1.235  0.00  0.00    +0.037 A 
BRANCH   8  14
ATOM     14  C   UNL     1      -2.619  -0.913  -0.474  0.00  0.00    +0.017 C 
ATOM     15  C   UNL     1      -3.696  -1.174  -1.528  0.00  0.00    +0.012 C 
BRANCH  14  17
ATOM     16  C   UNL     1      -2.211   1.405  -1.311  0.00  0.00    +0.004 C 
ATOM     17  C   UNL     1      -1.569   0.043  -1.043  0.00  0.00    +0.004 C 
ENDBRANCH  14  17
ENDBRANCH   8  14
ENDBRANCH   4  13
ENDBRANCH   2   5
ENDBRANCH   1   2
BRANCH   1  18
ATOM     18  C   UNL     1      -3.845  -1.611   6.780  0.00  0.00    +0.326 C 
ATOM     19  O   UNL     1      -3.645  -0.420   6.808  0.00  0.00    -0.249 OA
BRANCH  18  20
ATOM     20  C   UNL     1      -4.104  -2.362   8.061  0.00  0.00    +0.238 C 
BRANCH  20  21
ATOM     21  N   UNL     1      -4.061  -1.430   9.190  0.00  0.00    -0.213 N 
ATOM     22  C   UNL     1      -2.945  -1.138   9.890  0.00  0.00    +0.247 C 
ATOM     23  O   UNL     1      -1.830  -1.579   9.711  0.00  0.00    -0.273 OA
ATOM     24  C   UNL     1      -3.377  -0.142  10.943  0.00  0.00    +0.115 C 
ATOM     25  C   UNL     1      -2.647   1.183  10.759  0.00  0.00    +0.035 C 
ATOM     26  C   UNL     1      -1.146   0.977  10.980  0.00  0.00    +0.003 C 
ATOM     27  C   UNL     1      -0.909   0.436  12.392  0.00  0.00    +0.000 C 
ATOM     28  C   UNL     1      -1.627  -0.906  12.551  0.00  0.00    +0.006 C 
ATOM     29  C   UNL     1      -3.130  -0.707  12.337  0.00  0.00    +0.018 C 
ATOM     30  C   UNL     1      -3.846  -2.052  12.476  0.00  0.00    +0.010 C 
ATOM     31  N   UNL     1      -4.816   0.026  10.704  0.00  0.00    -0.285 N 
ATOM     32  C   UNL     1      -5.124  -0.766   9.659  0.00  0.00    +0.310 C 
ATOM     33  O   UNL     1      -6.243  -0.868   9.195  0.00  0.00    -0.252 OA
ATOM     34  H   UNL     1      -5.424   0.596  11.200  0.00  0.00    +0.151 HD
ENDBRANCH  20  21
ENDBRANCH  18  20
ENDBRANCH   1  18
TORSDOF 8
