REMARK  Name = ZINC35343736
REMARK  11 active torsions:
REMARK  status: ('A' for Active; 'I' for Inactive)
REMARK    1  A    between atoms: C_1  and  C_2
REMARK    2  A    between atoms: C_2  and  C_3
REMARK    3  A    between atoms: C_3  and  N_4
REMARK    4  A    between atoms: C_5  and  C_7
REMARK    5  A    between atoms: C_7  and  C_9
REMARK    6  A    between atoms: C_7  and  N_10
REMARK    7  A    between atoms: C_11  and  C_13
REMARK    8  A    between atoms: C_13  and  N_14
REMARK    9  A    between atoms: N_17  and  S_20
REMARK   10  A    between atoms: S_20  and  C_23
REMARK   11  A    between atoms: C_27  and  C_29
REMARK                            x       y       z     vdW  Elec       q    Type
REMARK                         _______ _______ _______ _____ _____    ______ ____
ROOT
ATOM      1  N   UNL     1       3.867  -7.643  -4.506  0.00  0.00    -0.291 NA
ATOM      2  C   UNL     1       2.792  -8.623  -4.300  0.00  0.00    +0.102 C 
ATOM      3  C   UNL     1       3.401  -9.962  -3.873  0.00  0.00    +0.125 C 
ATOM      4  N   UNL     1       4.416 -10.351  -4.864  0.00  0.00    -0.174 NA
ATOM      5  C   UNL     1       5.449  -9.368  -5.225  0.00  0.00    +0.125 C 
ATOM      6  C   UNL     1       4.759  -8.052  -5.599  0.00  0.00    +0.102 C 
ENDROOT
BRANCH   4   7
ATOM      7  S   UNL     1       4.396 -11.856  -5.555  0.00  0.00    +0.061 S 
ATOM      8  O   UNL     1       5.723 -12.122  -5.987  0.00  0.00    -0.153 OA
ATOM      9  O   UNL     1       3.704 -12.708  -4.652  0.00  0.00    -0.153 OA
BRANCH   7  10
ATOM     10  C   UNL     1       3.405 -11.749  -7.008  0.00  0.00    +0.106 A 
ATOM     11  C   UNL     1       2.044 -11.984  -6.935  0.00  0.00    +0.029 A 
ATOM     12  C   UNL     1       1.267 -11.900  -8.074  0.00  0.00    +0.017 A 
ATOM     13  C   UNL     1       1.850 -11.581  -9.287  0.00  0.00    +0.021 A 
ATOM     14  C   UNL     1       3.211 -11.347  -9.360  0.00  0.00    -0.035 A 
ATOM     15  C   UNL     1       3.987 -11.426  -8.219  0.00  0.00    +0.033 A 
ATOM     16  C   UNL     1       3.847 -11.000 -10.681  0.00  0.00    +0.045 C 
ATOM     17 BR   UNL     1       0.786 -11.467 -10.847  0.00  0.00    -0.050 Br
ENDBRANCH   7  10
ENDBRANCH   4   7
BRANCH   1  18
ATOM     18  C   UNL     1       3.318  -6.302  -4.749  0.00  0.00    +0.180 C 
BRANCH  18  20
ATOM     19  N   UNL     1       2.027  -4.602  -3.498  0.00  0.00    -0.303 N 
ATOM     20  C   UNL     1       2.612  -5.816  -3.509  0.00  0.00    +0.228 C 
ATOM     21  O   UNL     1       2.571  -6.518  -2.520  0.00  0.00    -0.274 OA
ATOM     22  H   UNL     1       2.060  -4.041  -4.289  0.00  0.00    +0.149 HD
BRANCH  19  23
ATOM     23  C   UNL     1       1.341  -4.130  -2.293  0.00  0.00    +0.156 C 
ATOM     24  C   UNL     1      -0.094  -4.659  -2.282  0.00  0.00    +0.038 C 
BRANCH  23  26
ATOM     25  N   UNL     1       0.738  -1.962  -1.265  0.00  0.00    -0.314 N 
ATOM     26  C   UNL     1       1.321  -2.623  -2.285  0.00  0.00    +0.233 C 
ATOM     27  O   UNL     1       1.829  -2.004  -3.196  0.00  0.00    -0.274 OA
ATOM     28  H   UNL     1       0.332  -2.457  -0.536  0.00  0.00    +0.149 HD
BRANCH  25  29
ATOM     29  C   UNL     1       0.718  -0.497  -1.257  0.00  0.00    +0.104 C 
BRANCH  29  31
ATOM     30  C   UNL     1      -0.019   1.526   0.010  0.00  0.00    +0.005 C 
ATOM     31  C   UNL     1       0.002  -0.004   0.002  0.00  0.00    +0.015 C 
ENDBRANCH  29  31
ENDBRANCH  25  29
ENDBRANCH  23  26
ENDBRANCH  19  23
ENDBRANCH  18  20
ENDBRANCH   1  18
TORSDOF 8
