REMARK  Name = ZINC04875630
REMARK  10 active torsions:
REMARK  status: ('A' for Active; 'I' for Inactive)
REMARK    1  A    between atoms: C_1  and  C_2
REMARK    2  A    between atoms: C_4  and  C_31
REMARK    3  A    between atoms: C_6  and  N_8
REMARK    4  A    between atoms: N_8  and  C_9
REMARK    5  A    between atoms: C_9  and  C_10
REMARK    6  A    between atoms: N_12  and  C_13
REMARK    7  A    between atoms: C_18  and  C_20
REMARK    8  A    between atoms: C_20  and  C_21
REMARK    9  A    between atoms: C_21  and  C_22
REMARK   10  A    between atoms: C_27  and  C_30
REMARK                            x       y       z     vdW  Elec       q    Type
REMARK                         _______ _______ _______ _____ _____    ______ ____
ROOT
ATOM      1  N   UNL     1       0.263  -2.828   2.411  0.00  0.00    -0.263 N 
ATOM      2  C   UNL     1      -0.032  -4.142   2.386  0.00  0.00    +0.221 C 
ATOM      3  O   UNL     1      -0.300  -4.723   3.416  0.00  0.00    -0.275 OA
ENDROOT
BRANCH   1   9
ATOM      4  C   UNL     1      -1.476  -1.071  -1.839  0.00  0.00    +0.044 C 
ATOM      5  C   UNL     1      -0.344  -1.271  -0.865  0.00  0.00    -0.048 A 
ATOM      6  C   UNL     1       0.912  -0.771  -1.154  0.00  0.00    +0.006 A 
ATOM      7  C   UNL     1       1.954  -0.951  -0.262  0.00  0.00    -0.048 A 
ATOM      8  C   UNL     1       1.742  -1.633   0.921  0.00  0.00    +0.027 A 
ATOM      9  C   UNL     1       0.481  -2.136   1.214  0.00  0.00    +0.037 A 
ATOM     10  C   UNL     1      -0.564  -1.949   0.319  0.00  0.00    +0.027 A 
ATOM     11  C   UNL     1       3.321  -0.405  -0.581  0.00  0.00    +0.044 C 
ENDBRANCH   1   9
BRANCH   1  12
ATOM     12  C   UNL     1       0.356  -2.122   3.691  0.00  0.00    +0.209 C 
BRANCH  12  13
ATOM     13  C   UNL     1      -0.997  -1.568   4.058  0.00  0.00    +0.231 C 
ATOM     14  O   UNL     1      -1.945  -1.746   3.323  0.00  0.00    -0.274 OA
ATOM     15  N   UNL     1      -1.153  -0.876   5.204  0.00  0.00    -0.311 N 
ATOM     16  H   UNL     1      -0.395  -0.734   5.792  0.00  0.00    +0.149 HD
BRANCH  15  17
ATOM     17  C   UNL     1      -2.468  -0.338   5.561  0.00  0.00    +0.073 C 
ATOM     18  C   UNL     1      -2.651   1.065   4.944  0.00  0.00    +0.022 C 
ATOM     19  C   UNL     1      -3.433   1.855   6.022  0.00  0.00    +0.002 C 
ATOM     20  C   UNL     1      -2.811   1.339   7.343  0.00  0.00    +0.002 C 
ATOM     21  C   UNL     1      -2.570  -0.163   7.087  0.00  0.00    +0.022 C 
ENDBRANCH  15  17
ENDBRANCH  12  13
ENDBRANCH   1  12
BRANCH   2  22
ATOM     22  C   UNL     1      -0.028  -4.891   1.077  0.00  0.00    +0.105 C 
BRANCH  22  23
ATOM     23  C   UNL     1      -0.257  -6.380   1.341  0.00  0.00    +0.105 C 
BRANCH  23  24
ATOM     24  C   UNL     1      -0.253  -7.128   0.033  0.00  0.00    +0.219 C 
ATOM     25  O   UNL     1      -0.084  -6.529  -1.008  0.00  0.00    -0.275 OA
ATOM     26  N   UNL     1      -0.438  -8.463   0.020  0.00  0.00    -0.268 N 
ATOM     27  C   UNL     1      -0.434  -9.156  -1.191  0.00  0.00    +0.168 A 
ATOM     28  C   UNL     1      -0.244  -8.591  -2.472  0.00  0.00    +0.091 A 
ATOM     29  C   UNL     1      -0.309  -9.581  -3.379  0.00  0.00    +0.136 A 
ATOM     30  O   UNL     1      -0.530 -10.733  -2.726  0.00  0.00    -0.358 OA
ATOM     31  N   UNL     1      -0.601 -10.445  -1.342  0.00  0.00    -0.063 NA
ATOM     32  C   UNL     1      -0.160  -9.425  -4.871  0.00  0.00    +0.089 C 
ATOM     33  H   UNL     1      -0.573  -8.943   0.852  0.00  0.00    +0.156 HD
ENDBRANCH  23  24
ENDBRANCH  22  23
ENDBRANCH   2  22
TORSDOF 7
