REMARK  Name = ZINC20645611
REMARK  13 active torsions:
REMARK  status: ('A' for Active; 'I' for Inactive)
REMARK    1  A    between atoms: C_1  and  C_2
REMARK    2  A    between atoms: C_2  and  N_3
REMARK    3  A    between atoms: N_3  and  C_4
REMARK    4  A    between atoms: N_3  and  C_6
REMARK    5  A    between atoms: C_4  and  C_5
REMARK    6  A    between atoms: C_6  and  C_7
REMARK    7  A    between atoms: C_7  and  N_8
REMARK    8  A    between atoms: C_14  and  C_20
REMARK    9  A    between atoms: N_22  and  C_23
REMARK   10  A    between atoms: C_23  and  C_24
REMARK   11  A    between atoms: C_24  and  C_25
REMARK   12  A    between atoms: C_28  and  S_31
REMARK   13  A    between atoms: S_31  and  N_34
REMARK                            x       y       z     vdW  Elec       q    Type
REMARK                         _______ _______ _______ _____ _____    ______ ____
ROOT
ATOM      1  N   UNL     1      -0.304  -1.757   1.899  0.00  0.00    -0.288 N 
ATOM      2  C   UNL     1       0.632  -2.684   1.603  0.00  0.00    +0.262 A 
ATOM      3  O   UNL     1       1.715  -2.356   1.159  0.00  0.00    -0.267 OA
ATOM      4  C   UNL     1       0.307  -4.106   1.834  0.00  0.00    +0.065 A 
ATOM      5  C   UNL     1       1.221  -5.118   1.553  0.00  0.00    +0.016 A 
ATOM      6  C   UNL     1       0.877  -6.432   1.782  0.00  0.00    +0.014 A 
ATOM      7  C   UNL     1      -0.383  -6.751   2.295  0.00  0.00    +0.039 A 
ATOM      8  C   UNL     1      -1.303  -5.744   2.578  0.00  0.00    +0.041 A 
ATOM      9  C   UNL     1      -0.962  -4.421   2.349  0.00  0.00    +0.080 A 
ATOM     10  N   UNL     1      -1.849  -3.388   2.618  0.00  0.00    -0.222 NA
ATOM     11  C   UNL     1      -1.501  -2.109   2.394  0.00  0.00    +0.183 A 
ATOM     12  S   UNL     1      -2.635  -0.877   2.751  0.00  0.00    -0.011 SA
ENDROOT
BRANCH   7  13
ATOM     13  C   UNL     1      -0.743  -8.167   2.538  0.00  0.00    +0.244 C 
ATOM     14  O   UNL     1      -1.838  -8.448   2.983  0.00  0.00    -0.270 OA
ATOM     15  N   UNL     1       0.145  -9.144   2.265  0.00  0.00    -0.311 N 
ATOM     16  H   UNL     1       1.136  -8.890   1.861  0.00  0.00    +0.149 HD
BRANCH  15  17
ATOM     17  C   UNL     1      -0.211 -10.545   2.505  0.00  0.00    +0.109 C 
BRANCH  17  18
ATOM     18  C   UNL     1       0.964 -11.444   2.114  0.00  0.00    +0.054 C 
BRANCH  18  19
ATOM     19  C   UNL     1       0.598 -12.884   2.361  0.00  0.00    -0.046 A 
ATOM     20  C   UNL     1       0.868 -13.466   3.587  0.00  0.00    +0.005 A 
ATOM     21  C   UNL     1       0.528 -14.786   3.815  0.00  0.00    +0.029 A 
ATOM     22  C   UNL     1      -0.073 -15.528   2.815  0.00  0.00    +0.105 A 
ATOM     23  C   UNL     1      -0.338 -14.948   1.588  0.00  0.00    +0.029 A 
ATOM     24  C   UNL     1      -0.002 -13.627   1.361  0.00  0.00    +0.005 A 
BRANCH  22  25
ATOM     25  S   UNL     1      -0.502 -17.212   3.104  0.00  0.00    +0.056 S 
ATOM     26  O   UNL     1      -0.646 -17.359   4.510  0.00  0.00    -0.153 OA
ATOM     27  O   UNL     1      -1.547 -17.527   2.194  0.00  0.00    -0.153 OA
BRANCH  25  28
ATOM     28  N   UNL     1       0.803 -18.132   2.664  0.00  0.00    -0.204 NA
ATOM     29  H   UNL     1       0.574 -19.195   2.830  0.00  0.00    +0.144 HD
ATOM     30  H   UNL     1       1.675 -17.845   3.270  0.00  0.00    +0.144 HD
ENDBRANCH  25  28
ENDBRANCH  22  25
ENDBRANCH  18  19
ENDBRANCH  17  18
ENDBRANCH  15  17
ENDBRANCH   7  13
BRANCH   1  31
ATOM     31  C   UNL     1      -0.006  -0.339   1.680  0.00  0.00    +0.109 C 
BRANCH  31  32
ATOM     32  C   UNL     1      -0.423   0.056   0.262  0.00  0.00    -0.057 C 
BRANCH  32  33
ATOM     33  N   UNL     1      -0.124   1.478   0.042  0.00  0.00    +0.380 N 
ATOM     34  H   UNL     1      -0.574   2.049   0.868  0.00  0.00    -0.082 HD
BRANCH  33  36
ATOM     35  C   UNL     1       1.990   0.924  -1.063  0.00  0.00    -0.017 C 
ATOM     36  C   UNL     1       1.324   1.720   0.061  0.00  0.00    -0.082 C 
ENDBRANCH  33  36
BRANCH  33  37
ATOM     37  C   UNL     1      -0.721   1.953  -1.213  0.00  0.00    -0.082 C 
ATOM     38  C   UNL     1      -0.734   3.483  -1.224  0.00  0.00    -0.017 C 
ENDBRANCH  33  37
ENDBRANCH  32  33
ENDBRANCH  31  32
ENDBRANCH   1  31
TORSDOF 11
