REMARK  Name = ZINC37296189
REMARK  3 active torsions:
REMARK  status: ('A' for Active; 'I' for Inactive)
REMARK    1  A    between atoms: C_6  and  N_7
REMARK    2  A    between atoms: N_10  and  C_13
REMARK    3  A    between atoms: C_18  and  N_19
REMARK                            x       y       z     vdW  Elec       q    Type
REMARK                         _______ _______ _______ _____ _____    ______ ____
ROOT
ATOM      1  N   UNL     1      -1.198  -0.721   0.010  0.00  0.00    -0.327 N 
ATOM      2  C   UNL     1      -2.485  -0.022   0.131  0.00  0.00    +0.124 C 
ATOM      3  C   UNL     1      -3.374  -0.424  -1.053  0.00  0.00    +0.124 C 
ATOM      4  N   UNL     1      -3.371  -1.890  -1.165  0.00  0.00    -0.325 N 
ATOM      5  C   UNL     1      -2.083  -2.588  -1.286  0.00  0.00    +0.124 C 
ATOM      6  C   UNL     1      -1.195  -2.185  -0.108  0.00  0.00    +0.124 C 
ENDROOT
BRANCH   1  12
ATOM      7  C   UNL     1       1.216  -0.679   0.003  0.00  0.00    +0.024 A 
ATOM      8  C   UNL     1       2.400   0.031  -0.005  0.00  0.00    +0.022 A 
ATOM      9  C   UNL     1       2.378   1.415  -0.014  0.00  0.00    +0.041 A 
ATOM     10  C   UNL     1       1.170   2.090  -0.015  0.00  0.00    +0.022 A 
ATOM     11  C   UNL     1      -0.017   1.385  -0.007  0.00  0.00    +0.024 A 
ATOM     12  C   UNL     1       0.002  -0.004   0.002  0.00  0.00    +0.030 A 
ATOM     13 CL   UNL     1       3.869   2.305  -0.025  0.00  0.00    -0.084 Cl
ENDBRANCH   1  12
BRANCH   4  14
ATOM     14  C   UNL     1      -4.573  -2.608  -1.157  0.00  0.00    +0.051 A 
ATOM     15  C   UNL     1      -5.230  -2.878  -2.348  0.00  0.00    +0.026 A 
ATOM     16  C   UNL     1      -6.417  -3.587  -2.338  0.00  0.00    +0.017 A 
ATOM     17  C   UNL     1      -6.953  -4.029  -1.142  0.00  0.00    +0.020 A 
ATOM     18  C   UNL     1      -6.304  -3.764   0.051  0.00  0.00    +0.039 A 
ATOM     19  C   UNL     1      -5.111  -3.058   0.049  0.00  0.00    +0.047 A 
ATOM     20 BR   UNL     1      -8.577  -4.997  -1.138  0.00  0.00    -0.050 Br
BRANCH  19  21
ATOM     21  N   UNL     1      -4.449  -2.794   1.254  0.00  0.00    -0.357 N 
ATOM     22  H   UNL     1      -3.617  -2.296   1.251  0.00  0.00    +0.142 HD
ATOM     23  H   UNL     1      -4.824  -3.108   2.092  0.00  0.00    +0.142 HD
ENDBRANCH  19  21
ENDBRANCH   4  14
TORSDOF 3
