REMARK  Name = ZINC24227965
REMARK  12 active torsions:
REMARK  status: ('A' for Active; 'I' for Inactive)
REMARK    1  A    between atoms: C_1  and  C_2
REMARK    2  A    between atoms: C_2  and  C_4
REMARK    3  A    between atoms: C_2  and  N_32
REMARK    4  A    between atoms: C_7  and  S_16
REMARK    5  A    between atoms: N_8  and  C_9
REMARK    6  A    between atoms: S_16  and  C_17
REMARK    7  A    between atoms: C_17  and  C_19
REMARK    8  A    between atoms: C_17  and  C_20
REMARK    9  A    between atoms: N_22  and  C_23
REMARK   10  A    between atoms: C_28  and  C_29
REMARK   11  A    between atoms: C_29  and  C_30
REMARK   12  A    between atoms: C_29  and  C_31
REMARK                            x       y       z     vdW  Elec       q    Type
REMARK                         _______ _______ _______ _____ _____    ______ ____
ROOT
ATOM      1  C   UNL     1       0.709  -0.462   1.247  0.00  0.00    +0.125 A 
ATOM      2  N   UNL     1       1.998  -0.439   1.436  0.00  0.00    -0.135 NA
ATOM      3  N   UNL     1       2.287  -0.950   2.579  0.00  0.00    -0.122 NA
ATOM      4  C   UNL     1       1.188  -1.331   3.189  0.00  0.00    +0.197 A 
ATOM      5  N   UNL     1       0.144  -1.026   2.360  0.00  0.00    -0.275 N 
ENDROOT
BRANCH   5   6
ATOM      6  C   UNL     1      -1.221  -1.247   2.598  0.00  0.00    +0.050 A 
ATOM      7  C   UNL     1      -2.089  -0.171   2.716  0.00  0.00    +0.029 A 
ATOM      8  C   UNL     1      -3.433  -0.391   2.950  0.00  0.00    +0.040 A 
ATOM      9  C   UNL     1      -3.913  -1.684   3.068  0.00  0.00    +0.124 A 
ATOM     10  C   UNL     1      -3.048  -2.759   2.950  0.00  0.00    +0.040 A 
ATOM     11  C   UNL     1      -1.705  -2.543   2.709  0.00  0.00    +0.029 A 
ATOM     12  F   UNL     1      -5.227  -1.898   3.298  0.00  0.00    -0.205 F 
ENDBRANCH   5   6
BRANCH   1  14
ATOM     13  C   UNL     1      -0.050   1.574   0.052  0.00  0.00    -0.005 C 
ATOM     14  C   UNL     1      -0.024   0.045   0.032  0.00  0.00    -0.002 C 
BRANCH  14  15
ATOM     15  N   UNL     1       0.662  -0.418  -1.183  0.00  0.00    +0.386 N 
ATOM     16  C   UNL     1      -0.049   0.084  -2.365  0.00  0.00    -0.078 C 
ATOM     17  C   UNL     1       0.707  -0.327  -3.631  0.00  0.00    -0.019 C 
ATOM     18  C   UNL     1       0.793  -1.855  -3.695  0.00  0.00    -0.004 C 
ATOM     19  C   UNL     1       1.469  -2.372  -2.421  0.00  0.00    -0.019 C 
ATOM     20  C   UNL     1       0.685  -1.885  -1.201  0.00  0.00    -0.078 C 
ATOM     21  H   UNL     1       1.608  -0.067  -1.187  0.00  0.00    -0.081 HD
ENDBRANCH  14  15
ENDBRANCH   1  14
BRANCH   4  22
ATOM     22  S   UNL     1       1.079  -2.086   4.777  0.00  0.00    -0.073 S 
BRANCH  22  23
ATOM     23  C   UNL     1       2.803  -2.196   5.330  0.00  0.00    +0.137 C 
ATOM     24  C   UNL     1       3.573  -3.147   4.412  0.00  0.00    +0.029 C 
BRANCH  23  25
ATOM     25  C   UNL     1       2.844  -2.718   6.744  0.00  0.00    +0.230 C 
ATOM     26  O   UNL     1       1.934  -3.400   7.165  0.00  0.00    -0.274 OA
ATOM     27  N   UNL     1       3.893  -2.429   7.538  0.00  0.00    -0.284 N 
ATOM     28  H   UNL     1       4.658  -1.952   7.178  0.00  0.00    +0.155 HD
BRANCH  27  29
ATOM     29  C   UNL     1       3.880  -2.815   8.883  0.00  0.00    +0.037 A 
ATOM     30  C   UNL     1       2.671  -3.011   9.539  0.00  0.00    +0.023 A 
ATOM     31  C   UNL     1       2.662  -3.392  10.866  0.00  0.00    +0.002 A 
ATOM     32  C   UNL     1       3.853  -3.578  11.543  0.00  0.00    +0.000 A 
ATOM     33  C   UNL     1       5.058  -3.383  10.893  0.00  0.00    +0.006 A 
ATOM     34  C   UNL     1       5.075  -3.009   9.563  0.00  0.00    -0.024 A 
BRANCH  34  35
ATOM     35  C   UNL     1       6.389  -2.804   8.854  0.00  0.00    +0.015 C 
ATOM     36  C   UNL     1       7.237  -1.796   9.632  0.00  0.00    +0.012 C 
ATOM     37  C   UNL     1       7.134  -4.137   8.766  0.00  0.00    +0.012 C 
ENDBRANCH  34  35
ENDBRANCH  27  29
ENDBRANCH  23  25
ENDBRANCH  22  23
ENDBRANCH   4  22
TORSDOF 8
