REMARK  Name = ZINC08917867
REMARK  8 active torsions:
REMARK  status: ('A' for Active; 'I' for Inactive)
REMARK    1  A    between atoms: C_1  and  C_2
REMARK    2  A    between atoms: C_5  and  C_36
REMARK    3  A    between atoms: C_6  and  N_8
REMARK    4  A    between atoms: C_13  and  C_14
REMARK    5  A    between atoms: C_13  and  N_70
REMARK    6  A    between atoms: C_25  and  C_32
REMARK    7  A    between atoms: C_27  and  C_31
REMARK    8  A    between atoms: C_28  and  O_30
REMARK                            x       y       z     vdW  Elec       q    Type
REMARK                         _______ _______ _______ _____ _____    ______ ____
ROOT
ATOM      1  C   UNL     1       0.021  -0.004  -0.016  0.00  0.00    +0.090 C 
ATOM      2  C   UNL     1      -0.075   1.525   0.068  0.00  0.00    +0.071 C 
ATOM      3  C   UNL     1       1.391   1.975   0.009  0.00  0.00    +0.187 C 
ATOM      4  C   UNL     1       2.046   1.907   1.393  0.00  0.00    +0.076 C 
ATOM      5  C   UNL     1       1.171   2.673   2.367  0.00  0.00    -0.061 C 
ATOM      6  C   UNL     1       1.676   3.711   2.962  0.00  0.00    -0.027 C 
ATOM      7  C   UNL     1       0.901   4.558   3.931  0.00  0.00    +0.027 C 
ATOM      8  C   UNL     1      -0.194   3.694   4.564  0.00  0.00    +0.008 C 
ATOM      9  C   UNL     1      -1.051   3.095   3.452  0.00  0.00    -0.001 C 
ATOM     10  C   UNL     1      -0.233   2.170   2.555  0.00  0.00    +0.018 C 
ATOM     11  C   UNL     1      -0.907   2.061   1.191  0.00  0.00    +0.132 C 
ATOM     12  C   UNL     1      -0.191   0.795   3.226  0.00  0.00    +0.018 C 
ATOM     13  C   UNL     1      -2.188   2.297   4.094  0.00  0.00    +0.008 C 
ATOM     14  O   UNL     1       2.023   0.918  -0.799  0.00  0.00    -0.460 OA
ATOM     15  C   UNL     1       1.442  -0.258  -0.497  0.00  0.00    +0.309 C 
ATOM     16  O   UNL     1       1.962  -1.346  -0.593  0.00  0.00    -0.251 OA
ENDROOT
BRANCH  11  17
ATOM     17  O   UNL     1      -2.080   1.245   1.313  0.00  0.00    -0.391 OA
ATOM     18  H   UNL     1      -2.632   1.229   0.519  0.00  0.00    +0.210 HD
ENDBRANCH  11  17
BRANCH   1  19
ATOM     19  C   UNL     1      -0.979  -0.548  -1.046  0.00  0.00    -0.064 C 
BRANCH  19  25
ATOM     20  N   UNL     1      -2.076  -4.627  -1.092  0.00  0.00    -0.333 N 
ATOM     21  C   UNL     1      -1.518  -4.078   0.152  0.00  0.00    +0.086 C 
ATOM     22  C   UNL     1      -1.648  -2.553   0.136  0.00  0.00    -0.060 C 
ATOM     23  C   UNL     1      -1.500  -2.565  -2.280  0.00  0.00    -0.060 C 
ATOM     24  C   UNL     1      -1.370  -4.090  -2.264  0.00  0.00    +0.086 C 
ATOM     25  N   UNL     1      -0.916  -2.025  -1.034  0.00  0.00    +0.382 N 
ATOM     26  H   UNL     1       0.067  -2.316  -0.973  0.00  0.00    -0.082 HD
BRANCH  20  32
ATOM     27  C   UNL     1       0.521  -8.791  -0.828  0.00  0.00    +0.044 C 
ATOM     28  C   UNL     1      -0.796  -8.069  -0.957  0.00  0.00    -0.049 A 
ATOM     29  C   UNL     1      -1.971  -8.789  -1.065  0.00  0.00    +0.004 A 
ATOM     30  C   UNL     1      -3.181  -8.130  -1.182  0.00  0.00    +0.005 A 
ATOM     31  C   UNL     1      -3.220  -6.750  -1.191  0.00  0.00    -0.029 A 
ATOM     32  C   UNL     1      -2.041  -6.023  -1.083  0.00  0.00    +0.033 A 
ATOM     33  C   UNL     1      -0.826  -6.688  -0.971  0.00  0.00    +0.026 A 
ATOM     34  C   UNL     1      -4.539  -6.033  -1.318  0.00  0.00    +0.045 C 
ENDBRANCH  20  32
ENDBRANCH  19  25
ENDBRANCH   1  19
TORSDOF 4
