REMARK  Name = ZINC02527629
REMARK  5 active torsions:
REMARK  status: ('A' for Active; 'I' for Inactive)
REMARK    1  A    between atoms: C_10  and  C_11
REMARK    2  A    between atoms: C_10  and  N_14
REMARK    3  A    between atoms: C_15  and  O_17
REMARK    4  A    between atoms: O_17  and  C_18
REMARK    5  A    between atoms: C_18  and  C_19
REMARK                            x       y       z     vdW  Elec       q    Type
REMARK                         _______ _______ _______ _____ _____    ______ ____
ROOT
ATOM      1  N   UNL     1       4.279  -0.617  -1.413  0.00  0.00    -0.261 N 
ATOM      2  C   UNL     1       4.409   0.570  -2.037  0.00  0.00    +0.401 C 
ATOM      3  O   UNL     1       4.162   1.600  -1.441  0.00  0.00    -0.226 OA
ATOM      4  H   UNL     1       4.545  -1.434  -1.864  0.00  0.00    +0.153 HD
ENDROOT
BRANCH   1  14
ATOM      5  C   UNL     1       3.417  -4.775   1.121  0.00  0.00    +0.000 A 
ATOM      6  C   UNL     1       2.492  -4.210   0.263  0.00  0.00    +0.000 A 
ATOM      7  C   UNL     1       2.614  -2.885  -0.100  0.00  0.00    +0.006 A 
ATOM      8  C   UNL     1       3.659  -2.112   0.391  0.00  0.00    -0.010 A 
ATOM      9  C   UNL     1       4.578  -2.674   1.249  0.00  0.00    -0.042 A 
ATOM     10  C   UNL     1       4.455  -4.009   1.610  0.00  0.00    +0.004 A 
ATOM     11  C   UNL     1       5.726  -1.892   1.831  0.00  0.00    +0.035 C 
ATOM     12  C   UNL     1       5.971  -0.617   1.028  0.00  0.00    +0.008 C 
ATOM     13  C   UNL     1       4.639   0.128   0.883  0.00  0.00    +0.043 C 
ATOM     14  C   UNL     1       3.737  -0.675  -0.053  0.00  0.00    +0.164 C 
BRANCH  14  15
ATOM     15  C   UNL     1       2.354  -0.077  -0.044  0.00  0.00    +0.383 C 
ATOM     16  O   UNL     1       1.715  -0.034   0.993  0.00  0.00    -0.244 OA
ATOM     17  O   UNL     1       1.874   0.364  -1.075  0.00  0.00    -0.244 OA
ENDBRANCH  14  15
ENDBRANCH   1  14
BRANCH   2  18
ATOM     18  O   UNL     1       4.812   0.615  -3.320  0.00  0.00    -0.449 OA
BRANCH  18  19
ATOM     19  C   UNL     1       4.928   1.908  -3.919  0.00  0.00    +0.246 C 
BRANCH  19  20
ATOM     20  C   UNL     1       5.395   1.759  -5.368  0.00  0.00    +0.088 C 
ATOM     21  C   UNL     1       6.819   1.261  -5.407  0.00  0.00    -0.029 A 
ATOM     22  C   UNL     1       7.408   0.105  -4.941  0.00  0.00    +0.005 A 
ATOM     23  C   UNL     1       8.766  -0.099  -5.115  0.00  0.00    +0.000 A 
ATOM     24  C   UNL     1       9.534   0.856  -5.756  0.00  0.00    +0.001 A 
ATOM     25  C   UNL     1       8.953   2.016  -6.225  0.00  0.00    +0.009 A 
ATOM     26  C   UNL     1       7.584   2.228  -6.053  0.00  0.00    -0.014 A 
ATOM     27  C   UNL     1       6.713   3.363  -6.450  0.00  0.00    -0.014 A 
ATOM     28  C   UNL     1       5.404   3.104  -6.052  0.00  0.00    -0.029 A 
ATOM     29  C   UNL     1       4.405   4.018  -6.311  0.00  0.00    +0.005 A 
ATOM     30  C   UNL     1       4.700   5.199  -6.969  0.00  0.00    +0.000 A 
ATOM     31  C   UNL     1       5.997   5.465  -7.369  0.00  0.00    +0.001 A 
ATOM     32  C   UNL     1       7.003   4.556  -7.114  0.00  0.00    +0.009 A 
ENDBRANCH  19  20
ENDBRANCH  18  19
ENDBRANCH   2  18
TORSDOF 5
