REMARK  Name = ZINC66279800
REMARK  10 active torsions:
REMARK  status: ('A' for Active; 'I' for Inactive)
REMARK    1  A    between atoms: C_1  and  C_2
REMARK    2  A    between atoms: C_2  and  O_3
REMARK    3  A    between atoms: O_3  and  C_4
REMARK    4  A    between atoms: C_9  and  N_10
REMARK    5  A    between atoms: C_11  and  C_13
REMARK    6  A    between atoms: C_13  and  C_14
REMARK    7  A    between atoms: C_14  and  C_16
REMARK    8  A    between atoms: C_14  and  N_17
REMARK    9  A    between atoms: C_18  and  C_20
REMARK   10  A    between atoms: C_27  and  C_30
REMARK                            x       y       z     vdW  Elec       q    Type
REMARK                         _______ _______ _______ _____ _____    ______ ____
ROOT
ATOM      1  N   UNL     1       1.955  -1.470  -3.421  0.00  0.00    -0.282 N 
ATOM      2  C   UNL     1       2.661  -1.969  -4.454  0.00  0.00    +0.219 C 
ATOM      3  O   UNL     1       2.753  -3.169  -4.602  0.00  0.00    -0.275 OA
ATOM      4  H   UNL     1       1.814  -0.513  -3.347  0.00  0.00    +0.155 HD
ENDROOT
BRANCH   1  10
ATOM      5  C   UNL     1       0.316  -1.942  -1.706  0.00  0.00    +0.142 A 
ATOM      6  C   UNL     1      -0.204  -2.802  -0.751  0.00  0.00    +0.055 A 
ATOM      7  C   UNL     1       0.380  -4.033  -0.541  0.00  0.00    +0.001 A 
ATOM      8  C   UNL     1       1.485  -4.435  -1.279  0.00  0.00    +0.126 A 
ATOM      9  C   UNL     1       2.010  -3.570  -2.235  0.00  0.00    +0.073 A 
ATOM     10  C   UNL     1       1.425  -2.333  -2.452  0.00  0.00    +0.079 A 
ATOM     11  O   UNL     1       1.885  -5.689  -0.926  0.00  0.00    -0.488 OA
ATOM     12  C   UNL     1       1.345  -6.011   0.367  0.00  0.00    +0.175 C 
ATOM     13  C   UNL     1       0.053  -5.161   0.419  0.00  0.00    +0.083 C 
ATOM     14  C   UNL     1       2.314  -5.600   1.476  0.00  0.00    +0.052 C 
BRANCH   5  15
ATOM     15  O   UNL     1      -0.258  -0.727  -1.918  0.00  0.00    -0.490 OA
BRANCH  15  17
ATOM     16  C   UNL     1      -1.896   0.998  -1.492  0.00  0.00    +0.048 C 
ATOM     17  C   UNL     1      -1.392  -0.396  -1.114  0.00  0.00    +0.226 C 
ENDBRANCH  15  17
ENDBRANCH   5  15
ENDBRANCH   1  10
BRANCH   2  18
ATOM     18  C   UNL     1       3.336  -1.036  -5.426  0.00  0.00    +0.118 C 
BRANCH  18  19
ATOM     19  C   UNL     1       4.064  -1.853  -6.496  0.00  0.00    +0.079 C 
ATOM     20  C   UNL     1       4.851  -0.911  -7.409  0.00  0.00    +0.028 C 
BRANCH  19  21
ATOM     21  N   UNL     1       3.085  -2.599  -7.291  0.00  0.00    -0.312 N 
ATOM     22  C   UNL     1       3.454  -3.731  -7.924  0.00  0.00    +0.216 C 
ATOM     23  O   UNL     1       4.595  -4.131  -7.836  0.00  0.00    -0.276 OA
ATOM     24  H   UNL     1       2.172  -2.279  -7.361  0.00  0.00    +0.149 HD
BRANCH  22  25
ATOM     25  C   UNL     1       2.447  -4.498  -8.742  0.00  0.00    +0.075 C 
ATOM     26  C   UNL     1       1.289  -4.938  -7.843  0.00  0.00    +0.013 C 
ATOM     27  C   UNL     1       0.267  -5.717  -8.673  0.00  0.00    +0.001 C 
ATOM     28  C   UNL     1       0.938  -6.951  -9.281  0.00  0.00    +0.000 C 
ATOM     29  C   UNL     1       2.095  -6.511 -10.179  0.00  0.00    +0.001 C 
ATOM     30  C   UNL     1       3.118  -5.732  -9.349  0.00  0.00    +0.013 C 
ENDBRANCH  22  25
ENDBRANCH  19  21
ENDBRANCH  18  19
ENDBRANCH   2  18
TORSDOF 7
