REMARK  Name = ZINC51653051
REMARK  5 active torsions:
REMARK  status: ('A' for Active; 'I' for Inactive)
REMARK    1  A    between atoms: C_3  and  C_6
REMARK    2  A    between atoms: C_8  and  C_11
REMARK    3  A    between atoms: C_13  and  C_14
REMARK    4  A    between atoms: C_13  and  C_16
REMARK    5  A    between atoms: N_18  and  C_19
REMARK                            x       y       z     vdW  Elec       q    Type
REMARK                         _______ _______ _______ _____ _____    ______ ____
ROOT
ATOM      1  C   UNL     1       7.290   1.081  -0.072  0.00  0.00    +0.227 C 
ATOM      2  O   UNL     1       8.450   1.771  -0.078  0.00  0.00    -0.284 OA
ATOM      3  C   UNL     1       7.308  -0.312  -0.086  0.00  0.00    +0.162 C 
ENDROOT
BRANCH   1   6
ATOM      4  C   UNL     1       3.733   1.822  -0.024  0.00  0.00    +0.116 A 
ATOM      5  N   UNL     1       4.862   1.133  -0.044  0.00  0.00    -0.235 NA
ATOM      6  C   UNL     1       6.011   1.798  -0.050  0.00  0.00    +0.120 A 
ATOM      7  C   UNL     1       5.977   3.181  -0.036  0.00  0.00    +0.079 A 
ATOM      8  S   UNL     1       4.326   3.504  -0.021  0.00  0.00    -0.074 S 
BRANCH   4  11
ATOM      9  C   UNL     1      -0.016   1.355   0.009  0.00  0.00    +0.008 A 
ATOM     10  C   UNL     1       1.175   2.042   0.002  0.00  0.00    +0.018 A 
ATOM     11  C   UNL     1       2.347   1.328  -0.013  0.00  0.00    +0.044 A 
ATOM     12  S   UNL     1       1.752  -0.355  -0.017  0.00  0.00    -0.095 S 
ATOM     13  C   UNL     1       0.002  -0.004   0.002  0.00  0.00    +0.046 A 
ENDBRANCH   4  11
ENDBRANCH   1   6
BRANCH   3  14
ATOM     14  C   UNL     1       8.586  -1.028  -0.107  0.00  0.00    +0.258 C 
ATOM     15  O   UNL     1       9.632  -0.406  -0.113  0.00  0.00    -0.269 OA
ATOM     16  N   UNL     1       8.603  -2.375  -0.121  0.00  0.00    -0.308 N 
ATOM     17  H   UNL     1       7.769  -2.871  -0.117  0.00  0.00    +0.149 HD
BRANCH  16  18
ATOM     18  C   UNL     1       9.881  -3.091  -0.142  0.00  0.00    +0.073 C 
ATOM     19  C   UNL     1      10.353  -3.287  -1.598  0.00  0.00    +0.022 C 
ATOM     20  C   UNL     1      11.004  -4.692  -1.601  0.00  0.00    +0.002 C 
ATOM     21  C   UNL     1      10.079  -5.500  -0.656  0.00  0.00    +0.002 C 
ATOM     22  C   UNL     1       9.707  -4.498   0.456  0.00  0.00    +0.022 C 
ENDBRANCH  16  18
ENDBRANCH   3  14
BRANCH   3  23
ATOM     23  C   UNL     1       6.077  -1.044  -0.080  0.00  0.00    +0.108 C 
ATOM     24  N   UNL     1       5.101  -1.625  -0.075  0.00  0.00    -0.191 NA
ENDBRANCH   3  23
TORSDOF 5
