REMARK  Name = ZINC19939297
REMARK  4 active torsions:
REMARK  status: ('A' for Active; 'I' for Inactive)
REMARK    1  A    between atoms: C_4  and  C_7
REMARK    2  A    between atoms: C_9  and  C_13
REMARK    3  A    between atoms: C_9  and  N_17
REMARK    4  A    between atoms: C_23  and  N_27
REMARK                            x       y       z     vdW  Elec       q    Type
REMARK                         _______ _______ _______ _____ _____    ______ ____
ROOT
ATOM      1  C   UNL     1       3.696  -0.686  -0.038  0.00  0.00    +0.130 C 
ATOM      2  N   UNL     1       3.799  -1.978  -0.051  0.00  0.00    -0.225 NA
ATOM      3  C   UNL     1       5.232  -2.311  -0.066  0.00  0.00    +0.301 C 
ATOM      4  C   UNL     1       5.920  -0.960  -0.059  0.00  0.00    +0.274 C 
ATOM      5  O   UNL     1       7.113  -0.740  -0.066  0.00  0.00    -0.271 OA
ATOM      6  N   UNL     1       4.919  -0.055  -0.048  0.00  0.00    -0.266 N 
ATOM      7  H   UNL     1       5.044   0.907  -0.044  0.00  0.00    +0.156 HD
ENDROOT
BRANCH   3   8
ATOM      8  N   UNL     1       5.594  -3.078   1.129  0.00  0.00    -0.285 N 
ATOM      9  C   UNL     1       6.903  -3.467   1.328  0.00  0.00    +0.161 A 
ATOM     10  N   UNL     1       7.954  -3.243   0.573  0.00  0.00    -0.225 NA
ATOM     11  C   UNL     1       9.188  -3.688   0.896  0.00  0.00    +0.080 A 
ATOM     12  C   UNL     1      10.393  -3.517   0.177  0.00  0.00    +0.031 A 
ATOM     13  C   UNL     1      11.570  -4.038   0.648  0.00  0.00    +0.035 A 
ATOM     14  C   UNL     1      11.623  -4.747   1.839  0.00  0.00    +0.127 A 
ATOM     15  C   UNL     1      10.462  -4.934   2.569  0.00  0.00    +0.050 A 
ATOM     16  C   UNL     1       9.280  -4.415   2.104  0.00  0.00    +0.043 A 
ATOM     17  S   UNL     1       7.601  -4.399   2.684  0.00  0.00    -0.052 S 
ATOM     18  H   UNL     1       4.913  -3.313   1.779  0.00  0.00    +0.151 HD
BRANCH  14  19
ATOM     19  N   UNL     1      12.907  -5.300   2.324  0.00  0.00    +0.056 N 
ATOM     20  O   UNL     1      13.918  -5.134   1.682  0.00  0.00    -0.126 OA
ATOM     21  O   UNL     1      12.946  -5.917   3.363  0.00  0.00    -0.126 OA
ENDBRANCH  14  19
ENDBRANCH   3   8
BRANCH   1  25
ATOM     22  C   UNL     1      -0.017   1.379   0.010  0.00  0.00    +0.000 A 
ATOM     23  C   UNL     1       1.169   2.093   0.002  0.00  0.00    +0.001 A 
ATOM     24  C   UNL     1       2.377   1.428  -0.013  0.00  0.00    +0.011 A 
ATOM     25  C   UNL     1       2.403   0.033  -0.021  0.00  0.00    +0.015 A 
ATOM     26  C   UNL     1       1.205  -0.680  -0.013  0.00  0.00    +0.011 A 
ATOM     27  C   UNL     1       0.002  -0.004   0.002  0.00  0.00    +0.001 A 
ENDBRANCH   1  25
BRANCH   3  28
ATOM     28  C   UNL     1       5.590  -3.088  -1.334  0.00  0.00    +0.440 C 
ATOM     29  F   UNL     1       5.278  -2.316  -2.458  0.00  0.00    -0.166 F 
ATOM     30  F   UNL     1       6.958  -3.378  -1.333  0.00  0.00    -0.166 F 
ATOM     31  F   UNL     1       4.860  -4.282  -1.371  0.00  0.00    -0.166 F 
ENDBRANCH   3  28
TORSDOF 4
