REMARK  Name = ZINC33121236
REMARK  9 active torsions:
REMARK  status: ('A' for Active; 'I' for Inactive)
REMARK    1  A    between atoms: C_1  and  C_2
REMARK    2  A    between atoms: C_2  and  C_3
REMARK    3  A    between atoms: C_2  and  C_4
REMARK    4  A    between atoms: C_2  and  C_5
REMARK    5  A    between atoms: C_8  and  S_11
REMARK    6  A    between atoms: S_11  and  N_14
REMARK    7  A    between atoms: N_14  and  C_15
REMARK    8  A    between atoms: C_18  and  N_30
REMARK    9  A    between atoms: C_19  and  C_21
REMARK                            x       y       z     vdW  Elec       q    Type
REMARK                         _______ _______ _______ _____ _____    ______ ____
ROOT
ATOM      1  C   UNL     1      -2.182   2.983   4.246  0.00  0.00    +0.049 A 
ATOM      2  C   UNL     1      -2.629   4.243   4.632  0.00  0.00    +0.026 A 
ATOM      3  C   UNL     1      -3.333   5.034   3.749  0.00  0.00    +0.026 A 
ATOM      4  C   UNL     1      -3.596   4.580   2.463  0.00  0.00    +0.042 A 
ATOM      5  C   UNL     1      -3.153   3.309   2.068  0.00  0.00    +0.060 A 
ATOM      6  C   UNL     1      -2.441   2.514   2.970  0.00  0.00    +0.039 A 
ENDROOT
BRANCH   5   7
ATOM      7  C   UNL     1      -3.432   2.817   0.706  0.00  0.00    +0.248 C 
ATOM      8  O   UNL     1      -4.573   2.805   0.286  0.00  0.00    -0.270 OA
ATOM      9  N   UNL     1      -2.423   2.381  -0.072  0.00  0.00    -0.297 N 
ATOM     10  C   UNL     1      -1.067   2.502   0.416  0.00  0.00    +0.108 C 
ATOM     11  C   UNL     1      -0.489   3.873  -0.003  0.00  0.00    +0.019 C 
ATOM     12  C   UNL     1      -0.228   3.901  -1.450  0.00  0.00    +0.002 C 
ATOM     13  C   UNL     1      -1.476   3.741  -2.313  0.00  0.00    +0.002 C 
ATOM     14  C   UNL     1      -1.778   2.273  -2.488  0.00  0.00    +0.019 C 
ATOM     15  C   UNL     1      -2.746   1.798  -1.389  0.00  0.00    +0.108 C 
ENDBRANCH   5   7
BRANCH   4  16
ATOM     16  N   UNL     1      -4.302   5.382   1.570  0.00  0.00    -0.333 N 
ATOM     17  C   UNL     1      -4.882   6.546   2.254  0.00  0.00    +0.086 C 
ATOM     18  C   UNL     1      -5.713   7.357   1.257  0.00  0.00    -0.063 C 
ATOM     19  N   UNL     1      -4.858   7.779   0.139  0.00  0.00    +0.381 N 
ATOM     20  C   UNL     1      -4.278   6.615  -0.545  0.00  0.00    -0.063 C 
ATOM     21  C   UNL     1      -3.446   5.803   0.452  0.00  0.00    +0.086 C 
ATOM     22  H   UNL     1      -5.457   8.352  -0.585  0.00  0.00    -0.086 HD
ATOM     23  H   UNL     1      -4.041   8.409   0.520  0.00  0.00    -0.086 HD
ENDBRANCH   4  16
BRANCH   1  24
ATOM     24  N   UNL     1      -1.468   2.187   5.150  0.00  0.00    -0.216 N 
ATOM     25  H   UNL     1      -1.716   1.121   5.259  0.00  0.00    +0.174 HD
BRANCH  24  26
ATOM     26  S   UNL     1      -0.252   2.852   6.056  0.00  0.00    +0.072 S 
ATOM     27  O   UNL     1      -0.790   4.016   6.668  0.00  0.00    -0.150 OA
ATOM     28  O   UNL     1       0.321   1.790   6.808  0.00  0.00    -0.150 OA
BRANCH  26  32
ATOM     29  C   UNL     1       2.942   4.265   3.176  0.00  0.00    -0.042 A 
ATOM     30  C   UNL     1       1.983   5.149   3.633  0.00  0.00    +0.006 A 
ATOM     31  C   UNL     1       1.008   4.718   4.512  0.00  0.00    +0.029 A 
ATOM     32  C   UNL     1       0.992   3.402   4.935  0.00  0.00    +0.109 A 
ATOM     33  C   UNL     1       1.954   2.519   4.482  0.00  0.00    +0.029 A 
ATOM     34  C   UNL     1       2.926   2.949   3.599  0.00  0.00    +0.006 A 
BRANCH  29  36
ATOM     35  C   UNL     1       4.817   5.859   2.867  0.00  0.00    +0.015 C 
ATOM     36  C   UNL     1       4.006   4.736   2.218  0.00  0.00    -0.013 C 
ATOM     37  C   UNL     1       4.934   3.569   1.873  0.00  0.00    +0.015 C 
ATOM     38  C   UNL     1       3.345   5.256   0.940  0.00  0.00    +0.015 C 
ENDBRANCH  29  36
ENDBRANCH  26  32
ENDBRANCH  24  26
ENDBRANCH   1  24
TORSDOF 6
