REMARK  Name = ZINC35141227
REMARK  12 active torsions:
REMARK  status: ('A' for Active; 'I' for Inactive)
REMARK    1  A    between atoms: C_1  and  C_2
REMARK    2  A    between atoms: C_2  and  C_3
REMARK    3  A    between atoms: C_3  and  N_4
REMARK    4  A    between atoms: N_4  and  C_5
REMARK    5  A    between atoms: C_5  and  C_6
REMARK    6  A    between atoms: C_6  and  C_7
REMARK    7  A    between atoms: C_8  and  C_10
REMARK    8  A    between atoms: C_10  and  C_12
REMARK    9  A    between atoms: C_10  and  S_13
REMARK   10  A    between atoms: S_13  and  C_14
REMARK   11  A    between atoms: N_24  and  C_25
REMARK   12  A    between atoms: C_25  and  C_26
REMARK                            x       y       z     vdW  Elec       q    Type
REMARK                         _______ _______ _______ _____ _____    ______ ____
ROOT
ATOM      1  C   UNL     1      -2.864  -1.524   4.726  0.00  0.00    +0.173 A 
ATOM      2  N   UNL     1      -2.948  -0.299   4.269  0.00  0.00    -0.223 NA
ATOM      3  C   UNL     1      -3.695   0.637   4.889  0.00  0.00    +0.079 A 
ATOM      4  C   UNL     1      -3.785   1.944   4.401  0.00  0.00    +0.028 A 
ATOM      5  C   UNL     1      -4.554   2.860   5.061  0.00  0.00    +0.002 A 
ATOM      6  C   UNL     1      -5.248   2.514   6.213  0.00  0.00    +0.001 A 
ATOM      7  C   UNL     1      -5.179   1.244   6.715  0.00  0.00    +0.015 A 
ATOM      8  C   UNL     1      -4.403   0.288   6.061  0.00  0.00    +0.065 A 
ATOM      9  C   UNL     1      -4.292  -1.092   6.554  0.00  0.00    +0.262 A 
ATOM     10  O   UNL     1      -4.879  -1.453   7.558  0.00  0.00    -0.267 OA
ATOM     11  N   UNL     1      -3.518  -1.948   5.847  0.00  0.00    -0.288 N 
ENDROOT
BRANCH  11  12
ATOM     12  C   UNL     1      -3.378  -3.337   6.290  0.00  0.00    +0.124 C 
ATOM     13  C   UNL     1      -2.191  -3.448   7.250  0.00  0.00    +0.027 C 
ENDBRANCH  11  12
BRANCH   1  14
ATOM     14  S   UNL     1      -1.864  -2.680   3.849  0.00  0.00    -0.075 S 
BRANCH  14  15
ATOM     15  C   UNL     1      -1.197  -1.721   2.462  0.00  0.00    +0.137 C 
ATOM     16  C   UNL     1      -2.340  -1.296   1.539  0.00  0.00    +0.029 C 
BRANCH  15  18
ATOM     17  N   UNL     1       0.907  -2.013   1.194  0.00  0.00    -0.301 N 
ATOM     18  C   UNL     1      -0.217  -2.567   1.691  0.00  0.00    +0.229 C 
ATOM     19  O   UNL     1      -0.439  -3.747   1.518  0.00  0.00    -0.274 OA
BRANCH  17  20
ATOM     20  C   UNL     1       1.914  -2.856   0.545  0.00  0.00    +0.107 C 
BRANCH  20  22
ATOM     21  C   UNL     1       3.821  -4.421   0.942  0.00  0.00    +0.005 C 
ATOM     22  C   UNL     1       2.848  -3.444   1.605  0.00  0.00    +0.016 C 
ENDBRANCH  20  22
ENDBRANCH  17  20
BRANCH  17  23
ATOM     23  C   UNL     1       1.122  -0.568   1.304  0.00  0.00    +0.107 C 
BRANCH  23  24
ATOM     24  C   UNL     1       0.610   0.121   0.037  0.00  0.00    +0.016 C 
ATOM     25  C   UNL     1       0.953   1.611   0.093  0.00  0.00    +0.005 C 
ENDBRANCH  23  24
ENDBRANCH  17  23
ENDBRANCH  15  18
ENDBRANCH  14  15
ENDBRANCH   1  14
TORSDOF 8
