REMARK  Name = ZINC33959132
REMARK  8 active torsions:
REMARK  status: ('A' for Active; 'I' for Inactive)
REMARK    1  A    between atoms: C_3  and  N_24
REMARK    2  A    between atoms: C_6  and  C_7
REMARK    3  A    between atoms: N_9  and  C_10
REMARK    4  A    between atoms: C_10  and  C_11
REMARK    5  A    between atoms: C_11  and  C_12
REMARK    6  A    between atoms: C_12  and  C_13
REMARK    7  A    between atoms: N_15  and  N_16
REMARK    8  A    between atoms: C_17  and  C_18
REMARK                            x       y       z     vdW  Elec       q    Type
REMARK                         _______ _______ _______ _____ _____    ______ ____
ROOT
ATOM      1  C   UNL     1      -2.501  -2.864   0.011  0.00  0.00    +0.105 C 
ENDROOT
BRANCH   1   4
ATOM      2  C   UNL     1      -1.266  -0.764   0.011  0.00  0.00    +0.244 C 
ATOM      3  O   UNL     1      -2.328  -0.173   0.024  0.00  0.00    -0.270 OA
ATOM      4  N   UNL     1      -1.244  -2.111   0.003  0.00  0.00    -0.311 N 
ATOM      5  H   UNL     1      -0.397  -2.583  -0.008  0.00  0.00    +0.149 HD
BRANCH   2  11
ATOM      6  C   UNL     1      -0.017   1.391   0.010  0.00  0.00    +0.015 A 
ATOM      7  C   UNL     1       1.170   2.095   0.002  0.00  0.00    +0.033 A 
ATOM      8  C   UNL     1       2.378   1.419  -0.013  0.00  0.00    +0.126 A 
ATOM      9  C   UNL     1       2.403   0.036  -0.021  0.00  0.00    +0.033 A 
ATOM     10  C   UNL     1       1.224  -0.679  -0.014  0.00  0.00    +0.015 A 
ATOM     11  C   UNL     1       0.002  -0.004   0.002  0.00  0.00    +0.037 A 
BRANCH   8  12
ATOM     12  N   UNL     1       3.647   2.180  -0.022  0.00  0.00    +0.056 N 
ATOM     13  O   UNL     1       3.628   3.389  -0.015  0.00  0.00    -0.126 OA
ATOM     14  O   UNL     1       4.704   1.592  -0.035  0.00  0.00    -0.126 OA
ENDBRANCH   8  12
ENDBRANCH   2  11
ENDBRANCH   1   4
BRANCH   1  15
ATOM     15  C   UNL     1      -2.198  -4.364   0.001  0.00  0.00    +0.028 C 
BRANCH  15  16
ATOM     16  C   UNL     1      -3.510  -5.150   0.009  0.00  0.00    +0.099 C 
BRANCH  16  17
ATOM     17  C   UNL     1      -3.211  -6.627  -0.002  0.00  0.00    +0.232 C 
ATOM     18  O   UNL     1      -2.061  -7.013  -0.015  0.00  0.00    -0.274 OA
ATOM     19  N   UNL     1      -4.221  -7.519   0.004  0.00  0.00    -0.207 N 
ATOM     20  H   UNL     1      -5.141  -7.211   0.014  0.00  0.00    +0.177 HD
BRANCH  19  21
ATOM     21  N   UNL     1      -3.943  -8.892  -0.006  0.00  0.00    -0.185 NA
ATOM     22  C   UNL     1      -4.918  -9.754  -0.001  0.00  0.00    +0.176 C 
BRANCH  22  23
ATOM     23  C   UNL     1      -4.627 -11.190  -0.012  0.00  0.00    +0.149 A 
ATOM     24  C   UNL     1      -5.551 -12.195  -0.014  0.00  0.00    +0.052 A 
ATOM     25  C   UNL     1      -4.832 -13.405  -0.026  0.00  0.00    +0.056 A 
ATOM     26  C   UNL     1      -3.521 -13.087  -0.031  0.00  0.00    +0.165 A 
ATOM     27  O   UNL     1      -3.400 -11.750  -0.028  0.00  0.00    -0.448 OA
ATOM     28  I   UNL     1      -1.934 -14.455  -0.049  0.00  0.00    -0.001 I 
ENDBRANCH  22  23
ENDBRANCH  19  21
ENDBRANCH  16  17
ENDBRANCH  15  16
ENDBRANCH   1  15
TORSDOF 8
