REMARK  Name = ZINC39359646
REMARK  7 active torsions:
REMARK  status: ('A' for Active; 'I' for Inactive)
REMARK    1  A    between atoms: C_7  and  C_10
REMARK    2  A    between atoms: N_11  and  N_12
REMARK    3  A    between atoms: C_13  and  C_15
REMARK    4  A    between atoms: C_15  and  N_16
REMARK    5  A    between atoms: C_17  and  C_19
REMARK    6  A    between atoms: C_19  and  O_20
REMARK    7  A    between atoms: O_20  and  C_21
REMARK                            x       y       z     vdW  Elec       q    Type
REMARK                         _______ _______ _______ _____ _____    ______ ____
ROOT
ATOM      1  N   UNL     1       0.255  -5.437  -0.030  0.00  0.00    -0.206 N 
ATOM      2  C   UNL     1       0.733  -6.697  -0.041  0.00  0.00    +0.249 C 
ATOM      3  O   UNL     1       1.930  -6.892  -0.054  0.00  0.00    -0.272 OA
ATOM      4  H   UNL     1      -0.702  -5.281  -0.020  0.00  0.00    +0.177 HD
ENDROOT
BRANCH   1   6
ATOM      5  C   UNL     1       0.677  -3.128  -0.022  0.00  0.00    +0.136 C 
ATOM      6  N   UNL     1       1.141  -4.352  -0.033  0.00  0.00    -0.188 NA
BRANCH   5  13
ATOM      7  C   UNL     1      -0.016   1.353   0.009  0.00  0.00    +0.001 A 
ATOM      8  C   UNL     1       1.164   2.102   0.002  0.00  0.00    +0.002 A 
ATOM      9  C   UNL     1       2.384   1.514  -0.013  0.00  0.00    +0.026 A 
ATOM     10  C   UNL     1       2.485   0.097  -0.022  0.00  0.00    +0.043 A 
ATOM     11  N   UNL     1       3.531  -0.702  -0.037  0.00  0.00    -0.380 N 
ATOM     12  C   UNL     1       3.076  -2.096  -0.040  0.00  0.00    +0.150 C 
ATOM     13  C   UNL     1       1.565  -2.042  -0.024  0.00  0.00    +0.000 C 
ATOM     14  C   UNL     1       1.238  -0.688  -0.013  0.00  0.00    +0.004 A 
ATOM     15  C   UNL     1       0.002  -0.004   0.002  0.00  0.00    +0.010 A 
ATOM     16  H   UNL     1       4.458  -0.414  -0.045  0.00  0.00    +0.160 HD
ENDBRANCH   5  13
ENDBRANCH   1   6
BRANCH   2  17
ATOM     17  C   UNL     1      -0.220  -7.864  -0.038  0.00  0.00    +0.202 C 
BRANCH  17  18
ATOM     18  N   UNL     1       0.540  -9.116  -0.052  0.00  0.00    -0.304 N 
ATOM     19  C   UNL     1      -0.107 -10.298  -0.052  0.00  0.00    +0.251 C 
ATOM     20  O   UNL     1      -1.319 -10.326  -0.041  0.00  0.00    -0.272 OA
ATOM     21  H   UNL     1       1.510  -9.095  -0.062  0.00  0.00    +0.149 HD
BRANCH  19  22
ATOM     22  C   UNL     1       0.676 -11.586  -0.067  0.00  0.00    +0.324 C 
BRANCH  22  23
ATOM     23  O   UNL     1      -0.228 -12.693  -0.064  0.00  0.00    -0.481 OA
BRANCH  23  24
ATOM     24  C   UNL     1       0.319 -13.937  -0.076  0.00  0.00    +0.140 A 
ATOM     25  C   UNL     1       1.698 -14.089  -0.085  0.00  0.00    +0.048 A 
ATOM     26  C   UNL     1       2.253 -15.354  -0.097  0.00  0.00    +0.023 A 
ATOM     27  C   UNL     1       1.435 -16.470  -0.101  0.00  0.00    +0.043 A 
ATOM     28  C   UNL     1       0.059 -16.322  -0.092  0.00  0.00    +0.043 A 
ATOM     29  C   UNL     1      -0.500 -15.057  -0.074  0.00  0.00    +0.084 A 
ATOM     30 CL   UNL     1      -2.226 -14.871  -0.056  0.00  0.00    -0.080 Cl
ATOM     31 CL   UNL     1       2.135 -18.058  -0.117  0.00  0.00    -0.083 Cl
ENDBRANCH  23  24
ENDBRANCH  22  23
ENDBRANCH  19  22
ENDBRANCH  17  18
ENDBRANCH   2  17
TORSDOF 7
