REMARK  Name = ZINC17048410
REMARK  13 active torsions:
REMARK  status: ('A' for Active; 'I' for Inactive)
REMARK    1  A    between atoms: C_1  and  C_2
REMARK    2  A    between atoms: C_5  and  N_9
REMARK    3  A    between atoms: C_6  and  C_8
REMARK    4  A    between atoms: C_10  and  C_12
REMARK    5  A    between atoms: C_12  and  C_14
REMARK    6  A    between atoms: C_12  and  O_15
REMARK    7  A    between atoms: O_15  and  C_16
REMARK    8  A    between atoms: C_16  and  C_18
REMARK    9  A    between atoms: C_18  and  N_19
REMARK   10  A    between atoms: C_25  and  C_28
REMARK   11  A    between atoms: C_28  and  C_29
REMARK   12  A    between atoms: C_28  and  C_30
REMARK   13  A    between atoms: C_28  and  C_31
REMARK                            x       y       z     vdW  Elec       q    Type
REMARK                         _______ _______ _______ _____ _____    ______ ____
ROOT
ATOM      1  C   UNL     1       1.499   7.339  -2.783  0.00  0.00    +0.238 C 
ENDROOT
BRANCH   1   2
ATOM      2  N   UNL     1       1.282   5.950  -2.372  0.00  0.00    -0.213 N 
ATOM      3  C   UNL     1       0.648   5.584  -1.239  0.00  0.00    +0.247 C 
ATOM      4  O   UNL     1       0.167   6.314  -0.399  0.00  0.00    -0.273 OA
ATOM      5  C   UNL     1       0.662   4.073  -1.238  0.00  0.00    +0.113 C 
ATOM      6  C   UNL     1       1.425   3.550  -0.026  0.00  0.00    +0.035 C 
ATOM      7  C   UNL     1       1.452   2.020  -0.057  0.00  0.00    +0.006 C 
ATOM      8  C   UNL     1       0.019   1.485  -0.048  0.00  0.00    -0.005 C 
ATOM      9  C   UNL     1      -0.725   1.998  -1.283  0.00  0.00    +0.006 C 
ATOM     10  C   UNL     1      -0.762   3.528  -1.256  0.00  0.00    +0.035 C 
ATOM     11  N   UNL     1       1.364   3.722  -2.479  0.00  0.00    -0.285 N 
ATOM     12  C   UNL     1       1.688   4.885  -3.075  0.00  0.00    +0.310 C 
ATOM     13  O   UNL     1       2.283   4.960  -4.132  0.00  0.00    -0.252 OA
ATOM     14  H   UNL     1       1.556   2.829  -2.805  0.00  0.00    +0.151 HD
BRANCH   8  15
ATOM     15  C   UNL     1       0.045  -0.045  -0.068  0.00  0.00    -0.035 C 
ATOM     16  C   UNL     1       0.788  -0.557   1.167  0.00  0.00    +0.011 C 
ATOM     17  C   UNL     1      -1.389  -0.580  -0.059  0.00  0.00    +0.011 C 
ATOM     18  C   UNL     1       0.761  -0.527  -1.331  0.00  0.00    +0.011 C 
ENDBRANCH   8  15
ENDBRANCH   1   2
BRANCH   1  19
ATOM     19  C   UNL     1       2.812   7.828  -2.227  0.00  0.00    +0.326 C 
ATOM     20  O   UNL     1       3.496   7.091  -1.556  0.00  0.00    -0.249 OA
BRANCH  19  21
ATOM     21  O   UNL     1       3.221   9.082  -2.476  0.00  0.00    -0.451 OA
BRANCH  21  22
ATOM     22  C   UNL     1       4.496   9.484  -1.909  0.00  0.00    +0.259 C 
ATOM     23  C   UNL     1       4.269  10.083  -0.519  0.00  0.00    +0.062 C 
BRANCH  22  25
ATOM     24  N   UNL     1       6.381  10.962  -2.525  0.00  0.00    -0.282 N 
ATOM     25  C   UNL     1       5.140  10.514  -2.800  0.00  0.00    +0.258 C 
ATOM     26  O   UNL     1       4.541  10.941  -3.765  0.00  0.00    -0.271 OA
ATOM     27  H   UNL     1       6.828  10.682  -1.711  0.00  0.00    +0.155 HD
BRANCH  24  32
ATOM     28  C   UNL     1       8.990  14.482  -6.130  0.00  0.00    +0.044 C 
ATOM     29  C   UNL     1       8.297  13.546  -5.172  0.00  0.00    -0.050 A 
ATOM     30  C   UNL     1       7.308  12.696  -5.632  0.00  0.00    +0.005 A 
ATOM     31  C   UNL     1       6.671  11.838  -4.758  0.00  0.00    +0.024 A 
ATOM     32  C   UNL     1       7.024  11.830  -3.414  0.00  0.00    +0.036 A 
ATOM     33  C   UNL     1       8.014  12.689  -2.954  0.00  0.00    -0.029 A 
ATOM     34  C   UNL     1       8.651  13.541  -3.836  0.00  0.00    +0.008 A 
ATOM     35  C   UNL     1       8.396  12.688  -1.497  0.00  0.00    +0.045 C 
ENDBRANCH  24  32
ENDBRANCH  22  25
ENDBRANCH  21  22
ENDBRANCH  19  21
ENDBRANCH   1  19
TORSDOF 7
