REMARK  Name = ZINC44144210
REMARK  9 active torsions:
REMARK  status: ('A' for Active; 'I' for Inactive)
REMARK    1  A    between atoms: C_1  and  C_2
REMARK    2  A    between atoms: C_3  and  C_28
REMARK    3  A    between atoms: C_5  and  C_20
REMARK    4  A    between atoms: N_6  and  C_7
REMARK    5  A    between atoms: C_7  and  C_9
REMARK    6  A    between atoms: C_7  and  C_10
REMARK    7  A    between atoms: N_12  and  C_13
REMARK    8  A    between atoms: C_13  and  C_14
REMARK    9  A    between atoms: C_24  and  C_26
REMARK                            x       y       z     vdW  Elec       q    Type
REMARK                         _______ _______ _______ _____ _____    ______ ____
ROOT
ATOM      1  C   UNL     1       0.184   1.496   0.078  0.00  0.00    +0.064 C 
ATOM      2  C   UNL     1       0.091  -0.007   0.032  0.00  0.00    +0.029 A 
ATOM      3  C   UNL     1      -0.005  -0.776  -1.109  0.00  0.00    +0.058 A 
ATOM      4  C   UNL     1      -0.069  -2.130  -0.690  0.00  0.00    +0.041 A 
ATOM      5  C   UNL     1      -0.010  -2.131   0.666  0.00  0.00    +0.051 A 
ATOM      6  N   UNL     1       0.093  -0.832   1.098  0.00  0.00    -0.332 N 
ENDROOT
BRANCH   5   7
ATOM      7  C   UNL     1      -0.046  -3.330   1.532  0.00  0.00    -0.000 A 
ATOM      8  C   UNL     1      -0.586  -3.249   2.817  0.00  0.00    +0.010 A 
ATOM      9  C   UNL     1      -0.620  -4.366   3.627  0.00  0.00    +0.002 A 
ATOM     10  C   UNL     1      -0.122  -5.572   3.173  0.00  0.00    +0.019 A 
ATOM     11  C   UNL     1       0.421  -5.667   1.890  0.00  0.00    +0.052 A 
ATOM     12  C   UNL     1       0.453  -4.543   1.065  0.00  0.00    +0.028 A 
BRANCH  11  13
ATOM     13  C   UNL     1       0.938  -6.917   1.420  0.00  0.00    +0.099 C 
ATOM     14  N   UNL     1       1.348  -7.909   1.048  0.00  0.00    -0.191 NA
ENDBRANCH  11  13
ENDBRANCH   5   7
BRANCH   3  15
ATOM     15  C   UNL     1      -0.036  -0.285  -2.497  0.00  0.00    +0.243 C 
ATOM     16  O   UNL     1       0.026   0.909  -2.721  0.00  0.00    -0.270 OA
ATOM     17  N   UNL     1      -0.134  -1.158  -3.519  0.00  0.00    -0.325 N 
ATOM     18  H   UNL     1      -0.183  -2.110  -3.340  0.00  0.00    +0.145 HD
ATOM     19  H   UNL     1      -0.155  -0.835  -4.433  0.00  0.00    +0.145 HD
ENDBRANCH   3  15
BRANCH   6  20
ATOM     20  C   UNL     1       0.188  -0.409   2.497  0.00  0.00    +0.170 C 
ATOM     21  C   UNL     1       1.414   0.489   2.676  0.00  0.00    +0.041 C 
BRANCH  20  22
ATOM     22  C   UNL     1      -1.054   0.356   2.876  0.00  0.00    +0.236 C 
ATOM     23  O   UNL     1      -1.932   0.530   2.057  0.00  0.00    -0.274 OA
ATOM     24  N   UNL     1      -1.190   0.847   4.124  0.00  0.00    -0.313 N 
ATOM     25  H   UNL     1      -0.487   0.707   4.778  0.00  0.00    +0.149 HD
BRANCH  24  26
ATOM     26  C   UNL     1      -2.397   1.590   4.492  0.00  0.00    +0.107 C 
BRANCH  26  27
ATOM     27  C   UNL     1      -2.299   2.032   5.953  0.00  0.00    +0.006 C 
ATOM     28  C   UNL     1      -2.290   0.799   6.859  0.00  0.00    +0.005 C 
ATOM     29  C   UNL     1      -2.191   1.242   8.321  0.00  0.00    +0.000 C 
ATOM     30  C   UNL     1      -3.393   2.123   8.669  0.00  0.00    +0.000 C 
ATOM     31  C   UNL     1      -3.401   3.355   7.763  0.00  0.00    +0.000 C 
ATOM     32  C   UNL     1      -3.500   2.913   6.301  0.00  0.00    +0.005 C 
ENDBRANCH  26  27
ENDBRANCH  24  26
ENDBRANCH  20  22
ENDBRANCH   6  20
TORSDOF 7
