REMARK  Name = ZINC12698494
REMARK  6 active torsions:
REMARK  status: ('A' for Active; 'I' for Inactive)
REMARK    1  A    between atoms: C_1  and  C_2
REMARK    2  A    between atoms: C_7  and  C_8
REMARK    3  A    between atoms: N_10  and  C_11
REMARK    4  A    between atoms: C_11  and  C_12
REMARK    5  A    between atoms: N_14  and  N_15
REMARK    6  A    between atoms: C_16  and  C_18
REMARK                            x       y       z     vdW  Elec       q    Type
REMARK                         _______ _______ _______ _____ _____    ______ ____
ROOT
ATOM      1  C   UNL     1       0.020   0.142   1.168  0.00  0.00    +0.246 C 
ATOM      2  O   UNL     1       1.064  -0.471   1.096  0.00  0.00    -0.273 OA
ATOM      3  N   UNL     1      -1.130  -0.512   1.424  0.00  0.00    -0.233 N 
ATOM      4  H   UNL     1      -1.964  -0.022   1.482  0.00  0.00    +0.173 HD
ENDROOT
BRANCH   3   5
ATOM      5  N   UNL     1      -1.119  -1.901   1.607  0.00  0.00    -0.230 N 
ATOM      6  C   UNL     1      -2.269  -2.556   1.863  0.00  0.00    +0.267 C 
ATOM      7  O   UNL     1      -3.317  -1.940   1.936  0.00  0.00    -0.268 OA
ATOM      8  H   UNL     1      -0.285  -2.392   1.550  0.00  0.00    +0.173 HD
BRANCH   6   9
ATOM      9  C   UNL     1      -2.259  -4.009   2.055  0.00  0.00    +0.076 A 
ATOM     10  C   UNL     1      -3.308  -4.859   2.328  0.00  0.00    +0.024 A 
ATOM     11  C   UNL     1      -3.039  -6.225   2.452  0.00  0.00    -0.036 A 
ATOM     12  C   UNL     1      -1.749  -6.606   2.360  0.00  0.00    -0.006 A 
ATOM     13  S   UNL     1      -0.885  -5.142   2.004  0.00  0.00    -0.088 S 
ATOM     14  C   UNL     1      -1.055  -7.926   2.570  0.00  0.00    +0.043 C 
ATOM     15  C   UNL     1      -2.026  -9.033   2.983  0.00  0.00    +0.005 C 
ATOM     16  C   UNL     1      -2.767  -9.580   1.773  0.00  0.00    +0.000 C 
ATOM     17  C   UNL     1      -3.122  -8.504   0.767  0.00  0.00    +0.000 C 
ATOM     18  C   UNL     1      -4.437  -7.871   1.234  0.00  0.00    +0.005 C 
ATOM     19  C   UNL     1      -4.207  -7.192   2.584  0.00  0.00    +0.036 C 
ENDBRANCH   6   9
ENDBRANCH   3   5
BRANCH   1  20
ATOM     20  C   UNL     1       0.009   1.636   0.971  0.00  0.00    +0.202 C 
BRANCH  20  23
ATOM     21  C   UNL     1       1.606   3.415   0.499  0.00  0.00    +0.245 C 
ATOM     22  O   UNL     1       0.686   4.209   0.529  0.00  0.00    -0.270 OA
ATOM     23  N   UNL     1       1.372   2.104   0.708  0.00  0.00    -0.303 N 
ATOM     24  H   UNL     1       2.107   1.470   0.684  0.00  0.00    +0.150 HD
BRANCH  21  31
ATOM     25  C   UNL     1       2.058   6.185  -0.204  0.00  0.00    +0.044 C 
ATOM     26  C   UNL     1       3.212   5.221  -0.106  0.00  0.00    -0.038 A 
ATOM     27  C   UNL     1       4.498   5.655  -0.352  0.00  0.00    +0.004 A 
ATOM     28  C   UNL     1       5.559   4.772  -0.261  0.00  0.00    +0.000 A 
ATOM     29  C   UNL     1       5.338   3.448   0.075  0.00  0.00    +0.001 A 
ATOM     30  C   UNL     1       4.057   3.002   0.328  0.00  0.00    +0.013 A 
ATOM     31  C   UNL     1       2.982   3.887   0.234  0.00  0.00    +0.040 A 
ENDBRANCH  21  31
ENDBRANCH  20  23
ENDBRANCH   1  20
TORSDOF 5
