REMARK  Name = ZINC11691827
REMARK  5 active torsions:
REMARK  status: ('A' for Active; 'I' for Inactive)
REMARK    1  A    between atoms: C_5  and  C_7
REMARK    2  A    between atoms: C_9  and  C_12
REMARK    3  A    between atoms: C_13  and  N_28
REMARK    4  A    between atoms: N_14  and  C_17
REMARK    5  A    between atoms: C_20  and  C_24
REMARK                            x       y       z     vdW  Elec       q    Type
REMARK                         _______ _______ _______ _____ _____    ______ ____
ROOT
ATOM      1  C   UNL     1      -6.047   0.824   0.035  0.00  0.00    +0.191 A 
ATOM      2  C   UNL     1      -6.901  -0.270   0.027  0.00  0.00    +0.153 A 
ATOM      3  N   UNL     1      -8.167   0.234   0.040  0.00  0.00    -0.198 N 
ATOM      4  N   UNL     1      -8.046   1.630   0.047  0.00  0.00    -0.058 NA
ATOM      5  N   UNL     1      -6.798   1.940   0.043  0.00  0.00    -0.122 NA
ENDROOT
BRANCH   3   6
ATOM      6  C   UNL     1      -9.361  -0.503   0.041  0.00  0.00    +0.070 A 
ATOM      7  C   UNL     1     -10.467  -0.034   0.737  0.00  0.00    +0.028 A 
ATOM      8  C   UNL     1     -11.641  -0.761   0.736  0.00  0.00    +0.016 A 
ATOM      9  C   UNL     1     -11.717  -1.954   0.042  0.00  0.00    +0.073 A 
ATOM     10  C   UNL     1     -10.617  -2.424  -0.653  0.00  0.00    +0.055 A 
ATOM     11  C   UNL     1      -9.440  -1.698  -0.659  0.00  0.00    +0.048 A 
ATOM     12 CL   UNL     1     -10.716  -3.923  -1.524  0.00  0.00    -0.083 Cl
BRANCH   9  13
ATOM     13  C   UNL     1     -13.000  -2.744   0.043  0.00  0.00    +0.419 C 
ATOM     14  F   UNL     1     -13.961  -2.073   0.807  0.00  0.00    -0.166 F 
ATOM     15  F   UNL     1     -13.463  -2.883  -1.270  0.00  0.00    -0.166 F 
ATOM     16  F   UNL     1     -12.769  -4.010   0.592  0.00  0.00    -0.166 F 
ENDBRANCH   9  13
ENDBRANCH   3   6
BRANCH   1  19
ATOM     17  C   UNL     1      -2.511   1.275   0.021  0.00  0.00    +0.205 A 
ATOM     18  N   UNL     1      -3.751   1.806   0.030  0.00  0.00    -0.185 NA
ATOM     19  C   UNL     1      -4.577   0.772   0.028  0.00  0.00    +0.282 A 
ATOM     20  O   UNL     1      -3.815  -0.334   0.018  0.00  0.00    -0.331 OA
ATOM     21  N   UNL     1      -2.642  -0.027   0.009  0.00  0.00    -0.056 NA
BRANCH  17  26
ATOM     22  C   UNL     1      -0.052   4.120   0.024  0.00  0.00    +0.001 A 
ATOM     23  C   UNL     1       1.152   3.439   0.009  0.00  0.00    +0.003 A 
ATOM     24  C   UNL     1       1.171   2.056   0.002  0.00  0.00    +0.039 A 
ATOM     25  C   UNL     1      -0.016   1.347   0.009  0.00  0.00    +0.134 A 
ATOM     26  C   UNL     1      -1.233   2.030   0.019  0.00  0.00    +0.058 A 
ATOM     27  C   UNL     1      -1.243   3.423   0.032  0.00  0.00    +0.014 A 
ATOM     28  F   UNL     1       0.002  -0.004   0.002  0.00  0.00    -0.205 F 
ENDBRANCH  17  26
ENDBRANCH   1  19
BRANCH   2  29
ATOM     29  N   UNL     1      -6.539  -1.604   0.013  0.00  0.00    -0.341 N 
ATOM     30  H   UNL     1      -5.601  -1.852   0.007  0.00  0.00    +0.144 HD
ATOM     31  H   UNL     1      -7.222  -2.292   0.008  0.00  0.00    +0.144 HD
ENDBRANCH   2  29
TORSDOF 5
