REMARK  Name = ZINC09504723
REMARK  10 active torsions:
REMARK  status: ('A' for Active; 'I' for Inactive)
REMARK    1  A    between atoms: C_1  and  C_2
REMARK    2  A    between atoms: C_5  and  C_32
REMARK    3  A    between atoms: N_11  and  C_12
REMARK    4  A    between atoms: C_12  and  C_13
REMARK    5  A    between atoms: C_13  and  N_63
REMARK    6  A    between atoms: C_14  and  N_63
REMARK    7  A    between atoms: C_15  and  N_63
REMARK    8  A    between atoms: C_16  and  C_18
REMARK    9  A    between atoms: N_21  and  S_24
REMARK   10  A    between atoms: S_24  and  C_27
REMARK                            x       y       z     vdW  Elec       q    Type
REMARK                         _______ _______ _______ _____ _____    ______ ____
ROOT
ATOM      1  C   UNL     1      -8.979  -5.463   4.875  0.00  0.00    +0.046 C 
ATOM      2  C   UNL     1      -8.210  -6.636   5.426  0.00  0.00    -0.024 A 
ATOM      3  C   UNL     1      -8.880  -7.772   5.799  0.00  0.00    +0.006 A 
ATOM      4  C   UNL     1      -8.211  -8.873   6.311  0.00  0.00    +0.005 A 
ATOM      5  C   UNL     1      -6.835  -8.826   6.450  0.00  0.00    -0.035 A 
ATOM      6  C   UNL     1      -6.156  -7.693   6.080  0.00  0.00    +0.044 A 
ATOM      7  C   UNL     1      -6.804  -6.551   5.554  0.00  0.00    +0.083 A 
ATOM      8  N   UNL     1      -5.998  -5.515   5.237  0.00  0.00    -0.224 NA
ATOM      9  C   UNL     1      -4.697  -5.557   5.402  0.00  0.00    +0.168 A 
ATOM     10  S   UNL     1      -4.450  -7.196   6.070  0.00  0.00    -0.052 S 
ATOM     11  N   UNL     1      -3.754  -4.581   5.125  0.00  0.00    -0.252 N 
ATOM     12  C   UNL     1      -4.141  -3.396   4.612  0.00  0.00    +0.224 C 
ATOM     13  O   UNL     1      -5.321  -3.151   4.475  0.00  0.00    -0.275 OA
ATOM     14  C   UNL     1      -6.088 -10.012   7.004  0.00  0.00    +0.045 C 
ENDROOT
BRANCH  12  15
ATOM     15  C   UNL     1      -3.108  -2.376   4.208  0.00  0.00    +0.078 C 
ATOM     16  C   UNL     1      -3.781  -1.014   4.026  0.00  0.00    +0.030 C 
ATOM     17  C   UNL     1      -2.723   0.028   3.650  0.00  0.00    +0.110 C 
ATOM     18  N   UNL     1      -1.992  -0.447   2.467  0.00  0.00    -0.176 NA
ATOM     19  C   UNL     1      -1.387  -1.785   2.501  0.00  0.00    +0.110 C 
ATOM     20  C   UNL     1      -2.456  -2.804   2.892  0.00  0.00    +0.030 C 
BRANCH  18  21
ATOM     21  S   UNL     1      -1.858   0.506   1.119  0.00  0.00    +0.067 S 
ATOM     22  O   UNL     1      -2.950   1.414   1.154  0.00  0.00    -0.152 OA
ATOM     23  O   UNL     1      -1.629  -0.369   0.024  0.00  0.00    -0.152 OA
BRANCH  21  24
ATOM     24  C   UNL     1      -0.395   1.471   1.307  0.00  0.00    +0.143 A 
ATOM     25  C   UNL     1       0.872   1.184   0.920  0.00  0.00    +0.036 A 
ATOM     26  C   UNL     1       1.874   2.102   1.173  0.00  0.00    +0.010 A 
ATOM     27  C   UNL     1       1.560   3.262   1.801  0.00  0.00    +0.047 A 
ATOM     28  S   UNL     1      -0.198   3.080   2.055  0.00  0.00    -0.077 S 
ENDBRANCH  21  24
ENDBRANCH  18  21
ENDBRANCH  12  15
BRANCH  11  29
ATOM     29  C   UNL     1      -2.336  -4.836   5.388  0.00  0.00    +0.097 C 
BRANCH  29  30
ATOM     30  C   UNL     1      -1.958  -4.256   6.752  0.00  0.00    -0.060 C 
BRANCH  30  33
ATOM     31  C   UNL     1      -0.078  -3.771   8.199  0.00  0.00    -0.097 C 
ATOM     32  C   UNL     1      -0.279  -5.951   7.165  0.00  0.00    -0.097 C 
ATOM     33  N   UNL     1      -0.520  -4.503   6.994  0.00  0.00    +0.377 N 
ATOM     34  H   UNL     1       0.016  -4.169   6.184  0.00  0.00    -0.083 HD
ENDBRANCH  30  33
ENDBRANCH  29  30
ENDBRANCH  11  29
TORSDOF 6
