REMARK  Name = ZINC45304625
REMARK  5 active torsions:
REMARK  status: ('A' for Active; 'I' for Inactive)
REMARK    1  A    between atoms: C_1  and  C_2
REMARK    2  A    between atoms: N_4  and  N_5
REMARK    3  A    between atoms: N_8  and  C_9
REMARK    4  A    between atoms: C_9  and  C_11
REMARK    5  A    between atoms: C_9  and  C_21
REMARK                            x       y       z     vdW  Elec       q    Type
REMARK                         _______ _______ _______ _____ _____    ______ ____
ROOT
ATOM      1  C   UNL     1      -4.729  -2.876   0.032  0.00  0.00    +0.142 C 
ENDROOT
BRANCH   1   2
ATOM      2  C   UNL     1      -5.814  -2.030   0.647  0.00  0.00    -0.022 A 
ATOM      3  C   UNL     1      -5.888  -0.680   0.359  0.00  0.00    +0.006 A 
ATOM      4  C   UNL     1      -6.882   0.088   0.929  0.00  0.00    +0.004 A 
ATOM      5  C   UNL     1      -7.811  -0.483   1.789  0.00  0.00    -0.044 A 
ATOM      6  C   UNL     1      -7.741  -1.829   2.071  0.00  0.00    -0.044 A 
ATOM      7  C   UNL     1      -6.740  -2.601   1.495  0.00  0.00    +0.009 A 
ATOM      8  C   UNL     1      -8.723  -2.519   2.981  0.00  0.00    +0.035 C 
ATOM      9  C   UNL     1      -9.465  -1.499   3.843  0.00  0.00    +0.005 C 
ATOM     10  C   UNL     1     -10.030  -0.409   2.924  0.00  0.00    +0.005 C 
ATOM     11  C   UNL     1      -8.865   0.415   2.381  0.00  0.00    +0.035 C 
ENDBRANCH   1   2
BRANCH   1  15
ATOM     12  N   UNL     1      -1.137  -2.095   0.002  0.00  0.00    -0.218 N 
ATOM     13  C   UNL     1      -2.295  -2.784   0.009  0.00  0.00    +0.317 C 
ATOM     14  O   UNL     1      -2.278  -4.000   0.002  0.00  0.00    -0.251 OA
ATOM     15  N   UNL     1      -3.471  -2.126   0.024  0.00  0.00    -0.287 N 
ATOM     16  H   UNL     1      -0.290  -2.568  -0.009  0.00  0.00    +0.174 HD
ATOM     17  H   UNL     1      -3.484  -1.157   0.029  0.00  0.00    +0.151 HD
BRANCH  12  21
ATOM     18  C   UNL     1      -0.018   1.503   0.010  0.00  0.00    +0.110 C 
ATOM     19  C   UNL     1       0.002  -0.004   0.002  0.00  0.00    +0.226 C 
ATOM     20  O   UNL     1       1.060  -0.596  -0.011  0.00  0.00    -0.275 OA
ATOM     21  N   UNL     1      -1.156  -0.694   0.009  0.00  0.00    -0.233 N 
ATOM     22  H   UNL     1      -2.002  -0.220   0.020  0.00  0.00    +0.173 HD
ENDBRANCH  12  21
ENDBRANCH   1  15
BRANCH   1  23
ATOM     23  C   UNL     1      -5.111  -3.232  -1.382  0.00  0.00    +0.014 A 
ATOM     24  C   UNL     1      -5.650  -4.381  -1.857  0.00  0.00    +0.013 A 
ATOM     25  C   UNL     1      -5.922  -4.486  -3.208  0.00  0.00    +0.008 A 
ATOM     26  C   UNL     1      -5.642  -3.436  -4.018  0.00  0.00    +0.045 A 
ATOM     27  S   UNL     1      -4.979  -2.246  -2.864  0.00  0.00    -0.099 S 
ENDBRANCH   1  23
TORSDOF 4
