REMARK  Name = ZINC24907171
REMARK  6 active torsions:
REMARK  status: ('A' for Active; 'I' for Inactive)
REMARK    1  A    between atoms: C_3  and  C_29
REMARK    2  A    between atoms: N_11  and  C_12
REMARK    3  A    between atoms: C_12  and  C_13
REMARK    4  A    between atoms: N_16  and  C_19
REMARK    5  A    between atoms: C_20  and  N_25
REMARK    6  A    between atoms: N_25  and  C_26
REMARK                            x       y       z     vdW  Elec       q    Type
REMARK                         _______ _______ _______ _____ _____    ______ ____
ROOT
ATOM      1  C   UNL     1       6.087   2.115  -0.046  0.00  0.00    +0.009 C 
ATOM      2  C   UNL     1       6.107   2.912  -1.353  0.00  0.00    +0.022 C 
ATOM      3  C   UNL     1       7.349   3.805  -1.381  0.00  0.00    +0.085 C 
ATOM      4  N   UNL     1       8.555   2.973  -1.275  0.00  0.00    -0.389 NA
ATOM      5  C   UNL     1       8.580   2.235  -0.006  0.00  0.00    +0.085 C 
ATOM      6  C   UNL     1       7.375   1.294   0.063  0.00  0.00    +0.022 C 
ATOM      7  H   UNL     1       8.592   2.266  -2.116  0.00  0.00    +0.127 HD
ENDROOT
BRANCH   4   8
ATOM      8  C   UNL     1       9.689   3.730  -1.426  0.00  0.00    +0.089 C 
ATOM      9  C   UNL     1      10.179   4.596  -2.413  0.00  0.00    +0.097 C 
ATOM     10  C   UNL     1      11.412   4.884  -1.666  0.00  0.00    +0.189 C 
ATOM     11  O   UNL     1      12.406   5.566  -1.831  0.00  0.00    -0.502 OA
ATOM     12  C   UNL     1      10.899   3.963  -0.623  0.00  0.00    +0.243 C 
ATOM     13  O   UNL     1      11.308   3.566   0.451  0.00  0.00    -0.282 OA
ATOM     14  H   UNL     1      13.195   5.582  -1.064  0.00  0.00    +0.292 HD
BRANCH   9  15
ATOM     15  N   UNL     1       9.691   5.017  -3.625  0.00  0.00    -0.337 N 
ATOM     16  H   UNL     1       8.746   4.750  -4.121  0.00  0.00    +0.147 HD
BRANCH  15  17
ATOM     17  C   UNL     1      10.625   5.947  -4.274  0.00  0.00    +0.071 C 
ATOM     18  C   UNL     1      10.036   7.198  -4.928  0.00  0.00    +0.024 C 
ATOM     19  C   UNL     1      10.565   6.058  -5.799  0.00  0.00    +0.024 C 
ENDBRANCH  15  17
ENDBRANCH   9  15
ENDBRANCH   4   8
BRANCH   1  20
ATOM     20  C   UNL     1       4.879   1.175  -0.039  0.00  0.00    +0.106 C 
BRANCH  20  31
ATOM     21  C   UNL     1       1.233   3.489   0.009  0.00  0.00    +0.015 A 
ATOM     22  C   UNL     1       0.029   4.139   0.025  0.00  0.00    +0.033 A 
ATOM     23  C   UNL     1      -1.155   3.409   0.032  0.00  0.00    +0.144 A 
ATOM     24  N   UNL     1      -1.157   2.095   0.030  0.00  0.00    -0.243 NA
ATOM     25  C   UNL     1      -0.017   1.405   0.010  0.00  0.00    +0.076 A 
ATOM     26  C   UNL     1       1.226   2.087   0.002  0.00  0.00    +0.040 A 
ATOM     27  C   UNL     1       2.417   1.329  -0.014  0.00  0.00    +0.128 A 
ATOM     28  N   UNL     1       2.353   0.010  -0.020  0.00  0.00    -0.240 NA
ATOM     29  C   UNL     1       1.201  -0.647  -0.013  0.00  0.00    +0.115 A 
ATOM     30  C   UNL     1       0.002  -0.004   0.002  0.00  0.00    +0.048 A 
ATOM     31  N   UNL     1       3.646   1.965  -0.022  0.00  0.00    -0.328 N 
ATOM     32  H   UNL     1       3.696   3.064  -0.017  0.00  0.00    +0.147 HD
BRANCH  23  33
ATOM     33  C   UNL     1      -2.471   4.144   0.049  0.00  0.00    +0.434 C 
ATOM     34  F   UNL     1      -2.890   4.379  -1.265  0.00  0.00    -0.164 F 
ATOM     35  F   UNL     1      -3.429   3.371   0.713  0.00  0.00    -0.164 F 
ATOM     36  F   UNL     1      -2.314   5.365   0.713  0.00  0.00    -0.164 F 
ENDBRANCH  23  33
ENDBRANCH  20  31
ENDBRANCH   1  20
TORSDOF 6
