REMARK  Name = ZINC35778715
REMARK  16 active torsions:
REMARK  status: ('A' for Active; 'I' for Inactive)
REMARK    1  A    between atoms: C_1  and  C_2
REMARK    2  A    between atoms: C_2  and  C_3
REMARK    3  A    between atoms: C_3  and  C_5
REMARK    4  A    between atoms: C_3  and  O_34
REMARK    5  A    between atoms: C_5  and  N_6
REMARK    6  A    between atoms: N_6  and  C_7
REMARK    7  A    between atoms: N_6  and  C_12
REMARK    8  A    between atoms: C_7  and  C_8
REMARK    9  A    between atoms: C_8  and  C_9
REMARK   10  A    between atoms: C_9  and  C_10
REMARK   11  A    between atoms: C_9  and  C_11
REMARK   12  A    between atoms: C_12  and  C_13
REMARK   13  A    between atoms: C_23  and  C_25
REMARK   14  A    between atoms: C_25  and  O_26
REMARK   15  A    between atoms: O_26  and  C_27
REMARK   16  A    between atoms: C_30  and  C_33
REMARK                            x       y       z     vdW  Elec       q    Type
REMARK                         _______ _______ _______ _____ _____    ______ ____
ROOT
ATOM      1  C   UNL     1      -4.227  -4.140   1.698  0.00  0.00    +0.200 C 
ATOM      2  O   UNL     1      -5.008  -3.214   1.765  0.00  0.00    -0.278 OA
ATOM      3  N   UNL     1      -4.465  -5.273   2.387  0.00  0.00    -0.292 N 
ATOM      4  C   UNL     1      -3.522  -6.400   2.318  0.00  0.00    +0.113 C 
ATOM      5  C   UNL     1      -2.914  -6.606   3.714  0.00  0.00    +0.061 C 
ATOM      6  C   UNL     1      -4.002  -6.496   4.732  0.00  0.00    -0.004 A 
ATOM      7  C   UNL     1      -5.245  -5.965   4.573  0.00  0.00    -0.014 A 
ATOM      8  C   UNL     1      -6.077  -5.975   5.691  0.00  0.00    +0.013 A 
ATOM      9  C   UNL     1      -5.637  -6.501   6.857  0.00  0.00    +0.046 A 
ATOM     10  S   UNL     1      -3.983  -7.022   6.426  0.00  0.00    -0.101 S 
ATOM     11  C   UNL     1      -5.666  -5.398   3.223  0.00  0.00    +0.144 C 
ENDROOT
BRANCH   1  12
ATOM     12  C   UNL     1      -2.991  -4.023   0.843  0.00  0.00    +0.019 C 
BRANCH  12  13
ATOM     13  N   UNL     1      -2.981  -2.716   0.173  0.00  0.00    +0.387 N 
ATOM     14  H   UNL     1      -3.097  -1.986   0.860  0.00  0.00    -0.081 HD
BRANCH  13  15
ATOM     15  C   UNL     1      -1.701  -2.534  -0.525  0.00  0.00    -0.047 C 
BRANCH  15  16
ATOM     16  C   UNL     1      -1.631  -1.117  -1.100  0.00  0.00    +0.098 C 
BRANCH  16  18
ATOM     17  C   UNL     1      -0.120   0.596  -2.111  0.00  0.00    +0.006 C 
ATOM     18  C   UNL     1      -0.227  -0.859  -1.650  0.00  0.00    +0.026 C 
ENDBRANCH  16  18
BRANCH  16  19
ATOM     19  O   UNL     1      -2.588  -0.983  -2.153  0.00  0.00    -0.394 OA
ATOM     20  H   UNL     1      -2.453  -1.596  -2.888  0.00  0.00    +0.210 HD
ENDBRANCH  16  19
ENDBRANCH  15  16
ENDBRANCH  13  15
BRANCH  13  21
ATOM     21  C   UNL     1      -4.082  -2.655  -0.798  0.00  0.00    -0.078 C 
BRANCH  21  22
ATOM     22  C   UNL     1      -3.825  -3.658  -1.923  0.00  0.00    -0.016 C 
BRANCH  22  23
ATOM     23  C   UNL     1      -4.908  -3.512  -2.994  0.00  0.00    -0.019 C 
ATOM     24  C   UNL     1      -4.584  -4.427  -4.177  0.00  0.00    +0.007 C 
ATOM     25  C   UNL     1      -6.265  -3.903  -2.404  0.00  0.00    +0.007 C 
ENDBRANCH  22  23
ENDBRANCH  21  22
ENDBRANCH  13  21
ENDBRANCH  12  13
ENDBRANCH   1  12
BRANCH  11  26
ATOM     26  C   UNL     1      -6.665  -6.347   2.557  0.00  0.00    +0.256 C 
BRANCH  26  27
ATOM     27  O   UNL     1      -6.109  -7.662   2.502  0.00  0.00    -0.490 OA
BRANCH  27  28
ATOM     28  C   UNL     1      -6.873  -8.632   1.936  0.00  0.00    +0.121 A 
ATOM     29  C   UNL     1      -8.131  -8.324   1.438  0.00  0.00    +0.046 A 
ATOM     30  C   UNL     1      -8.906  -9.312   0.862  0.00  0.00    +0.007 A 
ATOM     31  C   UNL     1      -8.430 -10.607   0.782  0.00  0.00    -0.050 A 
ATOM     32  C   UNL     1      -7.177 -10.917   1.278  0.00  0.00    +0.007 A 
ATOM     33  C   UNL     1      -6.395  -9.932   1.849  0.00  0.00    +0.046 A 
ATOM     34  C   UNL     1      -9.278 -11.683   0.154  0.00  0.00    +0.044 C 
ENDBRANCH  27  28
ENDBRANCH  26  27
ENDBRANCH  11  26
TORSDOF 12
