REMARK  Name = ZINC23648205
REMARK  12 active torsions:
REMARK  status: ('A' for Active; 'I' for Inactive)
REMARK    1  A    between atoms: C_1  and  C_2
REMARK    2  A    between atoms: C_2  and  C_4
REMARK    3  A    between atoms: C_2  and  S_14
REMARK    4  A    between atoms: N_6  and  C_7
REMARK    5  A    between atoms: C_7  and  C_8
REMARK    6  A    between atoms: S_14  and  C_15
REMARK    7  A    between atoms: C_19  and  C_21
REMARK    8  A    between atoms: C_21  and  C_22
REMARK    9  A    between atoms: C_21  and  C_23
REMARK   10  A    between atoms: C_21  and  C_24
REMARK   11  A    between atoms: N_25  and  C_32
REMARK   12  A    between atoms: N_28  and  C_31
REMARK                            x       y       z     vdW  Elec       q    Type
REMARK                         _______ _______ _______ _____ _____    ______ ____
ROOT
ATOM      1  C   UNL     1      -0.189  -0.057  -2.809  0.00  0.00    +0.116 A 
ATOM      2  C   UNL     1       0.139  -0.334  -4.145  0.00  0.00    +0.114 A 
ATOM      3  C   UNL     1      -0.727   0.113  -5.161  0.00  0.00    +0.154 A 
ATOM      4  N   UNL     1      -1.821   0.780  -4.821  0.00  0.00    -0.213 NA
ATOM      5  C   UNL     1      -2.092   1.020  -3.552  0.00  0.00    +0.138 A 
ATOM      6  N   UNL     1      -1.315   0.617  -2.567  0.00  0.00    -0.224 NA
ATOM      7  N   UNL     1      -0.405  -0.160  -6.473  0.00  0.00    -0.281 N 
ATOM      8  C   UNL     1       0.715  -0.841  -6.776  0.00  0.00    +0.333 A 
ATOM      9  O   UNL     1       0.963  -1.061  -7.945  0.00  0.00    -0.246 OA
ATOM     10  N   UNL     1       1.571  -1.288  -5.843  0.00  0.00    -0.263 N 
ATOM     11  C   UNL     1       1.346  -1.072  -4.527  0.00  0.00    +0.268 A 
ATOM     12  O   UNL     1       2.124  -1.478  -3.685  0.00  0.00    -0.267 OA
ATOM     13  C   UNL     1       2.768  -2.022  -6.258  0.00  0.00    +0.157 C 
ATOM     14  C   UNL     1      -1.290   0.296  -7.548  0.00  0.00    +0.155 C 
ENDROOT
BRANCH   5  15
ATOM     15  C   UNL     1      -3.347   1.783  -3.214  0.00  0.00    +0.022 C 
ATOM     16  C   UNL     1      -4.565   1.017  -3.734  0.00  0.00    +0.019 C 
ATOM     17  C   UNL     1      -3.455   1.942  -1.696  0.00  0.00    +0.019 C 
ATOM     18  C   UNL     1      -3.296   3.165  -3.869  0.00  0.00    +0.019 C 
ENDBRANCH   5  15
BRANCH   1  19
ATOM     19  S   UNL     1       0.851  -0.589  -1.490  0.00  0.00    -0.093 S 
BRANCH  19  21
ATOM     20  C   UNL     1      -0.019   1.526   0.010  0.00  0.00    +0.029 C 
ATOM     21  C   UNL     1       0.002  -0.004   0.002  0.00  0.00    +0.135 C 
BRANCH  21  22
ATOM     22  C   UNL     1       0.731  -0.503   1.223  0.00  0.00    +0.226 C 
ATOM     23  O   UNL     1       1.911  -0.775   1.156  0.00  0.00    -0.275 OA
ATOM     24  N   UNL     1       0.071  -0.647   2.389  0.00  0.00    -0.314 N 
ATOM     25  H   UNL     1      -0.872  -0.430   2.443  0.00  0.00    +0.149 HD
BRANCH  24  26
ATOM     26  C   UNL     1       0.780  -1.133   3.576  0.00  0.00    +0.107 C 
BRANCH  26  27
ATOM     27  C   UNL     1      -0.191  -1.204   4.756  0.00  0.00    +0.006 C 
ATOM     28  C   UNL     1      -1.266  -2.254   4.470  0.00  0.00    +0.005 C 
ATOM     29  C   UNL     1      -2.237  -2.325   5.650  0.00  0.00    +0.000 C 
ATOM     30  C   UNL     1      -1.472  -2.712   6.917  0.00  0.00    +0.000 C 
ATOM     31  C   UNL     1      -0.397  -1.662   7.204  0.00  0.00    +0.000 C 
ATOM     32  C   UNL     1       0.574  -1.591   6.024  0.00  0.00    +0.005 C 
ENDBRANCH  26  27
ENDBRANCH  24  26
ENDBRANCH  21  22
ENDBRANCH  19  21
ENDBRANCH   1  19
TORSDOF 6
