REMARK  Name = ZINC63541379
REMARK  5 active torsions:
REMARK  status: ('A' for Active; 'I' for Inactive)
REMARK    1  A    between atoms: C_1  and  C_2
REMARK    2  A    between atoms: C_3  and  C_19
REMARK    3  A    between atoms: N_21  and  C_22
REMARK    4  A    between atoms: C_22  and  C_23
REMARK    5  A    between atoms: C_23  and  C_24
REMARK                            x       y       z     vdW  Elec       q    Type
REMARK                         _______ _______ _______ _____ _____    ______ ____
ROOT
ATOM      1  C   UNL     1      -0.018   1.503   0.010  0.00  0.00    +0.041 C 
ATOM      2  C   UNL     1       0.002  -0.004   0.002  0.00  0.00    -0.040 C 
ATOM      3  C   UNL     1       0.006  -0.671  -1.154  0.00  0.00    +0.071 C 
ATOM      4  S   UNL     1       0.042  -2.400  -0.717  0.00  0.00    -0.100 S 
ATOM      5  C   UNL     1       0.465  -2.226   1.068  0.00  0.00    +0.134 C 
ATOM      6  C   UNL     1       0.025  -0.765   1.288  0.00  0.00    +0.129 C 
ATOM      7  C   UNL     1       0.881  -0.082   2.307  0.00  0.00    +0.226 C 
ATOM      8  O   UNL     1       0.604   1.058   2.613  0.00  0.00    -0.275 OA
ATOM      9  N   UNL     1       1.932  -0.653   2.898  0.00  0.00    -0.285 N 
ATOM     10  C   UNL     1       2.734   0.076   3.892  0.00  0.00    +0.109 C 
ATOM     11  C   UNL     1       3.333  -0.949   4.860  0.00  0.00    +0.019 C 
ATOM     12  C   UNL     1       4.304  -1.870   4.128  0.00  0.00    +0.005 C 
ATOM     13  C   UNL     1       3.868  -2.101   2.683  0.00  0.00    +0.038 C 
ATOM     14  C   UNL     1       2.342  -2.028   2.577  0.00  0.00    +0.145 C 
ATOM     15  N   UNL     1       1.919  -2.349   1.212  0.00  0.00    -0.286 NA
ATOM     16  H   UNL     1       2.234  -3.266   0.933  0.00  0.00    +0.125 HD
ENDROOT
BRANCH   3  17
ATOM     17  C   UNL     1      -0.016  -0.097  -2.514  0.00  0.00    +0.250 C 
ATOM     18  O   UNL     1      -0.040   1.109  -2.664  0.00  0.00    -0.270 OA
ATOM     19  N   UNL     1      -0.009  -0.910  -3.589  0.00  0.00    -0.311 N 
ATOM     20  H   UNL     1       0.011  -1.872  -3.469  0.00  0.00    +0.149 HD
BRANCH  19  21
ATOM     21  C   UNL     1      -0.030  -0.340  -4.938  0.00  0.00    +0.109 C 
BRANCH  21  22
ATOM     22  C   UNL     1      -0.017  -1.470  -5.969  0.00  0.00    +0.052 C 
BRANCH  22  23
ATOM     23  C   UNL     1      -0.039  -0.884  -7.357  0.00  0.00    -0.040 C 
ATOM     24  C   UNL     1       1.027  -0.638  -8.154  0.00  0.00    -0.001 A 
ATOM     25  C   UNL     1       2.470  -0.835  -7.972  0.00  0.00    +0.010 A 
ATOM     26  C   UNL     1       3.311  -0.485  -8.972  0.00  0.00    +0.001 A 
ATOM     27  C   UNL     1       2.839   0.061 -10.174  0.00  0.00    +0.002 A 
ATOM     28  C   UNL     1       1.528   0.272 -10.414  0.00  0.00    +0.026 A 
ATOM     29  C   UNL     1       0.554  -0.061  -9.432  0.00  0.00    +0.043 A 
ATOM     30  N   UNL     1      -0.752   0.047  -9.427  0.00  0.00    -0.380 N 
ATOM     31  C   UNL     1      -1.258  -0.456  -8.145  0.00  0.00    +0.144 C 
ATOM     32  H   UNL     1      -1.294   0.397 -10.151  0.00  0.00    +0.160 HD
ENDBRANCH  22  23
ENDBRANCH  21  22
ENDBRANCH  19  21
ENDBRANCH   3  17
TORSDOF 4
