REMARK  Name = ZINC01368168
REMARK  8 active torsions:
REMARK  status: ('A' for Active; 'I' for Inactive)
REMARK    1  A    between atoms: C_1  and  C_2
REMARK    2  A    between atoms: C_2  and  C_3
REMARK    3  A    between atoms: N_5  and  C_6
REMARK    4  A    between atoms: C_9  and  C_12
REMARK    5  A    between atoms: C_12  and  C_14
REMARK    6  A    between atoms: C_14  and  S_15
REMARK    7  A    between atoms: S_15  and  C_16
REMARK    8  A    between atoms: C_28  and  C_32
REMARK                            x       y       z     vdW  Elec       q    Type
REMARK                         _______ _______ _______ _____ _____    ______ ____
ROOT
ATOM      1  S   UNL     1      -6.889   5.454  -0.340  0.00  0.00    -0.080 S 
ENDROOT
BRANCH   1   2
ATOM      2  C   UNL     1      -6.709   7.199  -0.500  0.00  0.00    +0.170 A 
ATOM      3  N   UNL     1      -7.821   7.988  -0.561  0.00  0.00    -0.301 N 
ATOM      4  H   UNL     1      -8.699   7.577  -0.516  0.00  0.00    +0.171 HD
ATOM      5  C   UNL     1      -7.723   9.325  -0.683  0.00  0.00    +0.261 A 
ATOM      6  O   UNL     1      -8.727  10.015  -0.737  0.00  0.00    -0.267 OA
ATOM      7  C   UNL     1      -6.426   9.924  -0.749  0.00  0.00    +0.075 A 
ATOM      8  C   UNL     1      -6.087  11.342  -0.881  0.00  0.00    -0.023 A 
ATOM      9  C   UNL     1      -4.777  11.657  -0.921  0.00  0.00    -0.004 A 
ATOM     10  S   UNL     1      -3.926  10.108  -0.787  0.00  0.00    -0.073 S 
ATOM     11  C   UNL     1      -5.338   9.038  -0.678  0.00  0.00    +0.117 A 
ATOM     12  N   UNL     1      -5.502   7.726  -0.552  0.00  0.00    -0.216 NA
ATOM     13  C   UNL     1      -4.175  13.023  -1.052  0.00  0.00    +0.046 C 
ATOM     14  C   UNL     1      -5.272  13.995  -1.510  0.00  0.00    -0.009 C 
ATOM     15  C   UNL     1      -6.513  13.778  -0.638  0.00  0.00    +0.008 C 
ATOM     16  C   UNL     1      -7.154  12.431  -0.971  0.00  0.00    +0.037 C 
ATOM     17  C   UNL     1      -4.779  15.435  -1.359  0.00  0.00    +0.008 C 
ENDBRANCH   1   2
BRANCH   1  18
ATOM     18  C   UNL     1      -5.148   4.960  -0.311  0.00  0.00    +0.156 C 
BRANCH  18  19
ATOM     19  C   UNL     1      -5.053   3.462  -0.176  0.00  0.00    +0.173 C 
ATOM     20  O   UNL     1      -6.063   2.794  -0.107  0.00  0.00    -0.291 OA
BRANCH  19  24
ATOM     21  C   UNL     1      -1.259   1.583  -0.038  0.00  0.00    +0.033 A 
ATOM     22  C   UNL     1      -1.344   2.968  -0.157  0.00  0.00    +0.024 A 
ATOM     23  C   UNL     1      -2.570   3.580  -0.208  0.00  0.00    +0.013 A 
ATOM     24  C   UNL     1      -3.738   2.810  -0.129  0.00  0.00    +0.018 A 
ATOM     25  C   UNL     1      -3.647   1.418  -0.004  0.00  0.00    +0.013 A 
ATOM     26  C   UNL     1      -2.417   0.815   0.041  0.00  0.00    +0.024 A 
BRANCH  21  29
ATOM     27  C   UNL     1       1.022   1.578   0.619  0.00  0.00    +0.217 C 
ATOM     28  O   UNL     1       0.887   2.700   1.061  0.00  0.00    -0.275 OA
ATOM     29  N   UNL     1      -0.011   0.966   0.007  0.00  0.00    -0.286 N 
ATOM     30  H   UNL     1       0.115   0.097  -0.405  0.00  0.00    +0.155 HD
BRANCH  27  32
ATOM     31  C   UNL     1       3.339   1.779   1.480  0.00  0.00    +0.013 C 
ATOM     32  C   UNL     1       2.345   0.870   0.753  0.00  0.00    +0.093 C 
ENDBRANCH  27  32
ENDBRANCH  21  29
ENDBRANCH  19  24
ENDBRANCH  18  19
ENDBRANCH   1  18
TORSDOF 6
