REMARK  Name = ZINC39674338
REMARK  10 active torsions:
REMARK  status: ('A' for Active; 'I' for Inactive)
REMARK    1  A    between atoms: C_1  and  C_2
REMARK    2  A    between atoms: C_2  and  O_3
REMARK    3  A    between atoms: O_3  and  C_4
REMARK    4  A    between atoms: C_9  and  C_10
REMARK    5  A    between atoms: C_14  and  C_23
REMARK    6  A    between atoms: N_25  and  C_26
REMARK    7  A    between atoms: C_26  and  C_28
REMARK    8  A    between atoms: C_26  and  C_29
REMARK    9  A    between atoms: C_30  and  C_36
REMARK   10  A    between atoms: C_33  and  C_35
REMARK                            x       y       z     vdW  Elec       q    Type
REMARK                         _______ _______ _______ _____ _____    ______ ____
ROOT
ATOM      1  C   UNL     1      -5.479  -0.233  -0.767  0.00  0.00    +0.250 C 
ATOM      2  O   UNL     1      -5.551   0.978  -0.681  0.00  0.00    -0.270 OA
ATOM      3  N   UNL     1      -6.600  -0.980  -0.707  0.00  0.00    -0.296 N 
ATOM      4  C   UNL     1      -6.706  -2.458  -0.681  0.00  0.00    +0.121 C 
ATOM      5  C   UNL     1      -7.845  -2.750   0.322  0.00  0.00    +0.100 C 
ATOM      6  C   UNL     1      -8.694  -1.468   0.336  0.00  0.00    -0.004 C 
ATOM      7  C   UNL     1      -8.004  -0.508  -0.644  0.00  0.00    +0.115 C 
ATOM      8  C   UNL     1      -8.711  -0.861   1.735  0.00  0.00    -0.010 C 
ATOM      9  C   UNL     1      -9.608   0.380   1.737  0.00  0.00    -0.082 C 
ATOM     10  N   UNL     1     -10.967   0.005   1.328  0.00  0.00    +0.379 N 
ATOM     11  C   UNL     1     -10.955  -0.492  -0.053  0.00  0.00    -0.082 C 
ATOM     12  C   UNL     1     -10.115  -1.770  -0.131  0.00  0.00    -0.010 C 
ATOM     13  H   UNL     1     -11.313  -0.718   1.941  0.00  0.00    -0.086 HD
ATOM     14  H   UNL     1     -11.569   0.811   1.389  0.00  0.00    -0.086 HD
ENDROOT
BRANCH   1  20
ATOM     15  C   UNL     1      -3.028  -0.347  -0.322  0.00  0.00    +0.133 A 
ATOM     16  C   UNL     1      -1.800  -0.972  -0.484  0.00  0.00    +0.046 A 
ATOM     17  C   UNL     1      -1.700  -2.114  -1.253  0.00  0.00    +0.004 A 
ATOM     18  C   UNL     1      -2.823  -2.644  -1.868  0.00  0.00    +0.001 A 
ATOM     19  C   UNL     1      -4.051  -2.038  -1.718  0.00  0.00    +0.017 A 
ATOM     20  C   UNL     1      -4.167  -0.885  -0.937  0.00  0.00    +0.078 A 
BRANCH  15  21
ATOM     21  O   UNL     1      -3.128   0.775   0.434  0.00  0.00    -0.491 OA
BRANCH  21  23
ATOM     22  C   UNL     1      -2.233   2.526   1.838  0.00  0.00    +0.048 C 
ATOM     23  C   UNL     1      -1.925   1.264   1.030  0.00  0.00    +0.226 C 
ENDBRANCH  21  23
ENDBRANCH  15  21
ENDBRANCH   1  20
BRANCH   5  24
ATOM     24  C   UNL     1      -8.668  -3.923  -0.146  0.00  0.00    +0.219 C 
ATOM     25  O   UNL     1      -8.743  -4.177  -1.330  0.00  0.00    -0.275 OA
ATOM     26  N   UNL     1      -9.320  -4.689   0.750  0.00  0.00    -0.309 N 
ATOM     27  H   UNL     1      -9.260  -4.485   1.697  0.00  0.00    +0.149 HD
BRANCH  26  28
ATOM     28  C   UNL     1     -10.121  -5.828   0.295  0.00  0.00    +0.100 C 
ATOM     29  C   UNL     1      -9.202  -7.022   0.029  0.00  0.00    +0.033 C 
BRANCH  28  30
ATOM     30  C   UNL     1     -11.124  -6.194   1.358  0.00  0.00    -0.001 C 
ATOM     31  C   UNL     1     -12.453  -6.263   1.246  0.00  0.00    +0.063 C 
ATOM     32  N   UNL     1     -13.015  -6.625   2.421  0.00  0.00    -0.159 NA
ATOM     33  N   UNL     1     -12.211  -6.816   3.336  0.00  0.00    -0.180 NA
ATOM     34  C   UNL     1     -10.859  -6.576   2.804  0.00  0.00    +0.154 C 
ATOM     35  C   UNL     1     -10.181  -5.426   3.552  0.00  0.00    +0.039 C 
ATOM     36  C   UNL     1     -13.221  -5.975  -0.018  0.00  0.00    +0.067 C 
ENDBRANCH  28  30
ENDBRANCH  26  28
ENDBRANCH   5  24
TORSDOF 6
