REMARK  Name = ZINC09358981
REMARK  15 active torsions:
REMARK  status: ('A' for Active; 'I' for Inactive)
REMARK    1  A    between atoms: C_1  and  C_2
REMARK    2  A    between atoms: C_2  and  C_9
REMARK    3  A    between atoms: C_3  and  C_4
REMARK    4  A    between atoms: N_10  and  N_11
REMARK    5  A    between atoms: C_12  and  C_14
REMARK    6  A    between atoms: C_14  and  S_15
REMARK    7  A    between atoms: S_15  and  C_16
REMARK    8  A    between atoms: C_19  and  C_29
REMARK    9  A    between atoms: N_20  and  C_21
REMARK   10  A    between atoms: C_24  and  O_27
REMARK   11  A    between atoms: O_27  and  C_28
REMARK   12  A    between atoms: C_32  and  C_35
REMARK   13  A    between atoms: C_35  and  C_36
REMARK   14  A    between atoms: C_35  and  C_37
REMARK   15  A    between atoms: C_35  and  C_38
REMARK                            x       y       z     vdW  Elec       q    Type
REMARK                         _______ _______ _______ _____ _____    ______ ____
ROOT
ATOM      1  C   UNL     1     -11.948   3.257   2.508  0.00  0.00    +0.197 A 
ATOM      2  N   UNL     1     -12.148   1.958   2.483  0.00  0.00    -0.122 NA
ATOM      3  N   UNL     1     -13.364   1.691   2.802  0.00  0.00    -0.128 NA
ATOM      4  C   UNL     1     -14.018   2.802   3.050  0.00  0.00    +0.169 A 
ATOM      5  N   UNL     1     -13.130   3.841   2.874  0.00  0.00    -0.270 N 
ENDROOT
BRANCH   5   6
ATOM      6  C   UNL     1     -13.385   5.211   3.036  0.00  0.00    +0.051 A 
ATOM      7  C   UNL     1     -13.706   5.715   4.289  0.00  0.00    +0.030 A 
ATOM      8  C   UNL     1     -13.951   7.064   4.448  0.00  0.00    +0.047 A 
ATOM      9  C   UNL     1     -13.888   7.915   3.354  0.00  0.00    +0.120 A 
ATOM     10  C   UNL     1     -13.573   7.411   2.100  0.00  0.00    +0.047 A 
ATOM     11  C   UNL     1     -13.322   6.063   1.941  0.00  0.00    +0.030 A 
BRANCH   9  12
ATOM     12  O   UNL     1     -14.135   9.243   3.510  0.00  0.00    -0.495 OA
ATOM     13  C   UNL     1     -14.453   9.693   4.829  0.00  0.00    +0.277 C 
ENDBRANCH   9  12
ENDBRANCH   5   6
BRANCH   4  14
ATOM     14  C   UNL     1     -15.436   2.917   3.448  0.00  0.00    +0.020 A 
ATOM     15  C   UNL     1     -16.085   4.151   3.383  0.00  0.00    +0.012 A 
ATOM     16  C   UNL     1     -17.412   4.249   3.750  0.00  0.00    +0.005 A 
ATOM     17  C   UNL     1     -18.095   3.131   4.193  0.00  0.00    -0.042 A 
ATOM     18  C   UNL     1     -17.456   1.906   4.265  0.00  0.00    +0.005 A 
ATOM     19  C   UNL     1     -16.132   1.792   3.895  0.00  0.00    +0.012 A 
BRANCH  17  20
ATOM     20  C   UNL     1     -19.542   3.247   4.598  0.00  0.00    -0.013 C 
ATOM     21  C   UNL     1     -19.695   2.834   6.063  0.00  0.00    +0.015 C 
ATOM     22  C   UNL     1     -20.005   4.695   4.425  0.00  0.00    +0.015 C 
ATOM     23  C   UNL     1     -20.394   2.331   3.718  0.00  0.00    +0.015 C 
ENDBRANCH  17  20
ENDBRANCH   4  14
BRANCH   1  24
ATOM     24  S   UNL     1     -10.439   4.091   2.144  0.00  0.00    -0.076 S 
BRANCH  24  25
ATOM     25  C   UNL     1      -9.380   2.672   1.766  0.00  0.00    +0.174 C 
BRANCH  25  27
ATOM     26  N   UNL     1      -7.033   2.272   1.095  0.00  0.00    -0.206 N 
ATOM     27  C   UNL     1      -7.997   3.158   1.415  0.00  0.00    +0.242 C 
ATOM     28  O   UNL     1      -7.752   4.346   1.421  0.00  0.00    -0.273 OA
ATOM     29  H   UNL     1      -7.230   1.322   1.091  0.00  0.00    +0.177 HD
BRANCH  26  31
ATOM     30  C   UNL     1      -4.815   1.866   0.460  0.00  0.00    +0.133 C 
ATOM     31  N   UNL     1      -5.747   2.723   0.769  0.00  0.00    -0.188 NA
BRANCH  30  33
ATOM     32  C   UNL     1      -3.211   3.797   0.138  0.00  0.00    +0.045 C 
ATOM     33  C   UNL     1      -3.516   2.321   0.131  0.00  0.00    -0.027 C 
ATOM     34  C   UNL     1      -2.548   1.431  -0.190  0.00  0.00    +0.051 C 
BRANCH  34  35
ATOM     35  C   UNL     1      -1.250   1.904  -0.667  0.00  0.00    +0.128 A 
ATOM     36  C   UNL     1      -0.153   1.126  -0.916  0.00  0.00    +0.049 A 
ATOM     37  C   UNL     1       0.863   1.991  -1.361  0.00  0.00    +0.042 A 
ATOM     38  C   UNL     1       0.351   3.240  -1.358  0.00  0.00    +0.195 A 
ATOM     39  O   UNL     1      -0.922   3.184  -0.936  0.00  0.00    -0.464 OA
ENDBRANCH  34  35
ENDBRANCH  30  33
ENDBRANCH  26  31
ENDBRANCH  25  27
ENDBRANCH  24  25
ENDBRANCH   1  24
TORSDOF 10
