REMARK  Name = ZINC25063681
REMARK  6 active torsions:
REMARK  status: ('A' for Active; 'I' for Inactive)
REMARK    1  A    between atoms: C_4  and  S_24
REMARK    2  A    between atoms: C_5  and  C_7
REMARK    3  A    between atoms: C_7  and  N_8
REMARK    4  A    between atoms: C_9  and  C_11
REMARK    5  A    between atoms: C_16  and  C_17
REMARK    6  A    between atoms: S_24  and  N_27
REMARK                            x       y       z     vdW  Elec       q    Type
REMARK                         _______ _______ _______ _____ _____    ______ ____
ROOT
ATOM      1  N   UNL     1       0.638  -1.289  -0.819  0.00  0.00    -0.307 N 
ATOM      2  C   UNL     1      -0.599  -1.435  -0.304  0.00  0.00    +0.248 C 
ATOM      3  O   UNL     1      -0.881  -2.436   0.326  0.00  0.00    -0.270 OA
ATOM      4  H   UNL     1       0.919  -0.349  -1.317  0.00  0.00    +0.149 HD
ENDROOT
BRANCH   2   5
ATOM      5  C   UNL     1      -1.609  -0.381  -0.504  0.00  0.00    +0.082 A 
ATOM      6  C   UNL     1      -1.409   0.856  -1.081  0.00  0.00    +0.118 A 
ATOM      7  N   UNL     1      -2.581   1.509  -1.071  0.00  0.00    -0.283 N 
ATOM      8  H   UNL     1      -2.648   2.525  -1.487  0.00  0.00    +0.188 HD
ATOM      9  N   UNL     1      -3.563   0.705  -0.485  0.00  0.00    -0.173 NA
ATOM     10  C   UNL     1      -3.026  -0.442  -0.135  0.00  0.00    +0.105 A 
BRANCH  10  11
ATOM     11  C   UNL     1      -3.721  -1.580   0.513  0.00  0.00    +0.003 A 
ATOM     12  C   UNL     1      -3.358  -2.890   0.203  0.00  0.00    +0.011 A 
ATOM     13  C   UNL     1      -4.005  -3.945   0.813  0.00  0.00    +0.020 A 
ATOM     14  C   UNL     1      -5.020  -3.705   1.724  0.00  0.00    +0.041 A 
ATOM     15  C   UNL     1      -5.388  -2.406   2.031  0.00  0.00    +0.020 A 
ATOM     16  C   UNL     1      -4.744  -1.344   1.431  0.00  0.00    +0.011 A 
ATOM     17 CL   UNL     1      -5.834  -5.038   2.482  0.00  0.00    -0.084 Cl
ENDBRANCH  10  11
ENDBRANCH   2   5
BRANCH   1  18
ATOM     18  C   UNL     1       1.608  -2.382  -0.716  0.00  0.00    +0.141 C 
BRANCH  18  23
ATOM     19  C   UNL     1       4.258  -2.233  -3.400  0.00  0.00    +0.000 A 
ATOM     20  C   UNL     1       5.159  -1.340  -2.849  0.00  0.00    +0.002 A 
ATOM     21  C   UNL     1       4.908  -0.781  -1.610  0.00  0.00    +0.029 A 
ATOM     22  C   UNL     1       3.761  -1.123  -0.917  0.00  0.00    +0.110 A 
ATOM     23  C   UNL     1       2.861  -2.015  -1.468  0.00  0.00    -0.004 A 
ATOM     24  C   UNL     1       3.110  -2.570  -2.710  0.00  0.00    +0.007 A 
BRANCH  22  25
ATOM     25  S   UNL     1       3.444  -0.415   0.665  0.00  0.00    +0.061 S 
ATOM     26  O   UNL     1       3.829  -1.385   1.629  0.00  0.00    -0.153 OA
ATOM     27  O   UNL     1       2.131   0.127   0.612  0.00  0.00    -0.153 OA
BRANCH  25  28
ATOM     28  N   UNL     1       4.478   0.867   0.844  0.00  0.00    -0.177 NA
ATOM     29  C   UNL     1       4.153   2.177   0.265  0.00  0.00    +0.109 C 
ATOM     30  C   UNL     1       5.325   2.635  -0.608  0.00  0.00    +0.017 C 
ATOM     31  C   UNL     1       6.612   2.615   0.221  0.00  0.00    +0.003 C 
ATOM     32  C   UNL     1       6.892   1.188   0.697  0.00  0.00    +0.017 C 
ATOM     33  C   UNL     1       5.737   0.714   1.585  0.00  0.00    +0.109 C 
ENDBRANCH  25  28
ENDBRANCH  22  25
ENDBRANCH  18  23
ENDBRANCH   1  18
TORSDOF 6
