REMARK  Name = ZINC02967738
REMARK  11 active torsions:
REMARK  status: ('A' for Active; 'I' for Inactive)
REMARK    1  A    between atoms: C_1  and  C_2
REMARK    2  A    between atoms: C_2  and  C_3
REMARK    3  A    between atoms: C_3  and  C_5
REMARK    4  A    between atoms: C_3  and  N_6
REMARK    5  A    between atoms: C_7  and  C_9
REMARK    6  A    between atoms: C_9  and  S_10
REMARK    7  A    between atoms: S_10  and  C_11
REMARK    8  A    between atoms: C_21  and  C_26
REMARK    9  A    between atoms: C_26  and  C_27
REMARK   10  A    between atoms: N_29  and  C_30
REMARK   11  A    between atoms: C_30  and  C_31
REMARK                            x       y       z     vdW  Elec       q    Type
REMARK                         _______ _______ _______ _____ _____    ______ ____
ROOT
ATOM      1  C   UNL     1      -3.243  -4.714   1.519  0.00  0.00    +0.169 C 
ATOM      2  N   UNL     1      -3.128  -5.359   2.648  0.00  0.00    -0.225 NA
ATOM      3  C   UNL     1      -2.064  -5.191   3.472  0.00  0.00    +0.077 A 
ATOM      4  C   UNL     1      -1.961  -5.892   4.676  0.00  0.00    +0.028 A 
ATOM      5  C   UNL     1      -0.866  -5.695   5.489  0.00  0.00    +0.002 A 
ATOM      6  C   UNL     1       0.139  -4.809   5.125  0.00  0.00    +0.001 A 
ATOM      7  C   UNL     1       0.058  -4.107   3.941  0.00  0.00    +0.013 A 
ATOM      8  C   UNL     1      -1.041  -4.291   3.108  0.00  0.00    +0.041 A 
ATOM      9  C   UNL     1      -1.172  -3.561   1.829  0.00  0.00    +0.139 C 
ATOM     10  N   UNL     1      -0.381  -2.688   1.270  0.00  0.00    -0.255 NA
ATOM     11  C   UNL     1      -0.993  -2.276  -0.001  0.00  0.00    +0.202 C 
ATOM     12  C   UNL     1      -2.278  -3.073  -0.069  0.00  0.00    +0.252 C 
ATOM     13  O   UNL     1      -3.108  -3.054  -0.952  0.00  0.00    -0.272 OA
ATOM     14  N   UNL     1      -2.301  -3.812   1.068  0.00  0.00    -0.200 N 
ENDROOT
BRANCH   1  15
ATOM     15  S   UNL     1      -4.667  -5.008   0.524  0.00  0.00    -0.080 S 
BRANCH  15  16
ATOM     16  C   UNL     1      -5.524  -6.225   1.554  0.00  0.00    +0.172 C 
BRANCH  16  18
ATOM     17  N   UNL     1      -7.618  -7.539   1.471  0.00  0.00    -0.312 N 
ATOM     18  C   UNL     1      -6.809  -6.636   0.883  0.00  0.00    +0.224 C 
ATOM     19  O   UNL     1      -7.116  -6.153  -0.186  0.00  0.00    -0.275 OA
ATOM     20  H   UNL     1      -7.340  -7.976   2.442  0.00  0.00    +0.149 HD
BRANCH  17  21
ATOM     21  C   UNL     1      -8.867  -7.938   0.819  0.00  0.00    +0.070 C 
ATOM     22  C   UNL     1      -9.970  -6.938   1.173  0.00  0.00    +0.028 C 
BRANCH  21  24
ATOM     23  C   UNL     1      -8.229 -10.353   0.836  0.00  0.00    +0.005 C 
ATOM     24  C   UNL     1      -9.271  -9.333   1.300  0.00  0.00    +0.018 C 
ENDBRANCH  21  24
ENDBRANCH  17  21
ENDBRANCH  16  18
ENDBRANCH  15  16
ENDBRANCH   1  15
BRANCH  11  25
ATOM     25  C   UNL     1      -1.293  -0.775   0.010  0.00  0.00    +0.132 C 
BRANCH  25  26
ATOM     26  C   UNL     1       0.002  -0.004   0.002  0.00  0.00    +0.216 C 
ATOM     27  O   UNL     1       1.060  -0.596  -0.011  0.00  0.00    -0.276 OA
ATOM     28  N   UNL     1      -0.016   1.344   0.009  0.00  0.00    -0.311 N 
ATOM     29  H   UNL     1      -0.976   1.881   0.021  0.00  0.00    +0.149 HD
BRANCH  28  30
ATOM     30  C   UNL     1       1.242   2.093   0.001  0.00  0.00    +0.146 C 
BRANCH  30  31
ATOM     31  C   UNL     1       0.947   3.571   0.012  0.00  0.00    +0.007 A 
ATOM     32  C   UNL     1       0.784   4.401   1.071  0.00  0.00    +0.013 A 
ATOM     33  C   UNL     1       0.520   5.738   0.840  0.00  0.00    +0.008 A 
ATOM     34  C   UNL     1       0.421   6.178  -0.438  0.00  0.00    +0.045 A 
ATOM     35  S   UNL     1       0.713   4.681  -1.367  0.00  0.00    -0.100 S 
ENDBRANCH  30  31
ENDBRANCH  28  30
ENDBRANCH  25  26
ENDBRANCH  11  25
TORSDOF 9
