REMARK  Name = ZINC41652342
REMARK  3 active torsions:
REMARK  status: ('A' for Active; 'I' for Inactive)
REMARK    1  A    between atoms: C_1  and  C_2
REMARK    2  A    between atoms: C_5  and  C_9
REMARK    3  A    between atoms: C_7  and  N_8
REMARK                            x       y       z     vdW  Elec       q    Type
REMARK                         _______ _______ _______ _____ _____    ______ ____
ROOT
ATOM      1  C   UNL     1       0.060  -4.260  -0.029  0.00  0.00    +0.121 A 
ATOM      2  C   UNL     1      -0.608  -5.133  -1.008  0.00  0.00    +0.052 A 
ATOM      3  C   UNL     1      -1.400  -4.891  -2.131  0.00  0.00    +0.034 A 
ATOM      4  C   UNL     1      -1.890  -5.951  -2.862  0.00  0.00    +0.043 A 
ATOM      5  C   UNL     1      -1.601  -7.256  -2.485  0.00  0.00    +0.043 A 
ATOM      6  C   UNL     1      -0.820  -7.509  -1.377  0.00  0.00    +0.088 A 
ATOM      7  C   UNL     1      -0.316  -6.451  -0.627  0.00  0.00    +0.186 A 
ATOM      8  O   UNL     1       0.456  -6.388   0.477  0.00  0.00    -0.353 OA
ATOM      9  N   UNL     1       0.677  -5.035   0.822  0.00  0.00    -0.077 NA
ATOM     10 CL   UNL     1      -0.468  -9.146  -0.918  0.00  0.00    -0.080 Cl
ATOM     11 CL   UNL     1      -2.876  -5.654  -4.260  0.00  0.00    -0.083 Cl
ENDROOT
BRANCH   1  16
ATOM     12  C   UNL     1      -0.018   1.503   0.010  0.00  0.00    +0.045 C 
ATOM     13  C   UNL     1       0.002  -0.004   0.002  0.00  0.00    -0.030 A 
ATOM     14  C   UNL     1       0.006  -0.687  -1.200  0.00  0.00    +0.006 A 
ATOM     15  C   UNL     1       0.025  -2.067  -1.215  0.00  0.00    +0.010 A 
ATOM     16  C   UNL     1       0.040  -2.777  -0.015  0.00  0.00    +0.006 A 
ATOM     17  C   UNL     1       0.036  -2.091   1.197  0.00  0.00    +0.033 A 
ATOM     18  C   UNL     1       0.023  -0.703   1.203  0.00  0.00    +0.028 A 
BRANCH  18  19
ATOM     19  N   UNL     1       0.025  -0.010   2.415  0.00  0.00    -0.358 N 
ATOM     20  H   UNL     1       0.012   0.960   2.419  0.00  0.00    +0.142 HD
ATOM     21  H   UNL     1       0.040  -0.498   3.253  0.00  0.00    +0.142 HD
ENDBRANCH  18  19
ENDBRANCH   1  16
TORSDOF 2
