REMARK  Name = ZINC66147755
REMARK  9 active torsions:
REMARK  status: ('A' for Active; 'I' for Inactive)
REMARK    1  A    between atoms: C_1  and  C_2
REMARK    2  A    between atoms: C_2  and  C_3
REMARK    3  A    between atoms: C_2  and  C_4
REMARK    4  A    between atoms: C_9  and  N_10
REMARK    5  A    between atoms: N_10  and  C_11
REMARK    6  A    between atoms: C_11  and  N_13
REMARK    7  A    between atoms: N_13  and  N_14
REMARK    8  A    between atoms: C_15  and  C_17
REMARK    9  A    between atoms: C_19  and  N_24
REMARK                            x       y       z     vdW  Elec       q    Type
REMARK                         _______ _______ _______ _____ _____    ______ ____
ROOT
ATOM      1  N   UNL     1      -0.591  -2.343  -4.239  0.00  0.00    -0.245 N 
ATOM      2  H   UNL     1      -0.918  -2.777  -5.043  0.00  0.00    +0.172 HD
ENDROOT
BRANCH   1   3
ATOM      3  N   UNL     1       0.769  -2.029  -4.116  0.00  0.00    -0.231 N 
ATOM      4  C   UNL     1       1.623  -2.330  -5.115  0.00  0.00    +0.262 C 
ATOM      5  O   UNL     1       1.213  -2.874  -6.122  0.00  0.00    -0.269 OA
ATOM      6  H   UNL     1       1.095  -1.595  -3.313  0.00  0.00    +0.173 HD
BRANCH   4   7
ATOM      7  C   UNL     1       3.057  -1.998  -4.985  0.00  0.00    +0.059 A 
ATOM      8  C   UNL     1       3.532  -1.379  -3.828  0.00  0.00    +0.047 A 
ATOM      9  C   UNL     1       4.871  -1.072  -3.713  0.00  0.00    +0.127 A 
ATOM     10  C   UNL     1       5.745  -1.377  -4.742  0.00  0.00    +0.034 A 
ATOM     11  C   UNL     1       5.283  -1.990  -5.892  0.00  0.00    +0.023 A 
ATOM     12  C   UNL     1       3.945  -2.309  -6.018  0.00  0.00    +0.053 A 
ATOM     13 CL   UNL     1       3.367  -3.086  -7.458  0.00  0.00    -0.083 Cl
BRANCH   9  14
ATOM     14  N   UNL     1       5.376  -0.415  -2.486  0.00  0.00    +0.056 N 
ATOM     15  O   UNL     1       4.614  -0.148  -1.587  0.00  0.00    -0.126 OA
ATOM     16  O   UNL     1       6.550  -0.145  -2.384  0.00  0.00    -0.126 OA
ENDBRANCH   9  14
ENDBRANCH   4   7
ENDBRANCH   1   3
BRANCH   1  17
ATOM     17  C   UNL     1      -1.445  -2.043  -3.241  0.00  0.00    +0.151 C 
ATOM     18  S   UNL     1      -3.107  -2.427  -3.391  0.00  0.00    -0.017 S 
BRANCH  17  19
ATOM     19  N   UNL     1      -0.991  -1.440  -2.124  0.00  0.00    -0.296 N 
ATOM     20  H   UNL     1      -0.063  -1.165  -2.065  0.00  0.00    +0.154 HD
BRANCH  19  26
ATOM     21  C   UNL     1      -1.473  -1.545   0.240  0.00  0.00    -0.024 A 
ATOM     22  C   UNL     1      -2.329  -1.311   1.298  0.00  0.00    +0.006 A 
ATOM     23  C   UNL     1      -3.572  -0.748   1.072  0.00  0.00    +0.000 A 
ATOM     24  C   UNL     1      -3.962  -0.418  -0.214  0.00  0.00    +0.002 A 
ATOM     25  C   UNL     1      -3.110  -0.650  -1.276  0.00  0.00    +0.023 A 
ATOM     26  C   UNL     1      -1.859  -1.209  -1.051  0.00  0.00    +0.036 A 
BRANCH  21  28
ATOM     27  C   UNL     1       0.700  -1.238   1.395  0.00  0.00    +0.012 C 
ATOM     28  C   UNL     1      -0.119  -2.158   0.487  0.00  0.00    +0.015 C 
ATOM     29  C   UNL     1      -0.291  -3.519   1.164  0.00  0.00    +0.012 C 
ENDBRANCH  21  28
ENDBRANCH  19  26
ENDBRANCH  17  19
ENDBRANCH   1  17
TORSDOF 7
