REMARK  Name = ZINC60182960
REMARK  9 active torsions:
REMARK  status: ('A' for Active; 'I' for Inactive)
REMARK    1  A    between atoms: C_1  and  C_2
REMARK    2  A    between atoms: C_5  and  C_22
REMARK    3  A    between atoms: C_6  and  S_8
REMARK    4  A    between atoms: S_8  and  C_9
REMARK    5  A    between atoms: C_9  and  C_10
REMARK    6  A    between atoms: N_12  and  C_13
REMARK    7  A    between atoms: N_12  and  C_16
REMARK    8  A    between atoms: C_13  and  C_14
REMARK    9  A    between atoms: C_16  and  C_17
REMARK                            x       y       z     vdW  Elec       q    Type
REMARK                         _______ _______ _______ _____ _____    ______ ____
ROOT
ATOM      1  C   UNL     1       0.058  -2.323   5.341  0.00  0.00    +0.227 C 
ATOM      2  O   UNL     1       0.074  -3.531   5.447  0.00  0.00    -0.275 OA
ATOM      3  N   UNL     1       0.052  -1.549   6.445  0.00  0.00    -0.282 N 
ENDROOT
BRANCH   1   4
ATOM      4  C   UNL     1       0.043  -1.687   3.975  0.00  0.00    +0.170 C 
BRANCH   4   5
ATOM      5  S   UNL     1       0.055  -2.982   2.705  0.00  0.00    -0.116 S 
BRANCH   5  11
ATOM      6  C   UNL     1      -0.018   1.503   0.010  0.00  0.00    +0.044 C 
ATOM      7  C   UNL     1       0.002  -0.004   0.002  0.00  0.00    -0.049 A 
ATOM      8  C   UNL     1       0.006  -0.688  -1.200  0.00  0.00    +0.004 A 
ATOM      9  C   UNL     1       0.024  -2.071  -1.213  0.00  0.00    +0.005 A 
ATOM     10  C   UNL     1       0.040  -2.774  -0.024  0.00  0.00    -0.037 A 
ATOM     11  C   UNL     1       0.036  -2.090   1.186  0.00  0.00    +0.011 A 
ATOM     12  C   UNL     1       0.023  -0.700   1.194  0.00  0.00    +0.018 A 
ATOM     13  C   UNL     1       0.059  -4.280  -0.038  0.00  0.00    +0.045 C 
ENDBRANCH   5  11
ENDBRANCH   4   5
ENDBRANCH   1   4
BRANCH   3  14
ATOM     14  C   UNL     1       0.033  -0.090   6.316  0.00  0.00    +0.197 C 
BRANCH  14  15
ATOM     15  C   UNL     1      -1.362   0.381   6.279  0.00  0.00    -0.086 C 
ATOM     16  C   UNL     1      -2.474   0.756   6.250  0.00  0.00    +0.005 C 
ENDBRANCH  14  15
ENDBRANCH   3  14
BRANCH   3  17
ATOM     17  C   UNL     1       0.067  -2.167   7.773  0.00  0.00    +0.183 C 
BRANCH  17  18
ATOM     18  C   UNL     1       1.492  -2.361   8.222  0.00  0.00    +0.122 A 
ATOM     19  C   UNL     1       2.224  -1.474   8.921  0.00  0.00    +0.046 A 
ATOM     20  C   UNL     1       3.494  -2.061   9.124  0.00  0.00    +0.041 A 
ATOM     21  C   UNL     1       3.463  -3.271   8.536  0.00  0.00    +0.195 A 
ATOM     22  O   UNL     1       2.246  -3.449   7.996  0.00  0.00    -0.466 OA
ENDBRANCH  17  18
ENDBRANCH   3  17
TORSDOF 7
