REMARK  Name = ZINC14263173
REMARK  9 active torsions:
REMARK  status: ('A' for Active; 'I' for Inactive)
REMARK    1  A    between atoms: C_1  and  N_58
REMARK    2  A    between atoms: C_2  and  N_58
REMARK    3  A    between atoms: C_3  and  C_5
REMARK    4  A    between atoms: C_3  and  C_26
REMARK    5  A    between atoms: C_3  and  N_58
REMARK    6  A    between atoms: C_5  and  N_6
REMARK    7  A    between atoms: C_7  and  C_9
REMARK    8  A    between atoms: N_14  and  S_16
REMARK    9  A    between atoms: S_16  and  C_19
REMARK                            x       y       z     vdW  Elec       q    Type
REMARK                         _______ _______ _______ _____ _____    ______ ____
ROOT
ATOM      1  N   UNL     1       1.566  -3.501  -1.900  0.00  0.00    -0.316 N 
ATOM      2  C   UNL     1       1.822  -3.748  -3.200  0.00  0.00    +0.217 C 
ATOM      3  O   UNL     1       1.946  -2.828  -3.980  0.00  0.00    -0.275 OA
ATOM      4  H   UNL     1       1.467  -4.237  -1.277  0.00  0.00    +0.149 HD
ENDROOT
BRANCH   2   5
ATOM      5  C   UNL     1       1.955  -5.169  -3.684  0.00  0.00    +0.091 C 
ATOM      6  C   UNL     1       3.105  -5.856  -2.944  0.00  0.00    +0.015 C 
ATOM      7  C   UNL     1       3.220  -7.308  -3.411  0.00  0.00    +0.018 C 
ATOM      8  C   UNL     1       3.527  -7.335  -4.912  0.00  0.00    +0.109 C 
ATOM      9  N   UNL     1       2.503  -6.553  -5.618  0.00  0.00    -0.176 NA
ATOM     10  C   UNL     1       2.248  -5.172  -5.188  0.00  0.00    +0.122 C 
BRANCH   9  11
ATOM     11  S   UNL     1       1.652  -7.217  -6.875  0.00  0.00    +0.061 S 
ATOM     12  O   UNL     1       1.195  -6.133  -7.672  0.00  0.00    -0.153 OA
ATOM     13  O   UNL     1       2.456  -8.264  -7.400  0.00  0.00    -0.153 OA
BRANCH  11  14
ATOM     14  C   UNL     1       0.218  -7.977  -6.189  0.00  0.00    +0.106 A 
ATOM     15  C   UNL     1       0.260  -9.301  -5.795  0.00  0.00    +0.029 A 
ATOM     16  C   UNL     1      -0.863  -9.897  -5.252  0.00  0.00    +0.017 A 
ATOM     17  C   UNL     1      -2.032  -9.171  -5.114  0.00  0.00    +0.018 A 
ATOM     18  C   UNL     1      -2.075  -7.847  -5.513  0.00  0.00    +0.017 A 
ATOM     19  C   UNL     1      -0.950  -7.251  -6.051  0.00  0.00    +0.029 A 
ATOM     20 BR   UNL     1      -3.571  -9.987  -4.379  0.00  0.00    -0.050 Br
ENDBRANCH  11  14
ENDBRANCH   9  11
ENDBRANCH   2   5
BRANCH   1  21
ATOM     21  C   UNL     1       1.437  -2.119  -1.430  0.00  0.00    +0.093 C 
BRANCH  21  22
ATOM     22  C   UNL     1       1.270  -2.112   0.091  0.00  0.00    -0.021 C 
BRANCH  22  23
ATOM     23  C   UNL     1       1.213  -0.689   0.584  0.00  0.00    -0.059 A 
ATOM     24  C   UNL     1       0.013  -0.154   1.012  0.00  0.00    +0.002 A 
ATOM     25  C   UNL     1      -0.040   1.151   1.464  0.00  0.00    +0.000 A 
ATOM     26  C   UNL     1       1.108   1.921   1.488  0.00  0.00    +0.000 A 
ATOM     27  C   UNL     1       2.308   1.386   1.059  0.00  0.00    +0.000 A 
ATOM     28  C   UNL     1       2.361   0.081   0.607  0.00  0.00    +0.002 A 
ENDBRANCH  22  23
BRANCH  22  31
ATOM     29  C   UNL     1       3.622  -2.655  -0.107  0.00  0.00    -0.096 C 
ATOM     30  C   UNL     1       2.638  -2.313   2.079  0.00  0.00    -0.096 C 
ATOM     31  N   UNL     1       2.404  -2.828   0.713  0.00  0.00    +0.382 N 
ATOM     32  H   UNL     1       2.178  -3.828   0.768  0.00  0.00    -0.082 HD
ENDBRANCH  22  31
ENDBRANCH  21  22
ENDBRANCH   1  21
TORSDOF 7
