REMARK  Name = ZINC07377244
REMARK  9 active torsions:
REMARK  status: ('A' for Active; 'I' for Inactive)
REMARK    1  A    between atoms: C_1  and  C_2
REMARK    2  A    between atoms: C_2  and  C_4
REMARK    3  A    between atoms: C_2  and  O_17
REMARK    4  A    between atoms: N_6  and  C_7
REMARK    5  A    between atoms: C_10  and  S_13
REMARK    6  A    between atoms: S_13  and  C_14
REMARK    7  A    between atoms: O_17  and  C_18
REMARK    8  A    between atoms: C_18  and  C_20
REMARK    9  A    between atoms: C_25  and  N_26
REMARK                            x       y       z     vdW  Elec       q    Type
REMARK                         _______ _______ _______ _____ _____    ______ ____
ROOT
ATOM      1  C   UNL     1      -4.114  -1.519  -1.293  0.00  0.00    +0.062 C 
ATOM      2  C   UNL     1      -3.719  -1.166   0.142  0.00  0.00    +0.259 C 
ENDROOT
BRANCH   2   3
ATOM      3  C   UNL     1      -3.585  -2.429   0.952  0.00  0.00    +0.258 C 
ATOM      4  O   UNL     1      -2.525  -2.707   1.472  0.00  0.00    -0.271 OA
ATOM      5  N   UNL     1      -4.643  -3.251   1.099  0.00  0.00    -0.282 N 
ATOM      6  H   UNL     1      -5.472  -3.063   0.631  0.00  0.00    +0.155 HD
BRANCH   5   7
ATOM      7  C   UNL     1      -4.546  -4.377   1.927  0.00  0.00    +0.034 A 
ATOM      8  C   UNL     1      -3.351  -5.079   2.007  0.00  0.00    +0.024 A 
ATOM      9  C   UNL     1      -3.253  -6.186   2.826  0.00  0.00    +0.017 A 
ATOM     10  C   UNL     1      -4.355  -6.604   3.563  0.00  0.00    +0.013 A 
ATOM     11  C   UNL     1      -5.552  -5.904   3.479  0.00  0.00    +0.017 A 
ATOM     12  C   UNL     1      -5.647  -4.795   2.663  0.00  0.00    +0.024 A 
BRANCH  10  13
ATOM     13  S   UNL     1      -4.232  -8.019   4.605  0.00  0.00    -0.056 S 
BRANCH  13  14
ATOM     14  C   UNL     1      -2.521  -8.578   4.387  0.00  0.00    +0.404 C 
ATOM     15  F   UNL     1      -2.301  -8.893   3.041  0.00  0.00    -0.197 F 
ATOM     16  F   UNL     1      -1.644  -7.560   4.777  0.00  0.00    -0.197 F 
ENDBRANCH  13  14
ENDBRANCH  10  13
ENDBRANCH   5   7
ENDBRANCH   2   3
BRANCH   2  17
ATOM     17  O   UNL     1      -2.451  -0.459   0.134  0.00  0.00    -0.449 OA
BRANCH  17  18
ATOM     18  C   UNL     1      -2.499   0.884   0.034  0.00  0.00    +0.342 C 
ATOM     19  O   UNL     1      -3.572   1.449  -0.045  0.00  0.00    -0.245 OA
BRANCH  18  20
ATOM     20  C   UNL     1      -1.253   1.667   0.020  0.00  0.00    +0.080 A 
ATOM     21  C   UNL     1      -0.015   1.016  -0.005  0.00  0.00    +0.019 A 
ATOM     22  C   UNL     1       1.148   1.753  -0.023  0.00  0.00    +0.039 A 
ATOM     23  C   UNL     1       1.099   3.141  -0.011  0.00  0.00    +0.125 A 
ATOM     24  C   UNL     1      -0.117   3.798   0.018  0.00  0.00    +0.061 A 
ATOM     25  C   UNL     1      -1.300   3.071   0.037  0.00  0.00    +0.041 A 
ATOM     26  F   UNL     1       2.246   3.854  -0.029  0.00  0.00    -0.205 F 
BRANCH  25  27
ATOM     27  N   UNL     1      -2.523   3.727   0.067  0.00  0.00    -0.357 N 
ATOM     28  H   UNL     1      -2.552   4.693   0.152  0.00  0.00    +0.142 HD
ATOM     29  H   UNL     1      -3.347   3.220   0.003  0.00  0.00    +0.142 HD
ENDBRANCH  25  27
ENDBRANCH  18  20
ENDBRANCH  17  18
ENDBRANCH   2  17
TORSDOF 8
