REMARK  Name = ZINC25880228
REMARK  6 active torsions:
REMARK  status: ('A' for Active; 'I' for Inactive)
REMARK    1  A    between atoms: C_1  and  C_2
REMARK    2  A    between atoms: C_2  and  C_3
REMARK    3  A    between atoms: C_6  and  N_9
REMARK    4  A    between atoms: C_11  and  C_16
REMARK    5  A    between atoms: N_18  and  C_19
REMARK    6  A    between atoms: C_22  and  N_25
REMARK                            x       y       z     vdW  Elec       q    Type
REMARK                         _______ _______ _______ _____ _____    ______ ____
ROOT
ATOM      1  C   UNL     1      -8.615  -2.609  -1.327  0.00  0.00    +0.222 C 
ATOM      2  O   UNL     1      -8.678  -1.613  -2.016  0.00  0.00    -0.275 OA
ATOM      3  N   UNL     1      -9.701  -3.391  -1.171  0.00  0.00    -0.285 N 
ATOM      4  H   UNL     1      -9.672  -4.146  -0.561  0.00  0.00    +0.155 HD
ENDROOT
BRANCH   1   7
ATOM      5  N   UNL     1      -5.431  -1.812   0.268  0.00  0.00    -0.271 N 
ATOM      6  C   UNL     1      -6.218  -1.938  -0.965  0.00  0.00    +0.127 C 
ATOM      7  C   UNL     1      -7.321  -2.973  -0.645  0.00  0.00    +0.102 C 
ATOM      8  C   UNL     1      -7.446  -2.836   0.890  0.00  0.00    +0.110 C 
ATOM      9  C   UNL     1      -6.096  -2.308   1.325  0.00  0.00    +0.221 C 
ATOM     10  O   UNL     1      -5.677  -2.328   2.463  0.00  0.00    -0.275 OA
BRANCH   5  14
ATOM     11  C   UNL     1      -1.617  -0.146   0.460  0.00  0.00    -0.048 A 
ATOM     12  C   UNL     1      -2.267  -0.519   1.623  0.00  0.00    +0.005 A 
ATOM     13  C   UNL     1      -3.531  -1.072   1.562  0.00  0.00    +0.024 A 
ATOM     14  C   UNL     1      -4.151  -1.252   0.332  0.00  0.00    +0.036 A 
ATOM     15  C   UNL     1      -3.496  -0.876  -0.833  0.00  0.00    +0.024 A 
ATOM     16  C   UNL     1      -2.234  -0.320  -0.766  0.00  0.00    +0.005 A 
BRANCH  11  18
ATOM     17  C   UNL     1      -0.351   1.977   0.659  0.00  0.00    +0.009 C 
ATOM     18  C   UNL     1      -0.238   0.456   0.530  0.00  0.00    +0.032 C 
ENDBRANCH  11  18
ENDBRANCH   5  14
ENDBRANCH   1   7
BRANCH   3  19
ATOM     19  C   UNL     1     -10.872  -3.115  -1.888  0.00  0.00    +0.034 A 
ATOM     20  C   UNL     1     -12.112  -3.377  -1.321  0.00  0.00    +0.025 A 
ATOM     21  C   UNL     1     -13.266  -3.104  -2.028  0.00  0.00    +0.025 A 
ATOM     22  C   UNL     1     -13.187  -2.569  -3.307  0.00  0.00    +0.035 A 
ATOM     23  C   UNL     1     -11.947  -2.308  -3.874  0.00  0.00    +0.025 A 
ATOM     24  C   UNL     1     -10.793  -2.574  -3.164  0.00  0.00    +0.025 A 
BRANCH  22  25
ATOM     25  N   UNL     1     -14.358  -2.293  -4.024  0.00  0.00    -0.270 N 
ATOM     26  C   UNL     1     -14.374  -2.426  -5.365  0.00  0.00    +0.301 C 
ATOM     27  O   UNL     1     -13.403  -2.876  -5.943  0.00  0.00    -0.253 OA
ATOM     28  N   UNL     1     -15.465  -2.060  -6.066  0.00  0.00    -0.313 N 
ATOM     29  H   UNL     1     -15.158  -2.006  -3.556  0.00  0.00    +0.156 HD
ATOM     30  H   UNL     1     -16.240  -1.701  -5.605  0.00  0.00    +0.146 HD
ATOM     31  H   UNL     1     -15.477  -2.155  -7.031  0.00  0.00    +0.146 HD
ENDBRANCH  22  25
ENDBRANCH   3  19
TORSDOF 5
