REMARK  Name = ZINC33058373
REMARK  9 active torsions:
REMARK  status: ('A' for Active; 'I' for Inactive)
REMARK    1  A    between atoms: C_1  and  C_2
REMARK    2  A    between atoms: C_5  and  C_8
REMARK    3  A    between atoms: C_8  and  C_10
REMARK    4  A    between atoms: C_11  and  N_33
REMARK    5  A    between atoms: C_12  and  S_23
REMARK    6  A    between atoms: C_13  and  N_15
REMARK    7  A    between atoms: N_15  and  C_16
REMARK    8  A    between atoms: S_23  and  C_26
REMARK    9  A    between atoms: C_29  and  C_32
REMARK                            x       y       z     vdW  Elec       q    Type
REMARK                         _______ _______ _______ _____ _____    ______ ____
ROOT
ATOM      1  C   UNL     1      -1.385   3.037   0.954  0.00  0.00    +0.084 A 
ATOM      2  C   UNL     1      -1.237   1.665   0.711  0.00  0.00    +0.070 A 
ATOM      3  C   UNL     1      -2.316   0.974   0.220  0.00  0.00    +0.143 A 
ATOM      4  C   UNL     1      -3.493   1.655  -0.018  0.00  0.00    +0.098 A 
ATOM      5  S   UNL     1      -3.077   3.323   0.462  0.00  0.00    -0.066 S 
ENDROOT
BRANCH   3   6
ATOM      6  S   UNL     1      -2.201  -0.755  -0.102  0.00  0.00    +0.029 S 
ATOM      7  O   UNL     1      -3.340  -1.100  -0.879  0.00  0.00    -0.164 OA
ATOM      8  O   UNL     1      -0.873  -0.998  -0.546  0.00  0.00    -0.164 OA
BRANCH   6   9
ATOM      9  C   UNL     1      -2.375  -1.585   1.443  0.00  0.00    +0.094 A 
ATOM     10  C   UNL     1      -1.257  -1.867   2.206  0.00  0.00    +0.027 A 
ATOM     11  C   UNL     1      -1.394  -2.515   3.419  0.00  0.00    +0.005 A 
ATOM     12  C   UNL     1      -2.648  -2.888   3.866  0.00  0.00    -0.050 A 
ATOM     13  C   UNL     1      -3.765  -2.611   3.100  0.00  0.00    +0.005 A 
ATOM     14  C   UNL     1      -3.628  -1.960   1.889  0.00  0.00    +0.027 A 
ATOM     15  C   UNL     1      -2.796  -3.598   5.187  0.00  0.00    +0.044 C 
ENDBRANCH   6   9
ENDBRANCH   3   6
BRANCH   2  16
ATOM     16  N   UNL     1      -0.032   1.020   0.966  0.00  0.00    -0.355 N 
ATOM     17  H   UNL     1       0.068  -0.058   0.770  0.00  0.00    +0.142 HD
ATOM     18  H   UNL     1       0.822   1.588   1.364  0.00  0.00    +0.142 HD
ENDBRANCH   2  16
BRANCH   1  19
ATOM     19  C   UNL     1      -0.443   3.952   1.453  0.00  0.00    +0.202 C 
ATOM     20  O   UNL     1       0.633   3.555   1.868  0.00  0.00    -0.286 OA
BRANCH  19  25
ATOM     21  C   UNL     1      -1.662   9.577   1.543  0.00  0.00    +0.044 C 
ATOM     22  C   UNL     1      -1.342   8.105   1.519  0.00  0.00    -0.050 A 
ATOM     23  C   UNL     1      -0.450   7.579   2.437  0.00  0.00    +0.004 A 
ATOM     24  C   UNL     1      -0.154   6.231   2.421  0.00  0.00    +0.012 A 
ATOM     25  C   UNL     1      -0.756   5.399   1.477  0.00  0.00    +0.023 A 
ATOM     26  C   UNL     1      -1.651   5.936   0.551  0.00  0.00    +0.012 A 
ATOM     27  C   UNL     1      -1.943   7.284   0.581  0.00  0.00    +0.004 A 
ENDBRANCH  19  25
ENDBRANCH   1  19
BRANCH   4  28
ATOM     28  N   UNL     1      -4.693   1.168  -0.505  0.00  0.00    -0.305 N 
ATOM     29  H   UNL     1      -4.761   0.130  -0.860  0.00  0.00    +0.153 HD
BRANCH  28  30
ATOM     30  C   UNL     1      -5.819   1.997  -0.545  0.00  0.00    +0.067 A 
ATOM     31  C   UNL     1      -5.926   3.070   0.329  0.00  0.00    +0.026 A 
ATOM     32  C   UNL     1      -7.039   3.887   0.287  0.00  0.00    +0.002 A 
ATOM     33  C   UNL     1      -8.047   3.637  -0.626  0.00  0.00    +0.003 A 
ATOM     34  C   UNL     1      -7.946   2.570  -1.499  0.00  0.00    +0.040 A 
ATOM     35  C   UNL     1      -6.833   1.751  -1.466  0.00  0.00    +0.144 A 
ATOM     36  F   UNL     1      -6.732   0.711  -2.322  0.00  0.00    -0.204 F 
ENDBRANCH  28  30
ENDBRANCH   4  28
TORSDOF 7
