REMARK  Name = ZINC55393790
REMARK  4 active torsions:
REMARK  status: ('A' for Active; 'I' for Inactive)
REMARK    1  A    between atoms: C_1  and  C_2
REMARK    2  A    between atoms: C_2  and  C_3
REMARK    3  A    between atoms: N_15  and  C_18
REMARK    4  A    between atoms: C_18  and  C_19
REMARK                            x       y       z     vdW  Elec       q    Type
REMARK                         _______ _______ _______ _____ _____    ______ ____
ROOT
ATOM      1  C   UNL     1       0.731  -0.503   1.223  0.00  0.00    -0.030 A 
ATOM      2  C   UNL     1       0.052  -0.853   2.347  0.00  0.00    +0.096 A 
ATOM      3  C   UNL     1       0.757  -1.317   3.476  0.00  0.00    +0.337 A 
ATOM      4  O   UNL     1       0.137  -1.626   4.477  0.00  0.00    -0.245 OA
ATOM      5  O   UNL     1       2.095  -1.428   3.476  0.00  0.00    -0.422 OA
ATOM      6  C   UNL     1       2.829  -1.096   2.392  0.00  0.00    +0.147 A 
ATOM      7  C   UNL     1       2.190  -0.631   1.228  0.00  0.00    +0.021 A 
ATOM      8  C   UNL     1       2.948  -0.293   0.102  0.00  0.00    +0.015 A 
ATOM      9  C   UNL     1       4.305  -0.422   0.136  0.00  0.00    +0.047 A 
ATOM     10  C   UNL     1       4.947  -0.886   1.286  0.00  0.00    +0.130 A 
ATOM     11  C   UNL     1       4.213  -1.212   2.413  0.00  0.00    +0.051 A 
ATOM     12  C   UNL     1       4.894  -1.706   3.663  0.00  0.00    +0.130 C 
ATOM     13  N   UNL     1       6.261  -2.137   3.343  0.00  0.00    -0.259 NA
ATOM     14  C   UNL     1       6.949  -1.098   2.559  0.00  0.00    +0.319 C 
ATOM     15  O   UNL     1       6.301  -1.002   1.282  0.00  0.00    -0.476 OA
ENDROOT
BRANCH   1  17
ATOM     16  C   UNL     1      -0.019   1.526   0.010  0.00  0.00    +0.009 C 
ATOM     17  C   UNL     1       0.002  -0.004   0.002  0.00  0.00    +0.033 C 
ENDBRANCH   1  17
BRANCH  13  18
ATOM     18  C   UNL     1       7.012  -2.459   4.564  0.00  0.00    +0.162 C 
BRANCH  18  19
ATOM     19  C   UNL     1       8.312  -3.125   4.193  0.00  0.00    +0.119 A 
ATOM     20  C   UNL     1       9.480  -2.498   3.962  0.00  0.00    +0.046 A 
ATOM     21  C   UNL     1      10.428  -3.498   3.650  0.00  0.00    +0.041 A 
ATOM     22  C   UNL     1       9.783  -4.678   3.708  0.00  0.00    +0.195 A 
ATOM     23  O   UNL     1       8.504  -4.446   4.043  0.00  0.00    -0.467 OA
ENDBRANCH  18  19
ENDBRANCH  13  18
TORSDOF 3
