REMARK  Name = ZINC30955820
REMARK  8 active torsions:
REMARK  status: ('A' for Active; 'I' for Inactive)
REMARK    1  A    between atoms: C_1  and  C_2
REMARK    2  A    between atoms: C_2  and  C_4
REMARK    3  A    between atoms: C_2  and  N_16
REMARK    4  A    between atoms: C_7  and  N_10
REMARK    5  A    between atoms: C_17  and  C_19
REMARK    6  A    between atoms: N_22  and  C_25
REMARK    7  A    between atoms: C_25  and  C_26
REMARK    8  A    between atoms: C_28  and  C_31
REMARK                            x       y       z     vdW  Elec       q    Type
REMARK                         _______ _______ _______ _____ _____    ______ ____
ROOT
ATOM      1  C   UNL     1       5.443   1.732   2.320  0.00  0.00    +0.071 C 
ATOM      2  C   UNL     1       6.137   2.861   1.553  0.00  0.00    -0.006 C 
ATOM      3  C   UNL     1       7.173   3.526   2.461  0.00  0.00    -0.077 C 
ATOM      4  N   UNL     1       8.159   2.528   2.894  0.00  0.00    +0.386 N 
ATOM      5  C   UNL     1       7.524   1.458   3.674  0.00  0.00    -0.077 C 
ATOM      6  C   UNL     1       6.497   0.731   2.802  0.00  0.00    -0.006 C 
ATOM      7  H   UNL     1       8.594   2.072   1.992  0.00  0.00    -0.081 HD
ENDROOT
BRANCH   1   9
ATOM      8  N   UNL     1       3.442   1.723   0.866  0.00  0.00    -0.309 N 
ATOM      9  C   UNL     1       4.463   1.034   1.413  0.00  0.00    +0.216 C 
ATOM     10  O   UNL     1       4.594  -0.148   1.173  0.00  0.00    -0.276 OA
ATOM     11  H   UNL     1       3.324   2.795   1.083  0.00  0.00    +0.149 HD
BRANCH   8  13
ATOM     12  C   UNL     1       3.043   1.021  -1.442  0.00  0.00    +0.033 C 
ATOM     13  C   UNL     1       2.490   1.044  -0.016  0.00  0.00    +0.100 C 
BRANCH  13  14
ATOM     14  C   UNL     1       1.176   1.783   0.000  0.00  0.00    -0.027 A 
ATOM     15  C   UNL     1      -0.013   1.076   0.008  0.00  0.00    +0.007 A 
ATOM     16  C   UNL     1      -1.218   1.749   0.017  0.00  0.00    +0.023 A 
ATOM     17  C   UNL     1      -1.236   3.138   0.031  0.00  0.00    +0.030 A 
ATOM     18  C   UNL     1      -0.040   3.845   0.024  0.00  0.00    +0.023 A 
ATOM     19  C   UNL     1       1.162   3.166   0.008  0.00  0.00    +0.007 A 
BRANCH  17  20
ATOM     20  N   UNL     1      -2.454   3.822   0.046  0.00  0.00    -0.330 N 
ATOM     21  C   UNL     1      -2.524   4.746   1.186  0.00  0.00    +0.105 C 
ATOM     22  C   UNL     1      -3.804   5.580   1.090  0.00  0.00    +0.019 C 
ATOM     23  C   UNL     1      -5.017   4.646   1.089  0.00  0.00    +0.003 C 
ATOM     24  C   UNL     1      -4.895   3.664  -0.079  0.00  0.00    +0.019 C 
ATOM     25  C   UNL     1      -3.584   2.885   0.051  0.00  0.00    +0.105 C 
ENDBRANCH  17  20
ENDBRANCH  13  14
ENDBRANCH   8  13
ENDBRANCH   1   9
BRANCH   4  26
ATOM     26  C   UNL     1       9.247   3.157   3.654  0.00  0.00    +0.022 C 
BRANCH  26  27
ATOM     27  C   UNL     1      10.030   4.072   2.748  0.00  0.00    +0.211 A 
ATOM     28  N   UNL     1       9.795   5.342   2.533  0.00  0.00    -0.193 NA
ATOM     29  C   UNL     1      10.744   5.744   1.657  0.00  0.00    +0.202 A 
ATOM     30  N   UNL     1      11.492   4.704   1.394  0.00  0.00    -0.056 NA
ATOM     31  O   UNL     1      11.098   3.740   2.015  0.00  0.00    -0.340 OA
BRANCH  29  32
ATOM     32  C   UNL     1      10.906   7.109   1.099  0.00  0.00    +0.022 A 
ATOM     33  C   UNL     1      10.025   8.124   1.467  0.00  0.00    +0.012 A 
ATOM     34  C   UNL     1      10.183   9.394   0.948  0.00  0.00    +0.001 A 
ATOM     35  C   UNL     1      11.207   9.657   0.057  0.00  0.00    +0.000 A 
ATOM     36  C   UNL     1      12.081   8.652  -0.316  0.00  0.00    +0.001 A 
ATOM     37  C   UNL     1      11.936   7.380   0.201  0.00  0.00    +0.012 A 
ENDBRANCH  29  32
ENDBRANCH  26  27
ENDBRANCH   4  26
TORSDOF 7
