REMARK  Name = ZINC20912823
REMARK  5 active torsions:
REMARK  status: ('A' for Active; 'I' for Inactive)
REMARK    1  A    between atoms: C_10  and  C_11
REMARK    2  A    between atoms: N_12  and  N_13
REMARK    3  A    between atoms: C_17  and  S_20
REMARK    4  A    between atoms: N_18  and  N_19
REMARK    5  A    between atoms: S_20  and  C_21
REMARK                            x       y       z     vdW  Elec       q    Type
REMARK                         _______ _______ _______ _____ _____    ______ ____
ROOT
ATOM      1  N   UNL     1       3.483   0.672  -0.035  0.00  0.00    -0.204 N 
ATOM      2  C   UNL     1       2.096   0.653  -0.030  0.00  0.00    +0.254 A 
ATOM      3  N   UNL     1       1.340  -0.419  -0.037  0.00  0.00    -0.109 NA
ATOM      4  N   UNL     1       0.002  -0.004  -0.028  0.00  0.00    -0.119 NA
ATOM      5  C   UNL     1      -0.016   1.308  -0.017  0.00  0.00    +0.210 A 
ATOM      6  N   UNL     1       1.277   1.748  -0.018  0.00  0.00    -0.211 N 
ATOM      7  H   UNL     1       4.020   1.632  -0.029  0.00  0.00    +0.177 HD
ENDROOT
BRANCH   6   8
ATOM      8  N   UNL     1       1.681   3.052  -0.007  0.00  0.00    -0.294 N 
ATOM      9  H   UNL     1       0.934   3.860   0.003  0.00  0.00    +0.163 HD
ATOM     10  H   UNL     1       2.754   3.296  -0.009  0.00  0.00    +0.163 HD
ENDBRANCH   6   8
BRANCH   1  12
ATOM     11  C   UNL     1       5.500  -0.514  -0.051  0.00  0.00    +0.139 C 
ATOM     12  N   UNL     1       4.200  -0.532  -0.047  0.00  0.00    -0.187 NA
BRANCH  11  22
ATOM     13  C   UNL     1       4.310  -5.523   0.249  0.00  0.00    +0.001 A 
ATOM     14  C   UNL     1       3.562  -4.348   0.265  0.00  0.00    +0.001 A 
ATOM     15  C   UNL     1       4.168  -3.131   0.166  0.00  0.00    +0.009 A 
ATOM     16  C   UNL     1       5.561  -3.059   0.052  0.00  0.00    -0.009 A 
ATOM     17  C   UNL     1       6.324  -4.252   0.029  0.00  0.00    -0.017 A 
ATOM     18  C   UNL     1       5.666  -5.490   0.134  0.00  0.00    +0.008 A 
ATOM     19  C   UNL     1       7.722  -4.176  -0.091  0.00  0.00    +0.008 A 
ATOM     20  C   UNL     1       8.346  -2.970  -0.192  0.00  0.00    +0.001 A 
ATOM     21  C   UNL     1       7.638  -1.776  -0.181  0.00  0.00    +0.010 A 
ATOM     22  C   UNL     1       6.253  -1.777  -0.064  0.00  0.00    +0.002 A 
ENDBRANCH  11  22
ENDBRANCH   1  12
BRANCH   5  23
ATOM     23  S   UNL     1      -1.455   2.324  -0.009  0.00  0.00    -0.081 S 
BRANCH  23  24
ATOM     24  C   UNL     1      -2.740   1.049  -0.021  0.00  0.00    +0.054 C 
ATOM     25  C   UNL     1      -2.717   0.288  -1.362  0.00  0.00    +0.014 C 
ATOM     26  C   UNL     1      -4.211   0.015  -1.669  0.00  0.00    +0.001 C 
ATOM     27  C   UNL     1      -4.903   1.313  -1.185  0.00  0.00    +0.001 C 
ATOM     28  C   UNL     1      -4.130   1.700   0.093  0.00  0.00    +0.014 C 
ENDBRANCH  23  24
ENDBRANCH   5  23
TORSDOF 5
