REMARK  Name = ZINC63751680
REMARK  9 active torsions:
REMARK  status: ('A' for Active; 'I' for Inactive)
REMARK    1  A    between atoms: C_1  and  C_2
REMARK    2  A    between atoms: C_7  and  C_8
REMARK    3  A    between atoms: C_8  and  C_9
REMARK    4  A    between atoms: N_11  and  C_12
REMARK    5  A    between atoms: C_15  and  S_18
REMARK    6  A    between atoms: S_18  and  C_19
REMARK    7  A    between atoms: C_19  and  C_20
REMARK    8  A    between atoms: C_27  and  C_33
REMARK    9  A    between atoms: C_28  and  C_32
REMARK                            x       y       z     vdW  Elec       q    Type
REMARK                         _______ _______ _______ _____ _____    ______ ____
ROOT
ATOM      1  C   UNL     1      -3.109   1.229   4.108  0.00  0.00    +0.033 A 
ATOM      2  C   UNL     1      -4.150   0.782   3.305  0.00  0.00    +0.024 A 
ATOM      3  C   UNL     1      -5.459   1.000   3.687  0.00  0.00    +0.016 A 
ATOM      4  C   UNL     1      -5.734   1.665   4.875  0.00  0.00    +0.008 A 
ATOM      5  C   UNL     1      -4.692   2.111   5.679  0.00  0.00    +0.016 A 
ATOM      6  C   UNL     1      -3.384   1.889   5.298  0.00  0.00    +0.024 A 
ENDROOT
BRANCH   1   9
ATOM      7  C   UNL     1      -0.841   0.751   4.651  0.00  0.00    +0.222 C 
ATOM      8  O   UNL     1      -1.127   0.791   5.829  0.00  0.00    -0.275 OA
ATOM      9  N   UNL     1      -1.781   1.008   3.720  0.00  0.00    -0.285 N 
ATOM     10  H   UNL     1      -1.538   1.039   2.782  0.00  0.00    +0.155 HD
BRANCH   7  11
ATOM     11  C   UNL     1       0.566   0.414   4.229  0.00  0.00    +0.131 C 
BRANCH  11  18
ATOM     12  C   UNL     1       0.608  -2.197   5.465  0.00  0.00    +0.044 C 
ATOM     13  C   UNL     1       1.434  -1.077   6.042  0.00  0.00    -0.047 A 
ATOM     14  C   UNL     1       2.216  -1.300   7.160  0.00  0.00    +0.003 A 
ATOM     15  C   UNL     1       2.973  -0.272   7.690  0.00  0.00    +0.000 A 
ATOM     16  C   UNL     1       2.949   0.979   7.102  0.00  0.00    +0.000 A 
ATOM     17  C   UNL     1       2.168   1.202   5.983  0.00  0.00    +0.004 A 
ATOM     18  C   UNL     1       1.414   0.172   5.451  0.00  0.00    -0.036 A 
ENDBRANCH  11  18
ENDBRANCH   7  11
ENDBRANCH   1   9
BRANCH   4  19
ATOM     19  S   UNL     1      -7.404   1.944   5.363  0.00  0.00    -0.123 S 
BRANCH  19  20
ATOM     20  C   UNL     1      -7.259   2.826   6.941  0.00  0.00    +0.108 C 
BRANCH  20  21
ATOM     21  C   UNL     1      -8.657   3.134   7.483  0.00  0.00    +0.176 C 
ATOM     22  C   UNL     1      -8.492   3.776   8.842  0.00  0.00    +0.240 C 
ATOM     23  O   UNL     1      -7.900   3.195   9.730  0.00  0.00    -0.273 OA
ATOM     24  N   UNL     1      -9.007   4.989   9.054  0.00  0.00    -0.282 N 
ATOM     25  C   UNL     1      -9.655   5.642   8.105  0.00  0.00    +0.057 A 
ATOM     26  C   UNL     1     -10.187   6.926   8.363  0.00  0.00    +0.029 A 
ATOM     27  C   UNL     1     -10.851   7.599   7.395  0.00  0.00    -0.046 A 
ATOM     28  C   UNL     1     -11.050   7.078   6.106  0.00  0.00    -0.045 A 
ATOM     29  C   UNL     1     -10.583   5.860   5.753  0.00  0.00    +0.030 A 
ATOM     30  C   UNL     1      -9.849   5.065   6.751  0.00  0.00    +0.058 A 
ATOM     31  N   UNL     1      -9.383   3.888   6.450  0.00  0.00    -0.372 N 
ATOM     32  C   UNL     1     -11.803   7.898   5.090  0.00  0.00    +0.044 C 
ATOM     33  C   UNL     1     -11.402   8.966   7.713  0.00  0.00    +0.044 C 
ATOM     34  H   UNL     1      -9.512   3.516   5.563  0.00  0.00    +0.160 HD
ATOM     35  H   UNL     1      -8.902   5.401   9.926  0.00  0.00    +0.155 HD
ENDBRANCH  20  21
ENDBRANCH  19  20
ENDBRANCH   4  19
TORSDOF 6
