REMARK  Name = ZINC09722808
REMARK  7 active torsions:
REMARK  status: ('A' for Active; 'I' for Inactive)
REMARK    1  A    between atoms: C_1  and  C_2
REMARK    2  A    between atoms: C_3  and  C_31
REMARK    3  A    between atoms: C_11  and  C_13
REMARK    4  A    between atoms: C_13  and  S_14
REMARK    5  A    between atoms: S_14  and  C_15
REMARK    6  A    between atoms: C_15  and  C_17
REMARK    7  A    between atoms: C_15  and  C_18
REMARK                            x       y       z     vdW  Elec       q    Type
REMARK                         _______ _______ _______ _____ _____    ______ ____
ROOT
ATOM      1  C   UNL     1       4.674  -2.590  -0.057  0.00  0.00    +0.130 C 
ATOM      2  C   UNL     1       4.828  -3.081  -1.498  0.00  0.00    +0.029 C 
ENDROOT
BRANCH   1   3
ATOM      3  C   UNL     1       3.867  -1.318  -0.042  0.00  0.00    +0.231 C 
ATOM      4  O   UNL     1       4.429  -0.243  -0.042  0.00  0.00    -0.274 OA
ATOM      5  N   UNL     1       2.520  -1.375  -0.029  0.00  0.00    -0.264 N 
ATOM      6  C   UNL     1       1.778  -0.204  -0.016  0.00  0.00    +0.165 A 
ATOM      7  N   UNL     1       2.200   1.038  -0.013  0.00  0.00    -0.225 NA
ATOM      8  C   UNL     1       1.355   2.092   0.000  0.00  0.00    +0.080 A 
ATOM      9  C   UNL     1       1.677   3.469   0.005  0.00  0.00    +0.032 A 
ATOM     10  C   UNL     1       0.690   4.420   0.021  0.00  0.00    +0.040 A 
ATOM     11  C   UNL     1      -0.655   4.069   0.032  0.00  0.00    +0.125 A 
ATOM     12  C   UNL     1      -1.006   2.730   0.031  0.00  0.00    +0.055 A 
ATOM     13  C   UNL     1      -0.022   1.772   0.012  0.00  0.00    +0.043 A 
ATOM     14  S   UNL     1       0.002  -0.004   0.002  0.00  0.00    -0.052 S 
ATOM     15  F   UNL     1      -1.609   5.025   0.048  0.00  0.00    -0.205 F 
ATOM     16  H   UNL     1       2.071  -2.234  -0.030  0.00  0.00    +0.157 HD
ENDBRANCH   1   3
BRANCH   1  17
ATOM     17  S   UNL     1       6.314  -2.274   0.652  0.00  0.00    -0.141 S 
BRANCH  17  18
ATOM     18  C   UNL     1       7.093  -3.912   0.703  0.00  0.00    +0.144 C 
BRANCH  18  29
ATOM     19  C   UNL     1      13.326  -4.319   3.140  0.00  0.00    +0.045 C 
ATOM     20  C   UNL     1      12.302  -3.239   2.902  0.00  0.00    -0.026 A 
ATOM     21  C   UNL     1      12.575  -1.963   3.216  0.00  0.00    -0.008 A 
ATOM     22  S   UNL     1      11.086  -1.097   2.757  0.00  0.00    -0.073 S 
ATOM     23  C   UNL     1      10.141  -2.473   2.157  0.00  0.00    +0.116 A 
ATOM     24  C   UNL     1      11.009  -3.566   2.330  0.00  0.00    +0.075 A 
ATOM     25  C   UNL     1      10.492  -4.838   1.919  0.00  0.00    +0.260 A 
ATOM     26  O   UNL     1      11.169  -5.846   2.029  0.00  0.00    -0.267 OA
ATOM     27  N   UNL     1       9.246  -4.903   1.415  0.00  0.00    -0.310 N 
ATOM     28  H   UNL     1       8.889  -5.762   1.138  0.00  0.00    +0.170 HD
ATOM     29  C   UNL     1       8.480  -3.790   1.279  0.00  0.00    +0.121 A 
ATOM     30  N   UNL     1       8.923  -2.617   1.645  0.00  0.00    -0.226 NA
ATOM     31  C   UNL     1      13.838  -1.398   3.814  0.00  0.00    +0.052 C 
ENDBRANCH  18  29
ENDBRANCH  17  18
ENDBRANCH   1  17
TORSDOF 4
