REMARK  Name = ZINC45118604
REMARK  9 active torsions:
REMARK  status: ('A' for Active; 'I' for Inactive)
REMARK    1  A    between atoms: C_1  and  C_2
REMARK    2  A    between atoms: C_2  and  C_3
REMARK    3  A    between atoms: C_2  and  N_4
REMARK    4  A    between atoms: C_7  and  C_10
REMARK    5  A    between atoms: C_10  and  N_11
REMARK    6  A    between atoms: N_11  and  C_12
REMARK    7  A    between atoms: C_15  and  S_19
REMARK    8  A    between atoms: C_17  and  N_18
REMARK    9  A    between atoms: S_19  and  N_22
REMARK                            x       y       z     vdW  Elec       q    Type
REMARK                         _______ _______ _______ _____ _____    ______ ____
ROOT
ATOM      1  C   UNL     1      -5.632  -2.280  -3.909  0.00  0.00    +0.048 A 
ATOM      2  C   UNL     1      -6.482  -1.187  -3.826  0.00  0.00    +0.026 A 
ATOM      3  C   UNL     1      -7.720  -1.226  -4.441  0.00  0.00    +0.030 A 
ATOM      4  C   UNL     1      -8.114  -2.353  -5.138  0.00  0.00    +0.107 A 
ATOM      5  C   UNL     1      -7.273  -3.447  -5.226  0.00  0.00    +0.053 A 
ATOM      6  C   UNL     1      -6.028  -3.414  -4.617  0.00  0.00    +0.048 A 
ENDROOT
BRANCH   6   7
ATOM      7  N   UNL     1      -5.172  -4.519  -4.708  0.00  0.00    -0.356 N 
ATOM      8  H   UNL     1      -4.303  -4.496  -4.279  0.00  0.00    +0.142 HD
ATOM      9  H   UNL     1      -5.449  -5.307  -5.202  0.00  0.00    +0.142 HD
ENDBRANCH   6   7
BRANCH   4  10
ATOM     10  S   UNL     1      -9.694  -2.394  -5.918  0.00  0.00    +0.056 S 
ATOM     11  O   UNL     1     -10.047  -3.765  -6.046  0.00  0.00    -0.153 OA
ATOM     12  O   UNL     1     -10.511  -1.458  -5.230  0.00  0.00    -0.153 OA
BRANCH  10  13
ATOM     13  N   UNL     1      -9.497  -1.811  -7.455  0.00  0.00    -0.204 NA
ATOM     14  H   UNL     1      -8.620  -1.528  -7.758  0.00  0.00    +0.144 HD
ATOM     15  H   UNL     1     -10.258  -1.753  -8.053  0.00  0.00    +0.144 HD
ENDBRANCH  10  13
ENDBRANCH   4  10
BRANCH   1  16
ATOM     16  N   UNL     1      -4.378  -2.242  -3.287  0.00  0.00    -0.342 N 
ATOM     17  H   UNL     1      -3.783  -3.006  -3.349  0.00  0.00    +0.146 HD
BRANCH  16  18
ATOM     18  C   UNL     1      -3.964  -1.049  -2.544  0.00  0.00    +0.103 C 
BRANCH  18  22
ATOM     19  N   UNL     1      -1.376  -0.512   0.012  0.00  0.00    +0.381 N 
ATOM     20  C   UNL     1      -1.361  -1.991  -0.017  0.00  0.00    -0.078 C 
ATOM     21  C   UNL     1      -2.580  -2.381  -0.889  0.00  0.00    -0.015 C 
ATOM     22  C   UNL     1      -2.563  -1.267  -1.969  0.00  0.00    -0.012 C 
ATOM     23  C   UNL     1      -2.093  -0.026  -1.181  0.00  0.00    -0.074 C 
ATOM     24  H   UNL     1      -1.849  -0.196   0.846  0.00  0.00    -0.081 HD
BRANCH  19  26
ATOM     25  C   UNL     1      -0.019   1.526   0.010  0.00  0.00    -0.014 C 
ATOM     26  C   UNL     1       0.002  -0.004   0.002  0.00  0.00    -0.075 C 
ATOM     27  C   UNL     1       0.742  -0.511   1.242  0.00  0.00    -0.014 C 
ENDBRANCH  19  26
ENDBRANCH  18  22
ENDBRANCH  16  18
ENDBRANCH   1  16
TORSDOF 7
