REMARK  Name = ZINC39676512
REMARK  10 active torsions:
REMARK  status: ('A' for Active; 'I' for Inactive)
REMARK    1  A    between atoms: C_1  and  C_2
REMARK    2  A    between atoms: C_2  and  C_3
REMARK    3  A    between atoms: C_2  and  C_4
REMARK    4  A    between atoms: C_4  and  C_6
REMARK    5  A    between atoms: C_4  and  O_34
REMARK    6  A    between atoms: C_10  and  C_19
REMARK    7  A    between atoms: N_21  and  C_22
REMARK    8  A    between atoms: C_22  and  C_23
REMARK    9  A    between atoms: C_23  and  C_24
REMARK   10  A    between atoms: O_34  and  C_35
REMARK                            x       y       z     vdW  Elec       q    Type
REMARK                         _______ _______ _______ _____ _____    ______ ____
ROOT
ATOM      1  C   UNL     1      -1.815  -0.384  -1.505  0.00  0.00    +0.257 C 
ATOM      2  O   UNL     1      -2.194  -1.260  -2.253  0.00  0.00    -0.272 OA
ATOM      3  N   UNL     1      -1.788   0.897  -1.926  0.00  0.00    -0.297 N 
ATOM      4  C   UNL     1      -1.256   2.078  -1.207  0.00  0.00    +0.121 C 
ATOM      5  C   UNL     1      -0.558   2.918  -2.300  0.00  0.00    +0.100 C 
ATOM      6  C   UNL     1      -1.240   2.497  -3.613  0.00  0.00    -0.004 C 
ATOM      7  C   UNL     1      -2.280   1.440  -3.215  0.00  0.00    +0.115 C 
ATOM      8  C   UNL     1      -0.217   1.889  -4.568  0.00  0.00    -0.010 C 
ATOM      9  C   UNL     1      -0.907   1.530  -5.887  0.00  0.00    -0.082 C 
ATOM     10  N   UNL     1      -1.498   2.738  -6.476  0.00  0.00    +0.379 N 
ATOM     11  C   UNL     1      -2.546   3.264  -5.593  0.00  0.00    -0.082 C 
ATOM     12  C   UNL     1      -1.925   3.696  -4.262  0.00  0.00    -0.010 C 
ATOM     13  H   UNL     1      -0.780   3.437  -6.598  0.00  0.00    -0.086 HD
ATOM     14  H   UNL     1      -1.898   2.511  -7.374  0.00  0.00    -0.086 HD
ENDROOT
BRANCH   5  15
ATOM     15  C   UNL     1       0.914   2.602  -2.346  0.00  0.00    +0.218 C 
ATOM     16  O   UNL     1       1.302   1.480  -2.098  0.00  0.00    -0.275 OA
ATOM     17  N   UNL     1       1.801   3.567  -2.662  0.00  0.00    -0.315 N 
ATOM     18  H   UNL     1       1.491   4.464  -2.861  0.00  0.00    +0.149 HD
BRANCH  17  19
ATOM     19  C   UNL     1       3.233   3.260  -2.706  0.00  0.00    +0.109 C 
BRANCH  19  20
ATOM     20  C   UNL     1       4.013   4.519  -3.087  0.00  0.00    +0.056 C 
BRANCH  20  21
ATOM     21  C   UNL     1       5.486   4.203  -3.133  0.00  0.00    -0.021 A 
ATOM     22  C   UNL     1       6.222   3.639  -4.267  0.00  0.00    +0.004 A 
ATOM     23  C   UNL     1       5.861   3.242  -5.556  0.00  0.00    +0.030 A 
ATOM     24  C   UNL     1       6.819   2.737  -6.407  0.00  0.00    +0.042 A 
ATOM     25  C   UNL     1       8.139   2.621  -5.988  0.00  0.00    +0.022 A 
ATOM     26  C   UNL     1       8.510   3.009  -4.719  0.00  0.00    +0.027 A 
ATOM     27  C   UNL     1       7.558   3.522  -3.844  0.00  0.00    +0.047 A 
ATOM     28  N   UNL     1       7.616   3.984  -2.548  0.00  0.00    -0.360 N 
ATOM     29  C   UNL     1       6.374   4.390  -2.143  0.00  0.00    +0.087 A 
ATOM     30 CL   UNL     1       6.376   2.242  -8.010  0.00  0.00    -0.084 Cl
ATOM     31  H   UNL     1       8.418   4.019  -2.004  0.00  0.00    +0.165 HD
ENDBRANCH  20  21
ENDBRANCH  19  20
ENDBRANCH  17  19
ENDBRANCH   5  15
BRANCH   1  32
ATOM     32  C   UNL     1      -1.374  -0.726  -0.106  0.00  0.00    +0.261 C 
BRANCH  32  34
ATOM     33  C   UNL     1      -3.677  -1.427   0.561  0.00  0.00    +0.011 C 
ATOM     34  C   UNL     1      -2.525  -0.469   0.869  0.00  0.00    +0.033 C 
ATOM     35  C   UNL     1      -2.041  -0.698   2.302  0.00  0.00    +0.011 C 
ENDBRANCH  32  34
BRANCH  32  36
ATOM     36  O   UNL     1      -0.255   0.087   0.254  0.00  0.00    -0.479 OA
BRANCH  36  37
ATOM     37  C   UNL     1       0.725  -0.501   0.988  0.00  0.00    +0.122 A 
ATOM     38  C   UNL     1       0.634  -1.846   1.318  0.00  0.00    +0.045 A 
ATOM     39  C   UNL     1       1.632  -2.442   2.064  0.00  0.00    +0.004 A 
ATOM     40  C   UNL     1       2.722  -1.700   2.481  0.00  0.00    +0.000 A 
ATOM     41  C   UNL     1       2.815  -0.360   2.154  0.00  0.00    +0.004 A 
ATOM     42  C   UNL     1       1.822   0.239   1.403  0.00  0.00    +0.045 A 
ENDBRANCH  36  37
ENDBRANCH  32  36
ENDBRANCH   1  32
TORSDOF 8
