REMARK  Name = ZINC39672079
REMARK  8 active torsions:
REMARK  status: ('A' for Active; 'I' for Inactive)
REMARK    1  A    between atoms: C_1  and  O_2
REMARK    2  A    between atoms: O_2  and  C_3
REMARK    3  A    between atoms: C_6  and  C_9
REMARK    4  A    between atoms: C_9  and  C_10
REMARK    5  A    between atoms: C_10  and  C_11
REMARK    6  A    between atoms: C_15  and  C_24
REMARK    7  A    between atoms: N_26  and  C_27
REMARK    8  A    between atoms: C_27  and  C_28
REMARK                            x       y       z     vdW  Elec       q    Type
REMARK                         _______ _______ _______ _____ _____    ______ ____
ROOT
ATOM      1  C   UNL     1       4.675  -3.172  -5.013  0.00  0.00    +0.216 C 
ATOM      2  O   UNL     1       3.960  -3.376  -5.971  0.00  0.00    -0.276 OA
ATOM      3  N   UNL     1       5.970  -3.543  -5.047  0.00  0.00    -0.300 N 
ATOM      4  C   UNL     1       6.988  -3.385  -3.982  0.00  0.00    +0.121 C 
ATOM      5  C   UNL     1       7.813  -4.691  -4.034  0.00  0.00    +0.100 C 
ATOM      6  C   UNL     1       7.620  -5.220  -5.465  0.00  0.00    -0.004 C 
ATOM      7  C   UNL     1       6.696  -4.206  -6.156  0.00  0.00    +0.115 C 
ATOM      8  C   UNL     1       8.962  -5.291  -6.188  0.00  0.00    -0.010 C 
ATOM      9  C   UNL     1       8.752  -5.875  -7.588  0.00  0.00    -0.082 C 
ATOM     10  N   UNL     1       8.160  -7.214  -7.479  0.00  0.00    +0.379 N 
ATOM     11  C   UNL     1       6.829  -7.125  -6.866  0.00  0.00    -0.082 C 
ATOM     12  C   UNL     1       6.958  -6.594  -5.436  0.00  0.00    -0.010 C 
ATOM     13  H   UNL     1       8.079  -7.620  -8.399  0.00  0.00    -0.086 HD
ATOM     14  H   UNL     1       8.754  -7.797  -6.907  0.00  0.00    -0.086 HD
ENDROOT
BRANCH   5  15
ATOM     15  C   UNL     1       7.288  -5.684  -3.030  0.00  0.00    +0.219 C 
ATOM     16  O   UNL     1       6.113  -5.679  -2.730  0.00  0.00    -0.275 OA
ATOM     17  N   UNL     1       8.125  -6.576  -2.464  0.00  0.00    -0.309 N 
ATOM     18  H   UNL     1       9.065  -6.580  -2.704  0.00  0.00    +0.149 HD
BRANCH  17  19
ATOM     19  C   UNL     1       7.614  -7.542  -1.488  0.00  0.00    +0.161 C 
BRANCH  19  20
ATOM     20  C   UNL     1       8.743  -8.419  -1.011  0.00  0.00    +0.077 A 
ATOM     21  C   UNL     1       9.477  -8.221   0.106  0.00  0.00    +0.117 A 
ATOM     22  N   UNL     1      10.392  -9.236   0.173  0.00  0.00    -0.306 N 
ATOM     23  C   UNL     1      11.373  -9.537   1.073  0.00  0.00    +0.092 A 
ATOM     24  C   UNL     1      12.154 -10.624   0.901  0.00  0.00    +0.018 A 
ATOM     25  C   UNL     1      11.966 -11.463  -0.211  0.00  0.00    +0.005 A 
ATOM     26  C   UNL     1      10.992 -11.175  -1.115  0.00  0.00    +0.047 A 
ATOM     27  C   UNL     1      10.185 -10.036  -0.921  0.00  0.00    +0.138 A 
ATOM     28  N   UNL     1       9.180  -9.524  -1.619  0.00  0.00    -0.231 NA
ENDBRANCH  19  20
ENDBRANCH  17  19
ENDBRANCH   5  15
BRANCH   1  29
ATOM     29  C   UNL     1       4.114  -2.504  -3.783  0.00  0.00    +0.100 C 
BRANCH  29  30
ATOM     30  C   UNL     1       2.634  -2.189  -4.004  0.00  0.00    +0.044 C 
BRANCH  30  34
ATOM     31  C   UNL     1       1.045  -0.295  -0.518  0.00  0.00    +0.120 A 
ATOM     32  C   UNL     1       1.598   0.470  -1.534  0.00  0.00    +0.046 A 
ATOM     33  C   UNL     1       2.111  -0.144  -2.659  0.00  0.00    +0.007 A 
ATOM     34  C   UNL     1       2.073  -1.522  -2.775  0.00  0.00    -0.047 A 
ATOM     35  C   UNL     1       1.522  -2.287  -1.764  0.00  0.00    +0.007 A 
ATOM     36  C   UNL     1       1.013  -1.678  -0.633  0.00  0.00    +0.046 A 
BRANCH  31  38
ATOM     37  C   UNL     1       0.606   1.734   0.641  0.00  0.00    +0.277 C 
ATOM     38  O   UNL     1       0.540   0.307   0.590  0.00  0.00    -0.495 OA
ENDBRANCH  31  38
ENDBRANCH  30  34
ENDBRANCH  29  30
ENDBRANCH   1  29
TORSDOF 7
