REMARK  Name = ZINC08632473
REMARK  9 active torsions:
REMARK  status: ('A' for Active; 'I' for Inactive)
REMARK    1  A    between atoms: C_1  and  C_2
REMARK    2  A    between atoms: N_13  and  C_25
REMARK    3  A    between atoms: C_14  and  S_16
REMARK    4  A    between atoms: S_16  and  C_17
REMARK    5  A    between atoms: C_17  and  C_18
REMARK    6  A    between atoms: N_20  and  C_21
REMARK    7  A    between atoms: C_21  and  C_22
REMARK    8  A    between atoms: C_21  and  C_23
REMARK    9  A    between atoms: C_21  and  C_24
REMARK                            x       y       z     vdW  Elec       q    Type
REMARK                         _______ _______ _______ _____ _____    ______ ____
ROOT
ATOM      1  C   UNL     1      -9.039   7.803   3.175  0.00  0.00    +0.008 C 
ATOM      2  C   UNL     1      -8.469   6.678   2.308  0.00  0.00    -0.009 C 
ATOM      3  C   UNL     1      -8.365   5.394   3.135  0.00  0.00    +0.008 C 
ATOM      4  C   UNL     1      -8.038   4.212   2.221  0.00  0.00    +0.037 C 
ATOM      5  C   UNL     1      -6.807   4.561   1.388  0.00  0.00    -0.023 A 
ATOM      6  C   UNL     1      -6.415   5.842   1.240  0.00  0.00    -0.004 A 
ATOM      7  S   UNL     1      -4.971   5.767   0.216  0.00  0.00    -0.073 S 
ATOM      8  C   UNL     1      -4.896   4.008  -0.011  0.00  0.00    +0.117 A 
ATOM      9  C   UNL     1      -6.000   3.538   0.720  0.00  0.00    +0.076 A 
ATOM     10  C   UNL     1      -6.193   2.120   0.716  0.00  0.00    +0.268 A 
ATOM     11  O   UNL     1      -7.126   1.622   1.322  0.00  0.00    -0.267 OA
ATOM     12  N   UNL     1      -5.334   1.345   0.029  0.00  0.00    -0.255 N 
ATOM     13  C   UNL     1      -4.280   1.886  -0.652  0.00  0.00    +0.178 A 
ATOM     14  N   UNL     1      -4.080   3.189  -0.664  0.00  0.00    -0.215 NA
ATOM     15  C   UNL     1      -7.065   7.063   1.817  0.00  0.00    +0.046 C 
ENDROOT
BRANCH  12  16
ATOM     16  C   UNL     1      -5.521  -0.044   0.016  0.00  0.00    +0.052 A 
ATOM     17  C   UNL     1      -6.303  -0.632  -0.969  0.00  0.00    +0.026 A 
ATOM     18  C   UNL     1      -6.480  -2.001  -0.982  0.00  0.00    +0.002 A 
ATOM     19  C   UNL     1      -5.889  -2.786  -0.009  0.00  0.00    +0.000 A 
ATOM     20  C   UNL     1      -5.114  -2.203   0.977  0.00  0.00    +0.002 A 
ATOM     21  C   UNL     1      -4.928  -0.834   0.992  0.00  0.00    +0.026 A 
ENDBRANCH  12  16
BRANCH  13  22
ATOM     22  S   UNL     1      -3.177   0.829  -1.531  0.00  0.00    -0.078 S 
BRANCH  22  23
ATOM     23  C   UNL     1      -2.038   2.060  -2.211  0.00  0.00    +0.173 C 
BRANCH  23  24
ATOM     24  C   UNL     1      -0.976   1.366  -3.025  0.00  0.00    +0.224 C 
ATOM     25  O   UNL     1      -0.989   0.158  -3.135  0.00  0.00    -0.275 OA
ATOM     26  N   UNL     1      -0.016   2.088  -3.636  0.00  0.00    -0.310 N 
ATOM     27  H   UNL     1      -0.006   3.054  -3.548  0.00  0.00    +0.149 HD
BRANCH  26  28
ATOM     28  C   UNL     1       1.012   1.413  -4.432  0.00  0.00    +0.026 C 
ATOM     29  C   UNL     1       0.348   0.641  -5.574  0.00  0.00    +0.031 C 
ATOM     30  C   UNL     1       1.972   2.454  -5.012  0.00  0.00    +0.031 C 
ATOM     31  C   UNL     1       1.790   0.441  -3.543  0.00  0.00    +0.031 C 
ENDBRANCH  26  28
ENDBRANCH  23  24
ENDBRANCH  22  23
ENDBRANCH  13  22
TORSDOF 5
