REMARK  Name = ZINC12592058
REMARK  6 active torsions:
REMARK  status: ('A' for Active; 'I' for Inactive)
REMARK    1  A    between atoms: C_1  and  C_2
REMARK    2  A    between atoms: C_7  and  N_8
REMARK    3  A    between atoms: C_9  and  C_11
REMARK    4  A    between atoms: C_11  and  C_12
REMARK    5  A    between atoms: C_12  and  C_13
REMARK    6  A    between atoms: C_19  and  N_57
REMARK                            x       y       z     vdW  Elec       q    Type
REMARK                         _______ _______ _______ _____ _____    ______ ____
ROOT
ATOM      1  C   UNL     1      -4.732  -3.334  -0.427  0.00  0.00    -0.027 C 
ATOM      2  C   UNL     1      -5.428  -2.964  -1.740  0.00  0.00    -0.000 C 
ATOM      3  C   UNL     1      -6.713  -3.785  -1.875  0.00  0.00    -0.018 C 
ATOM      4  C   UNL     1      -6.369  -5.275  -1.819  0.00  0.00    -0.078 C 
ATOM      5  C   UNL     1      -4.445  -4.837  -0.413  0.00  0.00    -0.075 C 
ATOM      6  N   UNL     1      -5.724  -5.570  -0.522  0.00  0.00    +0.382 N 
ATOM      7  H   UNL     1      -6.347  -5.268   0.236  0.00  0.00    -0.081 HD
ENDROOT
BRANCH   6   8
ATOM      8  C   UNL     1      -5.485  -7.023  -0.396  0.00  0.00    -0.060 C 
ATOM      9  C   UNL     1      -6.819  -7.794  -0.489  0.00  0.00    +0.020 C 
ATOM     10  C   UNL     1      -6.675  -8.947   0.487  0.00  0.00    -0.046 A 
ATOM     11  C   UNL     1      -7.401 -10.120   0.600  0.00  0.00    +0.004 A 
ATOM     12  C   UNL     1      -7.085 -11.042   1.579  0.00  0.00    +0.000 A 
ATOM     13  C   UNL     1      -6.039 -10.793   2.448  0.00  0.00    +0.000 A 
ATOM     14  C   UNL     1      -5.314  -9.623   2.337  0.00  0.00    +0.004 A 
ATOM     15  C   UNL     1      -5.630  -8.697   1.356  0.00  0.00    -0.046 A 
ATOM     16  C   UNL     1      -5.000  -7.360   1.030  0.00  0.00    +0.020 C 
ENDBRANCH   6   8
BRANCH   1  17
ATOM     17  C   UNL     1      -3.416  -2.562  -0.312  0.00  0.00    +0.011 C 
BRANCH  17  18
ATOM     18  C   UNL     1      -3.711  -1.064  -0.200  0.00  0.00    +0.096 C 
BRANCH  18  20
ATOM     19  N   UNL     1      -2.429   1.039   0.023  0.00  0.00    -0.285 N 
ATOM     20  C   UNL     1      -2.415  -0.304  -0.087  0.00  0.00    +0.217 C 
ATOM     21  O   UNL     1      -1.359  -0.901  -0.094  0.00  0.00    -0.275 OA
ATOM     22  H   UNL     1      -3.273   1.510   0.110  0.00  0.00    +0.155 HD
BRANCH  19  29
ATOM     23  C   UNL     1      -2.368   3.582   1.297  0.00  0.00    +0.046 C 
ATOM     24  C   UNL     1      -1.153   3.001   0.622  0.00  0.00    -0.027 A 
ATOM     25  C   UNL     1       0.033   3.708   0.604  0.00  0.00    +0.043 A 
ATOM     26  C   UNL     1       1.150   3.174  -0.016  0.00  0.00    +0.124 A 
ATOM     27  C   UNL     1       1.081   1.929  -0.619  0.00  0.00    +0.040 A 
ATOM     28  C   UNL     1      -0.103   1.219  -0.604  0.00  0.00    +0.026 A 
ATOM     29  C   UNL     1      -1.226   1.756   0.012  0.00  0.00    +0.036 A 
ATOM     30  F   UNL     1       2.309   3.868  -0.032  0.00  0.00    -0.205 F 
ENDBRANCH  19  29
ENDBRANCH  18  20
ENDBRANCH  17  18
ENDBRANCH   1  17
TORSDOF 5
