REMARK  Name = ZINC16435158
REMARK  7 active torsions:
REMARK  status: ('A' for Active; 'I' for Inactive)
REMARK    1  A    between atoms: C_1  and  C_2
REMARK    2  A    between atoms: C_2  and  C_4
REMARK    3  A    between atoms: C_2  and  N_9
REMARK    4  A    between atoms: N_9  and  C_10
REMARK    5  A    between atoms: N_9  and  C_11
REMARK    6  A    between atoms: C_11  and  C_12
REMARK    7  A    between atoms: C_14  and  C_17
REMARK                            x       y       z     vdW  Elec       q    Type
REMARK                         _______ _______ _______ _____ _____    ______ ____
ROOT
ATOM      1  C   UNL     1      -0.905   2.166  -1.190  0.00  0.00    +0.242 A 
ATOM      2  N   UNL     1      -0.807   3.424  -1.542  0.00  0.00    -0.190 NA
ATOM      3  C   UNL     1      -1.754   3.610  -2.490  0.00  0.00    +0.203 A 
ATOM      4  N   UNL     1      -2.365   2.466  -2.655  0.00  0.00    -0.056 NA
ATOM      5  O   UNL     1      -1.886   1.628  -1.921  0.00  0.00    -0.336 OA
ENDROOT
BRANCH   3   6
ATOM      6  C   UNL     1      -2.045   4.877  -3.206  0.00  0.00    +0.041 A 
ATOM      7  C   UNL     1      -1.313   6.027  -2.920  0.00  0.00    +0.013 A 
ATOM      8  C   UNL     1      -1.584   7.200  -3.594  0.00  0.00    +0.001 A 
ATOM      9  C   UNL     1      -2.589   7.239  -4.544  0.00  0.00    +0.001 A 
ATOM     10  C   UNL     1      -3.324   6.103  -4.829  0.00  0.00    +0.021 A 
ATOM     11  C   UNL     1      -3.057   4.921  -4.165  0.00  0.00    +0.052 A 
ATOM     12 CL   UNL     1      -3.980   3.495  -4.522  0.00  0.00    -0.083 Cl
ENDBRANCH   3   6
BRANCH   1  13
ATOM     13  C   UNL     1      -0.065   1.458  -0.159  0.00  0.00    +0.183 C 
BRANCH  13  14
ATOM     14  N   UNL     1      -0.706   1.573   1.158  0.00  0.00    -0.290 NA
ATOM     15  C   UNL     1      -1.982   0.847   1.188  0.00  0.00    +0.106 C 
BRANCH  14  17
ATOM     16  C   UNL     1      -0.485   1.299   3.582  0.00  0.00    +0.030 C 
ATOM     17  C   UNL     1       0.191   1.105   2.223  0.00  0.00    +0.091 C 
BRANCH  17  18
ATOM     18  C   UNL     1       1.474   1.896   2.184  0.00  0.00    +0.007 A 
ATOM     19  C   UNL     1       2.752   1.453   2.256  0.00  0.00    +0.013 A 
ATOM     20  C   UNL     1       3.784   2.371   2.198  0.00  0.00    +0.008 A 
ATOM     21  C   UNL     1       3.487   3.687   2.070  0.00  0.00    +0.045 A 
ATOM     22  S   UNL     1       1.703   3.659   2.021  0.00  0.00    -0.100 S 
ENDBRANCH  17  18
ENDBRANCH  14  17
ENDBRANCH  13  14
ENDBRANCH   1  13
TORSDOF 5
