REMARK  Name = ZINC36499659
REMARK  11 active torsions:
REMARK  status: ('A' for Active; 'I' for Inactive)
REMARK    1  A    between atoms: C_3  and  C_6
REMARK    2  A    between atoms: C_6  and  N_7
REMARK    3  A    between atoms: N_7  and  C_8
REMARK    4  A    between atoms: C_8  and  C_10
REMARK    5  A    between atoms: C_8  and  C_19
REMARK    6  A    between atoms: C_11  and  O_18
REMARK    7  A    between atoms: C_13  and  O_17
REMARK    8  A    between atoms: C_15  and  O_16
REMARK    9  A    between atoms: N_21  and  C_22
REMARK   10  A    between atoms: C_28  and  C_30
REMARK   11  A    between atoms: C_32  and  N_37
REMARK                            x       y       z     vdW  Elec       q    Type
REMARK                         _______ _______ _______ _____ _____    ______ ____
ROOT
ATOM      1  C   UNL     1       5.318  -1.982   0.607  0.00  0.00    +0.200 C 
ENDROOT
BRANCH   1   2
ATOM      2  C   UNL     1       6.061  -1.230  -0.466  0.00  0.00    +0.065 A 
ATOM      3  C   UNL     1       5.635  -1.299  -1.784  0.00  0.00    +0.129 A 
ATOM      4  C   UNL     1       6.320  -0.607  -2.771  0.00  0.00    +0.091 A 
ATOM      5  C   UNL     1       7.430   0.155  -2.441  0.00  0.00    +0.124 A 
ATOM      6  C   UNL     1       7.856   0.225  -1.123  0.00  0.00    +0.091 A 
ATOM      7  C   UNL     1       7.169  -0.464  -0.135  0.00  0.00    +0.129 A 
BRANCH   7   8
ATOM      8  O   UNL     1       7.583  -0.391   1.157  0.00  0.00    -0.506 OA
ATOM      9  H   UNL     1       8.226  -1.071   1.403  0.00  0.00    +0.292 HD
ENDBRANCH   7   8
BRANCH   5  10
ATOM     10  O   UNL     1       8.101   0.833  -3.409  0.00  0.00    -0.507 OA
ATOM     11  H   UNL     1       7.776   1.731  -3.558  0.00  0.00    +0.292 HD
ENDBRANCH   5  10
BRANCH   3  12
ATOM     12  O   UNL     1       4.547  -2.046  -2.107  0.00  0.00    -0.506 OA
ATOM     13  H   UNL     1       3.724  -1.540  -2.160  0.00  0.00    +0.292 HD
ENDBRANCH   3  12
ENDBRANCH   1   2
BRANCH   1  14
ATOM     14  C   UNL     1       4.321  -2.914  -0.032  0.00  0.00    +0.239 C 
ATOM     15  O   UNL     1       3.134  -2.762   0.167  0.00  0.00    -0.273 OA
ATOM     16  N   UNL     1       4.748  -3.917  -0.825  0.00  0.00    -0.311 N 
ATOM     17  H   UNL     1       5.698  -4.050  -0.970  0.00  0.00    +0.149 HD
BRANCH  16  18
ATOM     18  C   UNL     1       3.778  -4.807  -1.467  0.00  0.00    +0.073 C 
ATOM     19  C   UNL     1       3.397  -5.930  -0.500  0.00  0.00    +0.022 C 
ATOM     20  C   UNL     1       2.384  -6.859  -1.171  0.00  0.00    +0.002 C 
ATOM     21  C   UNL     1       3.003  -7.462  -2.434  0.00  0.00    +0.000 C 
ATOM     22  C   UNL     1       3.383  -6.338  -3.401  0.00  0.00    +0.002 C 
ATOM     23  C   UNL     1       4.396  -5.409  -2.730  0.00  0.00    +0.022 C 
ENDBRANCH  16  18
ENDBRANCH   1  14
BRANCH   1  24
ATOM     24  N   UNL     1       4.613  -1.032   1.471  0.00  0.00    -0.274 N 
ATOM     25  C   UNL     1       4.043  -1.456   2.616  0.00  0.00    +0.252 C 
ATOM     26  O   UNL     1       3.797  -0.662   3.504  0.00  0.00    -0.270 OA
BRANCH  25  27
ATOM     27  C   UNL     1       3.718  -2.884   2.793  0.00  0.00    +0.086 A 
ATOM     28  C   UNL     1       4.429  -3.859   2.089  0.00  0.00    +0.049 A 
ATOM     29  C   UNL     1       4.120  -5.191   2.258  0.00  0.00    +0.127 A 
ATOM     30  C   UNL     1       3.107  -5.569   3.125  0.00  0.00    +0.036 A 
ATOM     31  C   UNL     1       2.396  -4.616   3.826  0.00  0.00    +0.054 A 
ATOM     32  C   UNL     1       2.698  -3.271   3.673  0.00  0.00    +0.191 A 
ATOM     33  O   UNL     1       2.004  -2.334   4.366  0.00  0.00    -0.287 OA
BRANCH  29  34
ATOM     34  N   UNL     1       4.874  -6.223   1.511  0.00  0.00    +0.056 N 
ATOM     35  O   UNL     1       5.758  -5.896   0.754  0.00  0.00    -0.126 OA
ATOM     36  O   UNL     1       4.605  -7.393   1.658  0.00  0.00    -0.126 OA
ENDBRANCH  29  34
ENDBRANCH  25  27
BRANCH  24  37
ATOM     37  C   UNL     1       4.528   0.380   1.090  0.00  0.00    +0.183 C 
BRANCH  37  40
ATOM     38  C   UNL     1       1.416   0.973  -0.793  0.00  0.00    +0.041 A 
ATOM     39  C   UNL     1       2.134   0.904   0.423  0.00  0.00    +0.046 A 
ATOM     40  C   UNL     1       3.399   0.569   0.111  0.00  0.00    +0.122 A 
ATOM     41  O   UNL     1       3.484   0.433  -1.223  0.00  0.00    -0.466 OA
ATOM     42  C   UNL     1       2.285   0.676  -1.776  0.00  0.00    +0.195 A 
ENDBRANCH  37  40
ENDBRANCH  24  37
ENDBRANCH   1  24
TORSDOF 11
