REMARK  Name = ZINC39855939
REMARK  12 active torsions:
REMARK  status: ('A' for Active; 'I' for Inactive)
REMARK    1  A    between atoms: C_1  and  C_2
REMARK    2  A    between atoms: C_6  and  C_7
REMARK    3  A    between atoms: N_9  and  C_10
REMARK    4  A    between atoms: C_10  and  C_11
REMARK    5  A    between atoms: C_11  and  C_12
REMARK    6  A    between atoms: C_15  and  O_20
REMARK    7  A    between atoms: C_16  and  O_18
REMARK    8  A    between atoms: O_18  and  C_19
REMARK    9  A    between atoms: O_20  and  C_21
REMARK   10  A    between atoms: C_23  and  C_31
REMARK   11  A    between atoms: C_23  and  C_32
REMARK   12  A    between atoms: N_26  and  N_27
REMARK                            x       y       z     vdW  Elec       q    Type
REMARK                         _______ _______ _______ _____ _____    ______ ____
ROOT
ATOM      1  C   UNL     1      -0.018   1.503   0.010  0.00  0.00    +0.048 C 
ATOM      2  C   UNL     1       0.002  -0.004   0.002  0.00  0.00    +0.009 A 
ATOM      3  C   UNL     1       0.009  -0.838  -1.123  0.00  0.00    +0.043 A 
ATOM      4  C   UNL     1       0.027  -2.137  -0.673  0.00  0.00    +0.116 A 
ATOM      5  O   UNL     1       0.035  -2.112   0.658  0.00  0.00    -0.454 OA
ATOM      6  C   UNL     1       0.024  -0.830   1.091  0.00  0.00    +0.193 A 
ATOM      7  C   UNL     1       0.034  -3.326  -1.600  0.00  0.00    +0.081 C 
ATOM      8  C   UNL     1      -0.492  -2.902  -2.974  0.00  0.00    -0.023 C 
ATOM      9  C   UNL     1       0.279  -1.685  -3.495  0.00  0.00    +0.064 C 
ATOM     10  C   UNL     1       0.000  -0.512  -2.566  0.00  0.00    +0.073 C 
ATOM     11  N   UNL     1      -0.228   0.686  -3.007  0.00  0.00    -0.175 NA
ATOM     12  C   UNL     1      -0.325  -4.063  -3.957  0.00  0.00    +0.011 C 
ATOM     13  C   UNL     1      -1.976  -2.549  -2.860  0.00  0.00    +0.011 C 
ENDROOT
BRANCH  11  14
ATOM     14  N   UNL     1      -0.224   0.938  -4.386  0.00  0.00    -0.248 N 
ATOM     15  C   UNL     1      -0.465   2.202  -4.852  0.00  0.00    +0.187 C 
ATOM     16  N   UNL     1      -0.460   2.442  -6.163  0.00  0.00    -0.370 N 
ATOM     17  N   UNL     1      -0.704   3.194  -3.994  0.00  0.00    -0.370 N 
ATOM     18  H   UNL     1      -0.050   0.216  -5.010  0.00  0.00    +0.192 HD
ATOM     19  H   UNL     1      -0.286   1.720  -6.787  0.00  0.00    +0.159 HD
ATOM     20  H   UNL     1      -0.707   3.020  -3.040  0.00  0.00    +0.159 HD
ATOM     21  H   UNL     1      -0.874   4.090  -4.324  0.00  0.00    +0.159 HD
ATOM     22  H   UNL     1      -0.631   3.338  -6.493  0.00  0.00    +0.159 HD
ENDBRANCH  11  14
BRANCH   6  23
ATOM     23  C   UNL     1       0.032  -0.400   2.494  0.00  0.00    +0.280 C 
ATOM     24  O   UNL     1       0.018   0.786   2.766  0.00  0.00    -0.267 OA
ATOM     25  N   UNL     1       0.054  -1.317   3.480  0.00  0.00    -0.309 N 
ATOM     26  H   UNL     1       0.065  -2.263   3.263  0.00  0.00    +0.149 HD
BRANCH  25  27
ATOM     27  C   UNL     1       0.061  -0.887   4.881  0.00  0.00    +0.109 C 
BRANCH  27  28
ATOM     28  C   UNL     1       0.087  -2.116   5.792  0.00  0.00    +0.054 C 
BRANCH  28  29
ATOM     29  C   UNL     1       0.095  -1.674   7.232  0.00  0.00    -0.042 A 
ATOM     30  C   UNL     1       1.297  -1.449   7.878  0.00  0.00    +0.007 A 
ATOM     31  C   UNL     1       1.309  -1.043   9.200  0.00  0.00    +0.049 A 
ATOM     32  C   UNL     1       0.116  -0.860   9.879  0.00  0.00    +0.161 A 
ATOM     33  C   UNL     1      -1.094  -1.086   9.229  0.00  0.00    +0.162 A 
ATOM     34  C   UNL     1      -1.099  -1.488   7.903  0.00  0.00    +0.053 A 
BRANCH  33  35
ATOM     35  O   UNL     1      -2.268  -0.908   9.892  0.00  0.00    -0.491 OA
ATOM     36  C   UNL     1      -3.470  -1.158   9.161  0.00  0.00    +0.277 C 
ENDBRANCH  33  35
BRANCH  32  37
ATOM     37  O   UNL     1       0.126  -0.461  11.179  0.00  0.00    -0.491 OA
ATOM     38  C   UNL     1       1.404  -0.249  11.783  0.00  0.00    +0.277 C 
ENDBRANCH  32  37
ENDBRANCH  28  29
ENDBRANCH  27  28
ENDBRANCH  25  27
ENDBRANCH   6  23
TORSDOF 7
