REMARK  Name = ZINC10663803
REMARK  6 active torsions:
REMARK  status: ('A' for Active; 'I' for Inactive)
REMARK    1  A    between atoms: C_1  and  C_2
REMARK    2  A    between atoms: C_5  and  S_8
REMARK    3  A    between atoms: S_8  and  O_11
REMARK    4  A    between atoms: O_11  and  C_12
REMARK    5  A    between atoms: C_15  and  C_24
REMARK    6  A    between atoms: C_21  and  C_23
REMARK                            x       y       z     vdW  Elec       q    Type
REMARK                         _______ _______ _______ _____ _____    ______ ____
ROOT
ATOM      1  C   UNL     1      -3.864   5.206   4.943  0.00  0.00    +0.168 A 
ATOM      2  C   UNL     1      -3.338   5.108   3.666  0.00  0.00    +0.049 A 
ATOM      3  C   UNL     1      -4.136   5.354   2.567  0.00  0.00    +0.007 A 
ATOM      4  C   UNL     1      -5.464   5.712   2.734  0.00  0.00    -0.046 A 
ATOM      5  C   UNL     1      -6.006   5.821   3.998  0.00  0.00    -0.027 A 
ATOM      6  C   UNL     1      -5.214   5.570   5.120  0.00  0.00    +0.066 A 
ATOM      7  C   UNL     1      -5.992   5.744   6.353  0.00  0.00    +0.168 C 
ATOM      8  O   UNL     1      -5.577   5.596   7.483  0.00  0.00    -0.292 OA
ATOM      9  C   UNL     1      -7.397   6.141   5.971  0.00  0.00    +0.087 C 
ATOM     10  C   UNL     1      -7.403   6.190   4.437  0.00  0.00    +0.024 C 
ATOM     11  C   UNL     1      -8.412   5.182   3.883  0.00  0.00    +0.013 C 
ATOM     12  C   UNL     1      -6.322   5.985   1.526  0.00  0.00    +0.044 C 
ENDROOT
BRANCH   1  13
ATOM     13  O   UNL     1      -3.080   4.959   6.022  0.00  0.00    -0.342 OA
BRANCH  13  14
ATOM     14  S   UNL     1      -3.089   3.505   6.473  0.00  0.00    +0.151 S 
ATOM     15  O   UNL     1      -4.425   3.043   6.328  0.00  0.00    -0.131 OA
ATOM     16  O   UNL     1      -2.399   3.461   7.715  0.00  0.00    -0.131 OA
BRANCH  14  21
ATOM     17  C   UNL     1       0.253   0.395   2.529  0.00  0.00    +0.044 C 
ATOM     18  C   UNL     1      -0.582   1.171   3.514  0.00  0.00    -0.050 A 
ATOM     19  C   UNL     1      -1.937   1.331   3.297  0.00  0.00    +0.005 A 
ATOM     20  C   UNL     1      -2.704   2.039   4.203  0.00  0.00    +0.031 A 
ATOM     21  C   UNL     1      -2.113   2.596   5.322  0.00  0.00    +0.128 A 
ATOM     22  C   UNL     1      -0.757   2.441   5.537  0.00  0.00    +0.031 A 
ATOM     23  C   UNL     1       0.009   1.728   4.633  0.00  0.00    +0.005 A 
ENDBRANCH  14  21
ENDBRANCH  13  14
ENDBRANCH   1  13
TORSDOF 3
