REMARK  Name = ZINC01380114
REMARK  6 active torsions:
REMARK  status: ('A' for Active; 'I' for Inactive)
REMARK    1  A    between atoms: C_5  and  C_7
REMARK    2  A    between atoms: C_7  and  C_9
REMARK    3  A    between atoms: C_7  and  N_17
REMARK    4  A    between atoms: N_11  and  C_12
REMARK    5  A    between atoms: N_17  and  C_18
REMARK    6  A    between atoms: C_25  and  C_27
REMARK                            x       y       z     vdW  Elec       q    Type
REMARK                         _______ _______ _______ _____ _____    ______ ____
ROOT
ATOM      1  C   UNL     1       1.221   1.989  -0.066  0.00  0.00    +0.200 C 
ENDROOT
BRANCH   1   6
ATOM      2  C   UNL     1       2.155   3.663   3.187  0.00  0.00    +0.001 A 
ATOM      3  C   UNL     1       1.519   4.885   3.062  0.00  0.00    +0.003 A 
ATOM      4  C   UNL     1       0.786   5.170   1.927  0.00  0.00    +0.039 A 
ATOM      5  C   UNL     1       0.693   4.234   0.910  0.00  0.00    +0.129 A 
ATOM      6  C   UNL     1       1.326   3.010   1.037  0.00  0.00    +0.017 A 
ATOM      7  C   UNL     1       2.059   2.727   2.175  0.00  0.00    +0.009 A 
ATOM      8  F   UNL     1      -0.019   4.515  -0.204  0.00  0.00    -0.205 F 
ENDBRANCH   1   6
BRANCH   1   9
ATOM      9  C   UNL     1      -0.112   1.292   0.019  0.00  0.00    +0.239 C 
ATOM     10  O   UNL     1      -0.160   0.091   0.183  0.00  0.00    -0.273 OA
ATOM     11  N   UNL     1      -1.252   2.003  -0.092  0.00  0.00    -0.311 N 
ATOM     12  H   UNL     1      -1.214   2.963  -0.223  0.00  0.00    +0.149 HD
BRANCH  11  13
ATOM     13  C   UNL     1      -2.548   1.325  -0.016  0.00  0.00    +0.073 C 
ATOM     14  C   UNL     1      -2.973   0.836  -1.416  0.00  0.00    +0.022 C 
ATOM     15  C   UNL     1      -4.506   1.052  -1.445  0.00  0.00    +0.002 C 
ATOM     16  C   UNL     1      -4.678   2.388  -0.679  0.00  0.00    +0.002 C 
ATOM     17  C   UNL     1      -3.632   2.311   0.453  0.00  0.00    +0.022 C 
ENDBRANCH  11  13
ENDBRANCH   1   9
BRANCH   1  18
ATOM     18  N   UNL     1       2.297   1.004   0.077  0.00  0.00    -0.247 N 
ATOM     19  C   UNL     1       2.308   0.167   1.133  0.00  0.00    +0.287 C 
ATOM     20  O   UNL     1       1.386   0.176   1.927  0.00  0.00    -0.266 OA
BRANCH  18  21
ATOM     21  C   UNL     1       3.311   0.932  -0.884  0.00  0.00    +0.056 A 
ATOM     22  C   UNL     1       4.437   1.737  -0.769  0.00  0.00    +0.025 A 
ATOM     23  C   UNL     1       5.437   1.664  -1.719  0.00  0.00    +0.002 A 
ATOM     24  C   UNL     1       5.318   0.790  -2.784  0.00  0.00    +0.002 A 
ATOM     25  C   UNL     1       4.199  -0.014  -2.902  0.00  0.00    +0.022 A 
ATOM     26  C   UNL     1       3.197   0.051  -1.953  0.00  0.00    +0.062 A 
ATOM     27 CL   UNL     1       1.796  -0.963  -2.097  0.00  0.00    -0.082 Cl
ENDBRANCH  18  21
BRANCH  19  28
ATOM     28  C   UNL     1       3.433  -0.754   1.326  0.00  0.00    +0.190 A 
ATOM     29  C   UNL     1       3.570  -1.649   2.348  0.00  0.00    +0.054 A 
ATOM     30  C   UNL     1       4.786  -2.318   2.138  0.00  0.00    +0.042 A 
ATOM     31  C   UNL     1       5.331  -1.808   1.011  0.00  0.00    +0.196 A 
ATOM     32  O   UNL     1       4.510  -0.870   0.522  0.00  0.00    -0.458 OA
ENDBRANCH  19  28
ENDBRANCH   1  18
TORSDOF 6
