REMARK  Name = ZINC18157489
REMARK  10 active torsions:
REMARK  status: ('A' for Active; 'I' for Inactive)
REMARK    1  A    between atoms: C_1  and  C_2
REMARK    2  A    between atoms: C_2  and  C_3
REMARK    3  A    between atoms: C_2  and  C_4
REMARK    4  A    between atoms: C_4  and  C_5
REMARK    5  A    between atoms: C_5  and  C_7
REMARK    6  A    between atoms: C_5  and  N_28
REMARK    7  A    between atoms: N_9  and  C_10
REMARK    8  A    between atoms: C_10  and  C_11
REMARK    9  A    between atoms: N_13  and  C_22
REMARK   10  A    between atoms: C_15  and  C_16
REMARK                            x       y       z     vdW  Elec       q    Type
REMARK                         _______ _______ _______ _____ _____    ______ ____
ROOT
ATOM      1  C   UNL     1      -2.809  -2.599  -0.235  0.00  0.00    +0.234 C 
ATOM      2  O   UNL     1      -3.336  -3.308   0.596  0.00  0.00    -0.274 OA
ATOM      3  N   UNL     1      -3.464  -2.291  -1.371  0.00  0.00    -0.310 N 
ATOM      4  H   UNL     1      -3.042  -1.724  -2.036  0.00  0.00    +0.149 HD
ENDROOT
BRANCH   1   5
ATOM      5  C   UNL     1      -1.420  -2.064   0.003  0.00  0.00    +0.170 C 
BRANCH   5   6
ATOM      6  N   UNL     1      -0.929  -2.539   1.299  0.00  0.00    -0.230 N 
ATOM      7  C   UNL     1      -1.488  -2.180   2.484  0.00  0.00    +0.227 C 
ATOM      8  O   UNL     1      -2.550  -1.619   2.648  0.00  0.00    -0.275 OA
ATOM      9  C   UNL     1      -0.527  -2.615   3.549  0.00  0.00    +0.091 C 
ATOM     10  C   UNL     1      -1.090  -3.098   4.869  0.00  0.00    +0.040 C 
ATOM     11  C   UNL     1       0.039  -3.790   5.603  0.00  0.00    -0.030 C 
ATOM     12  C   UNL     1       1.127  -4.218   5.036  0.00  0.00    -0.030 C 
ATOM     13  C   UNL     1       1.418  -4.112   3.554  0.00  0.00    +0.040 C 
ATOM     14  C   UNL     1       0.108  -3.858   2.853  0.00  0.00    +0.091 C 
ATOM     15  C   UNL     1       0.125  -3.386   1.432  0.00  0.00    +0.227 C 
ATOM     16  O   UNL     1       0.921  -3.696   0.572  0.00  0.00    -0.275 OA
ENDBRANCH   5   6
BRANCH   5  17
ATOM     17  C   UNL     1      -1.456  -0.535   0.001  0.00  0.00    +0.035 C 
BRANCH  17  19
ATOM     18  C   UNL     1       0.775  -0.360  -1.110  0.00  0.00    +0.007 C 
ATOM     19  C   UNL     1      -0.032   0.009   0.136  0.00  0.00    -0.015 C 
ATOM     20  C   UNL     1      -0.079   1.531   0.280  0.00  0.00    +0.007 C 
ENDBRANCH  17  19
ENDBRANCH   5  17
ENDBRANCH   1   5
BRANCH   3  21
ATOM     21  C   UNL     1      -4.814  -2.812  -1.603  0.00  0.00    +0.143 C 
BRANCH  21  22
ATOM     22  C   UNL     1      -5.319  -2.323  -2.936  0.00  0.00    +0.015 A 
ATOM     23  C   UNL     1      -6.160  -1.285  -3.136  0.00  0.00    +0.120 A 
ATOM     24  N   UNL     1      -6.370  -1.170  -4.473  0.00  0.00    -0.239 N 
ATOM     25  N   UNL     1      -5.630  -2.172  -5.115  0.00  0.00    -0.166 NA
ATOM     26  C   UNL     1      -4.992  -2.864  -4.195  0.00  0.00    +0.098 A 
BRANCH  26  27
ATOM     27  C   UNL     1      -4.089  -4.016  -4.441  0.00  0.00    +0.002 A 
ATOM     28  C   UNL     1      -2.976  -4.218  -3.628  0.00  0.00    +0.010 A 
ATOM     29  C   UNL     1      -2.140  -5.291  -3.861  0.00  0.00    +0.001 A 
ATOM     30  C   UNL     1      -2.405  -6.165  -4.899  0.00  0.00    +0.000 A 
ATOM     31  C   UNL     1      -3.509  -5.969  -5.710  0.00  0.00    +0.001 A 
ATOM     32  C   UNL     1      -4.355  -4.902  -5.483  0.00  0.00    +0.010 A 
ENDBRANCH  26  27
BRANCH  24  33
ATOM     33  C   UNL     1      -7.183  -0.217  -5.100  0.00  0.00    +0.065 A 
ATOM     34  C   UNL     1      -7.860   0.728  -4.340  0.00  0.00    +0.028 A 
ATOM     35  C   UNL     1      -8.661   1.667  -4.961  0.00  0.00    +0.002 A 
ATOM     36  C   UNL     1      -8.788   1.666  -6.338  0.00  0.00    +0.000 A 
ATOM     37  C   UNL     1      -8.116   0.726  -7.098  0.00  0.00    +0.002 A 
ATOM     38  C   UNL     1      -7.309  -0.211  -6.483  0.00  0.00    +0.028 A 
ENDBRANCH  24  33
ENDBRANCH  21  22
ENDBRANCH   3  21
TORSDOF 8
