REMARK  Name = ZINC12814535
REMARK  4 active torsions:
REMARK  status: ('A' for Active; 'I' for Inactive)
REMARK    1  A    between atoms: C_1  and  C_2
REMARK    2  A    between atoms: C_4  and  C_11
REMARK    3  A    between atoms: C_5  and  C_10
REMARK    4  A    between atoms: N_6  and  C_7
REMARK                            x       y       z     vdW  Elec       q    Type
REMARK                         _______ _______ _______ _____ _____    ______ ____
ROOT
ATOM      1  C   UNL     1      -0.617   0.710  -3.513  0.00  0.00    +0.248 C 
ATOM      2  O   UNL     1      -1.764   1.098  -3.628  0.00  0.00    -0.270 OA
ATOM      3  N   UNL     1      -0.062   0.598  -2.290  0.00  0.00    -0.297 N 
ATOM      4  C   UNL     1       1.285   0.036  -2.126  0.00  0.00    +0.108 C 
ATOM      5  C   UNL     1       1.219  -1.110  -1.111  0.00  0.00    +0.023 C 
ATOM      6  C   UNL     1       0.590  -0.602   0.189  0.00  0.00    -0.005 C 
ATOM      7  C   UNL     1       0.555  -1.740   1.211  0.00  0.00    +0.004 C 
ATOM      8  C   UNL     1      -0.077  -1.241   2.512  0.00  0.00    +0.000 C 
ATOM      9  C   UNL     1      -1.504  -0.764   2.234  0.00  0.00    +0.000 C 
ATOM     10  C   UNL     1      -1.471   0.371   1.216  0.00  0.00    +0.005 C 
ATOM     11  C   UNL     1      -0.836  -0.118  -0.087  0.00  0.00    +0.010 C 
ATOM     12  C   UNL     1      -0.793   1.036  -1.095  0.00  0.00    +0.112 C 
ENDROOT
BRANCH   1  16
ATOM     13  C   UNL     1       3.251   0.053  -6.776  0.00  0.00    +0.063 C 
ATOM     14  C   UNL     1       1.887   0.080  -6.136  0.00  0.00    +0.017 A 
ATOM     15  C   UNL     1       1.611   0.533  -4.900  0.00  0.00    +0.035 A 
ATOM     16  C   UNL     1       0.167   0.361  -4.711  0.00  0.00    +0.058 A 
ATOM     17  C   UNL     1      -0.307  -0.182  -5.873  0.00  0.00    +0.028 A 
ATOM     18  N   UNL     1       0.729  -0.346  -6.718  0.00  0.00    -0.344 N 
ATOM     19  C   UNL     1      -1.743  -0.536  -6.160  0.00  0.00    +0.064 C 
BRANCH  18  20
ATOM     20  C   UNL     1       0.626  -0.903  -8.069  0.00  0.00    +0.087 C 
ATOM     21  C   UNL     1       1.321  -0.143  -9.201  0.00  0.00    +0.027 C 
ATOM     22  C   UNL     1      -0.206  -0.127  -9.092  0.00  0.00    +0.027 C 
ENDBRANCH  18  20
ENDBRANCH   1  16
TORSDOF 2
