REMARK  Name = ZINC08432441
REMARK  7 active torsions:
REMARK  status: ('A' for Active; 'I' for Inactive)
REMARK    1  A    between atoms: C_1  and  C_2
REMARK    2  A    between atoms: C_2  and  N_3
REMARK    3  A    between atoms: N_3  and  C_4
REMARK    4  A    between atoms: N_3  and  C_6
REMARK    5  A    between atoms: C_4  and  C_5
REMARK    6  A    between atoms: C_9  and  C_12
REMARK    7  A    between atoms: C_17  and  C_29
REMARK                            x       y       z     vdW  Elec       q    Type
REMARK                         _______ _______ _______ _____ _____    ______ ____
ROOT
ATOM      1  C   UNL     1      -1.302  -6.165   0.447  0.00  0.00    +0.136 C 
ATOM      2  C   UNL     1      -0.109  -6.566   1.280  0.00  0.00    +0.036 C 
ATOM      3  C   UNL     1       1.134  -6.364   0.635  0.00  0.00    +0.163 C 
ATOM      4  C   UNL     1       2.442  -6.673   1.300  0.00  0.00    +0.088 C 
ATOM      5  C   UNL     1       2.266  -6.514   2.815  0.00  0.00    +0.032 C 
ATOM      6  C   UNL     1       1.132  -7.440   3.252  0.00  0.00    +0.059 C 
ATOM      7  C   UNL     1      -0.150  -7.071   2.526  0.00  0.00    +0.017 C 
ATOM      8  N   UNL     1      -1.289  -7.307   3.226  0.00  0.00    -0.316 N 
ATOM      9  C   UNL     1      -2.350  -6.417   3.344  0.00  0.00    +0.052 A 
ATOM     10  C   UNL     1      -2.712  -5.852   4.554  0.00  0.00    +0.025 A 
ATOM     11  C   UNL     1      -3.809  -5.010   4.609  0.00  0.00    +0.002 A 
ATOM     12  C   UNL     1      -4.538  -4.739   3.465  0.00  0.00    +0.002 A 
ATOM     13  C   UNL     1      -4.167  -5.289   2.251  0.00  0.00    +0.025 A 
ATOM     14  C   UNL     1      -3.056  -6.115   2.189  0.00  0.00    +0.049 A 
ATOM     15  N   UNL     1      -2.577  -6.600   0.977  0.00  0.00    -0.331 N 
ATOM     16  O   UNL     1       1.142  -5.924  -0.498  0.00  0.00    -0.292 OA
ATOM     17  H   UNL     1      -3.109  -7.239   0.478  0.00  0.00    +0.147 HD
ATOM     18  H   UNL     1      -1.368  -8.162   3.677  0.00  0.00    +0.152 HD
ENDROOT
BRANCH   5  19
ATOM     19  C   UNL     1       3.541  -6.899   3.521  0.00  0.00    -0.043 A 
ATOM     20  C   UNL     1       4.053  -8.175   3.376  0.00  0.00    +0.007 A 
ATOM     21  C   UNL     1       5.222  -8.528   4.022  0.00  0.00    +0.038 A 
ATOM     22  C   UNL     1       5.882  -7.604   4.814  0.00  0.00    +0.123 A 
ATOM     23  C   UNL     1       5.368  -6.326   4.958  0.00  0.00    +0.038 A 
ATOM     24  C   UNL     1       4.201  -5.973   4.307  0.00  0.00    +0.007 A 
ATOM     25  F   UNL     1       7.025  -7.948   5.446  0.00  0.00    -0.205 F 
ENDBRANCH   5  19
BRANCH   1  29
ATOM     26  C   UNL     1      -1.353  -1.906   0.121  0.00  0.00    +0.013 A 
ATOM     27  C   UNL     1      -1.539  -2.507   1.352  0.00  0.00    +0.022 A 
ATOM     28  C   UNL     1      -1.523  -3.886   1.457  0.00  0.00    +0.007 A 
ATOM     29  C   UNL     1      -1.321  -4.663   0.332  0.00  0.00    -0.023 A 
ATOM     30  C   UNL     1      -1.136  -4.061  -0.899  0.00  0.00    +0.007 A 
ATOM     31  C   UNL     1      -1.157  -2.683  -1.005  0.00  0.00    +0.022 A 
BRANCH  26  32
ATOM     32  N   UNL     1      -1.370  -0.512   0.015  0.00  0.00    -0.394 NA
ATOM     33  H   UNL     1      -1.224  -0.247  -0.948  0.00  0.00    +0.126 HD
BRANCH  32  35
ATOM     34  C   UNL     1      -2.734   1.509   0.239  0.00  0.00    +0.022 C 
ATOM     35  C   UNL     1      -2.669  -0.002   0.472  0.00  0.00    +0.081 C 
ENDBRANCH  32  35
BRANCH  32  36
ATOM     36  C   UNL     1      -0.301   0.055   0.847  0.00  0.00    +0.081 C 
ATOM     37  C   UNL     1       1.059  -0.377   0.294  0.00  0.00    +0.022 C 
ENDBRANCH  32  36
ENDBRANCH  26  32
ENDBRANCH   1  29
TORSDOF 5
