REMARK  Name = ZINC65034858
REMARK  6 active torsions:
REMARK  status: ('A' for Active; 'I' for Inactive)
REMARK    1  A    between atoms: C_1  and  C_2
REMARK    2  A    between atoms: C_7  and  C_8
REMARK    3  A    between atoms: N_13  and  C_19
REMARK    4  A    between atoms: C_19  and  C_20
REMARK    5  A    between atoms: N_22  and  C_23
REMARK    6  A    between atoms: C_23  and  C_24
REMARK                            x       y       z     vdW  Elec       q    Type
REMARK                         _______ _______ _______ _____ _____    ______ ____
ROOT
ATOM      1  C   UNL     1      -0.018   1.503   0.010  0.00  0.00    +0.044 C 
ATOM      2  C   UNL     1       0.002  -0.004   0.002  0.00  0.00    -0.046 A 
ATOM      3  C   UNL     1       0.006  -0.684  -1.208  0.00  0.00    +0.004 A 
ATOM      4  C   UNL     1       0.024  -2.050  -1.237  0.00  0.00    +0.014 A 
ATOM      5  C   UNL     1       0.040  -2.766  -0.040  0.00  0.00    +0.045 A 
ATOM      6  C   UNL     1       0.036  -2.084   1.190  0.00  0.00    +0.054 A 
ATOM      7  C   UNL     1       0.023  -0.692   1.196  0.00  0.00    -0.024 A 
ATOM      8  C   UNL     1       0.025   0.060   2.502  0.00  0.00    +0.046 C 
ATOM      9  N   UNL     1       0.051  -2.804   2.358  0.00  0.00    -0.357 N 
ATOM     10  C   UNL     1       0.068  -4.167   2.379  0.00  0.00    +0.020 A 
ATOM     11  C   UNL     1       0.068  -4.837   3.734  0.00  0.00    +0.035 C 
ATOM     12  C   UNL     1       0.498  -6.296   3.596  0.00  0.00    -0.072 C 
ATOM     13  N   UNL     1      -0.318  -6.924   2.545  0.00  0.00    +0.388 N 
ATOM     14  C   UNL     1       0.107  -6.397   1.246  0.00  0.00    -0.037 C 
ATOM     15  C   UNL     1       0.077  -4.891   1.242  0.00  0.00    +0.002 A 
ATOM     16  H   UNL     1       0.050  -2.325   3.202  0.00  0.00    +0.166 HD
ATOM     17  C   UNL     1       0.060  -4.236  -0.017  0.00  0.00    +0.191 A 
ATOM     18  O   UNL     1       0.063  -4.877  -1.055  0.00  0.00    -0.287 OA
ATOM     19  H   UNL     1      -1.292  -6.707   2.696  0.00  0.00    -0.081 HD
ENDROOT
BRANCH  13  20
ATOM     20  C   UNL     1      -0.124  -8.380   2.573  0.00  0.00    +0.019 C 
BRANCH  20  21
ATOM     21  C   UNL     1      -1.051  -9.030   1.579  0.00  0.00    +0.197 C 
ATOM     22  O   UNL     1      -1.800  -8.348   0.912  0.00  0.00    -0.278 OA
ATOM     23  N   UNL     1      -1.048 -10.369   1.431  0.00  0.00    -0.313 N 
ATOM     24  H   UNL     1      -0.449 -10.915   1.964  0.00  0.00    +0.149 HD
BRANCH  23  25
ATOM     25  C   UNL     1      -1.949 -11.001   0.464  0.00  0.00    +0.139 C 
BRANCH  25  26
ATOM     26  C   UNL     1      -1.750 -12.495   0.493  0.00  0.00    -0.027 A 
ATOM     27  C   UNL     1      -0.813 -13.082  -0.337  0.00  0.00    +0.009 A 
ATOM     28  C   UNL     1      -0.627 -14.452  -0.313  0.00  0.00    +0.050 A 
ATOM     29  C   UNL     1      -1.379 -15.239   0.543  0.00  0.00    +0.166 A 
ATOM     30  C   UNL     1      -2.323 -14.648   1.379  0.00  0.00    +0.167 A 
ATOM     31  C   UNL     1      -2.501 -13.274   1.354  0.00  0.00    +0.054 A 
ATOM     32  O   UNL     1      -2.926 -15.625   2.116  0.00  0.00    -0.453 OA
ATOM     33  C   UNL     1      -2.633 -16.858   1.434  0.00  0.00    +0.466 C 
ATOM     34  O   UNL     1      -1.391 -16.587   0.757  0.00  0.00    -0.453 OA
ENDBRANCH  25  26
ENDBRANCH  23  25
ENDBRANCH  20  21
ENDBRANCH  13  20
TORSDOF 4
