REMARK  Name = ZINC40066479
REMARK  12 active torsions:
REMARK  status: ('A' for Active; 'I' for Inactive)
REMARK    1  A    between atoms: C_1  and  C_2
REMARK    2  A    between atoms: C_2  and  N_3
REMARK    3  A    between atoms: C_4  and  N_28
REMARK    4  A    between atoms: C_5  and  C_13
REMARK    5  A    between atoms: C_6  and  C_12
REMARK    6  A    between atoms: C_7  and  C_10
REMARK    7  A    between atoms: N_17  and  C_21
REMARK    8  A    between atoms: C_21  and  C_22
REMARK    9  A    between atoms: N_28  and  C_29
REMARK   10  A    between atoms: C_29  and  C_30
REMARK   11  A    between atoms: C_33  and  O_36
REMARK   12  A    between atoms: O_36  and  C_37
REMARK                            x       y       z     vdW  Elec       q    Type
REMARK                         _______ _______ _______ _____ _____    ______ ____
ROOT
ATOM      1  N   UNL     1       0.459  -0.567  -0.944  0.00  0.00    -0.296 N 
ATOM      2  C   UNL     1      -0.244  -0.841  -2.072  0.00  0.00    +0.109 A 
ATOM      3  C   UNL     1       0.412  -1.284  -3.233  0.00  0.00    +0.019 A 
ATOM      4  C   UNL     1       1.808  -1.440  -3.220  0.00  0.00    -0.017 A 
ATOM      5  C   UNL     1       2.507  -1.152  -2.051  0.00  0.00    +0.120 A 
ATOM      6  C   UNL     1       1.797  -0.704  -0.907  0.00  0.00    +0.270 A 
ATOM      7  O   UNL     1       2.403  -0.445   0.117  0.00  0.00    -0.266 OA
ATOM      8  C   UNL     1       2.538  -1.913  -4.451  0.00  0.00    +0.046 C 
ENDROOT
BRANCH   3   9
ATOM      9  C   UNL     1      -0.352  -1.579  -4.446  0.00  0.00    +0.032 C 
ATOM     10  C   UNL     1      -1.162  -0.629  -4.989  0.00  0.00    +0.077 C 
ATOM     11  C   UNL     1      -2.076  -0.730  -6.081  0.00  0.00    +0.258 C 
ATOM     12  O   UNL     1      -2.223  -1.780  -6.681  0.00  0.00    -0.269 OA
ATOM     13  N   UNL     1      -2.757   0.350  -6.422  0.00  0.00    -0.253 N 
ATOM     14  C   UNL     1      -2.593   1.515  -5.757  0.00  0.00    +0.121 C 
ATOM     15  S   UNL     1      -3.362   3.021  -6.025  0.00  0.00    -0.027 S 
ATOM     16  S   UNL     1      -1.376   1.083  -4.523  0.00  0.00    -0.061 S 
BRANCH  13  17
ATOM     17  C   UNL     1      -3.704   0.283  -7.538  0.00  0.00    +0.146 C 
BRANCH  17  18
ATOM     18  C   UNL     1      -5.085  -0.115  -7.013  0.00  0.00    +0.136 C 
ATOM     19  C   UNL     1      -6.094  -0.225  -8.183  0.00  0.00    +0.035 C 
ATOM     20  C   UNL     1      -7.136  -1.207  -7.582  0.00  0.00    +0.031 C 
ATOM     21  C   UNL     1      -6.253  -2.131  -6.716  0.00  0.00    +0.160 C 
ATOM     22  O   UNL     1      -5.037  -1.427  -6.431  0.00  0.00    -0.375 OA
ENDBRANCH  17  18
ENDBRANCH  13  17
ENDBRANCH   3   9
BRANCH   1  24
ATOM     23  C   UNL     1      -0.414   1.413   0.197  0.00  0.00    +0.027 C 
ATOM     24  C   UNL     1      -0.250  -0.108   0.253  0.00  0.00    +0.123 C 
ENDBRANCH   1  24
BRANCH   5  25
ATOM     25  C   UNL     1       3.930  -1.302  -2.004  0.00  0.00    +0.105 C 
ATOM     26  N   UNL     1       5.059  -1.421  -1.967  0.00  0.00    -0.191 NA
ENDBRANCH   5  25
BRANCH   2  27
ATOM     27  N   UNL     1      -1.600  -0.687  -2.079  0.00  0.00    -0.326 N 
ATOM     28  H   UNL     1      -1.988   0.183  -2.261  0.00  0.00    +0.148 HD
BRANCH  27  29
ATOM     29  C   UNL     1      -2.469  -1.835  -1.810  0.00  0.00    +0.138 C 
BRANCH  29  30
ATOM     30  C   UNL     1      -3.904  -1.378  -1.758  0.00  0.00    -0.030 A 
ATOM     31  C   UNL     1      -4.454  -0.967  -0.558  0.00  0.00    +0.009 A 
ATOM     32  C   UNL     1      -5.770  -0.548  -0.507  0.00  0.00    +0.046 A 
ATOM     33  C   UNL     1      -6.538  -0.538  -1.662  0.00  0.00    +0.120 A 
ATOM     34  C   UNL     1      -5.984  -0.951  -2.865  0.00  0.00    +0.046 A 
ATOM     35  C   UNL     1      -4.666  -1.364  -2.911  0.00  0.00    +0.009 A 
BRANCH  33  36
ATOM     36  O   UNL     1      -7.833  -0.127  -1.615  0.00  0.00    -0.495 OA
ATOM     37  C   UNL     1      -8.564  -0.144  -2.843  0.00  0.00    +0.277 C 
ENDBRANCH  33  36
ENDBRANCH  29  30
ENDBRANCH  27  29
ENDBRANCH   2  27
TORSDOF 9
