REMARK  Name = ZINC21738551
REMARK  7 active torsions:
REMARK  status: ('A' for Active; 'I' for Inactive)
REMARK    1  A    between atoms: C_1  and  C_2
REMARK    2  A    between atoms: C_5  and  C_27
REMARK    3  A    between atoms: C_10  and  C_12
REMARK    4  A    between atoms: C_12  and  C_14
REMARK    5  A    between atoms: C_12  and  S_15
REMARK    6  A    between atoms: S_15  and  C_16
REMARK    7  A    between atoms: C_19  and  C_21
REMARK                            x       y       z     vdW  Elec       q    Type
REMARK                         _______ _______ _______ _____ _____    ______ ____
ROOT
ATOM      1  C   UNL     1      -2.874   4.972   1.362  0.00  0.00    +0.139 C 
ATOM      2  C   UNL     1      -2.041   6.152   1.865  0.00  0.00    +0.029 C 
ENDROOT
BRANCH   1  10
ATOM      3  C   UNL     1      -0.055   1.072  -2.491  0.00  0.00    +0.009 C 
ATOM      4  C   UNL     1      -0.752   1.593  -1.232  0.00  0.00    +0.004 C 
ATOM      5  C   UNL     1      -0.013   1.086   0.008  0.00  0.00    +0.009 C 
ATOM      6  C   UNL     1      -0.729   1.579   1.268  0.00  0.00    +0.004 C 
ATOM      7  C   UNL     1      -0.717   3.111   1.290  0.00  0.00    +0.111 C 
ATOM      8  N   UNL     1      -1.296   3.606   0.034  0.00  0.00    -0.300 N 
ATOM      9  C   UNL     1      -0.741   3.124  -1.238  0.00  0.00    +0.111 C 
ATOM     10  C   UNL     1      -2.316   4.487   0.049  0.00  0.00    +0.229 C 
ATOM     11  O   UNL     1      -2.785   4.889  -0.995  0.00  0.00    -0.274 OA
ATOM     12  C   UNL     1      -2.175   1.079   1.262  0.00  0.00    +0.009 C 
ENDBRANCH   1  10
BRANCH   1  13
ATOM     13  S   UNL     1      -4.590   5.499   1.130  0.00  0.00    -0.053 S 
BRANCH  13  14
ATOM     14  C   UNL     1      -5.027   5.860   2.799  0.00  0.00    +0.278 A 
ATOM     15  N   UNL     1      -4.249   5.739   3.849  0.00  0.00    -0.101 NA
ATOM     16  N   UNL     1      -4.895   6.093   4.904  0.00  0.00    -0.106 NA
ATOM     17  C   UNL     1      -6.113   6.445   4.571  0.00  0.00    +0.249 A 
ATOM     18  O   UNL     1      -6.222   6.305   3.231  0.00  0.00    -0.411 OA
BRANCH  17  19
ATOM     19  C   UNL     1      -7.172   6.910   5.491  0.00  0.00    +0.039 A 
ATOM     20  C   UNL     1      -8.429   7.259   4.994  0.00  0.00    +0.013 A 
ATOM     21  C   UNL     1      -9.415   7.686   5.859  0.00  0.00    +0.001 A 
ATOM     22  C   UNL     1      -9.156   7.780   7.215  0.00  0.00    +0.000 A 
ATOM     23  C   UNL     1      -7.911   7.441   7.714  0.00  0.00    +0.001 A 
ATOM     24  C   UNL     1      -6.918   7.006   6.860  0.00  0.00    +0.013 A 
ENDBRANCH  17  19
ENDBRANCH  13  14
ENDBRANCH   1  13
TORSDOF 4
