REMARK  Name = ZINC20760659
REMARK  12 active torsions:
REMARK  status: ('A' for Active; 'I' for Inactive)
REMARK    1  A    between atoms: C_1  and  C_2
REMARK    2  A    between atoms: C_3  and  S_12
REMARK    3  A    between atoms: C_4  and  C_7
REMARK    4  A    between atoms: C_8  and  N_9
REMARK    5  A    between atoms: N_9  and  C_10
REMARK    6  A    between atoms: N_9  and  C_11
REMARK    7  A    between atoms: S_12  and  N_15
REMARK    8  A    between atoms: N_15  and  C_16
REMARK    9  A    between atoms: C_16  and  C_17
REMARK   10  A    between atoms: C_17  and  N_18
REMARK   11  A    between atoms: C_21  and  C_24
REMARK   12  A    between atoms: C_24  and  C_25
REMARK                            x       y       z     vdW  Elec       q    Type
REMARK                         _______ _______ _______ _____ _____    ______ ____
ROOT
ATOM      1  N   UNL     1       1.569  -0.083  -3.282  0.00  0.00    -0.192 NA
ATOM      2  H   UNL     1       1.915   0.797  -3.501  0.00  0.00    +0.148 HD
ENDROOT
BRANCH   1   3
ATOM      3  S   UNL     1      -0.008  -0.259  -2.809  0.00  0.00    +0.064 S 
ATOM      4  O   UNL     1      -0.548  -1.319  -3.585  0.00  0.00    -0.153 OA
ATOM      5  O   UNL     1      -0.577   1.043  -2.798  0.00  0.00    -0.153 OA
BRANCH   3   8
ATOM      6  C   UNL     1      -0.018   1.503   0.010  0.00  0.00    +0.071 C 
ATOM      7  C   UNL     1       0.002  -0.004   0.002  0.00  0.00    +0.107 A 
ATOM      8  C   UNL     1       0.008  -0.816  -1.137  0.00  0.00    +0.174 A 
ATOM      9  C   UNL     1       0.028  -2.128  -0.719  0.00  0.00    +0.188 A 
ATOM     10  O   UNL     1       0.034  -2.122   0.628  0.00  0.00    -0.353 OA
ATOM     11  N   UNL     1       0.023  -0.773   1.057  0.00  0.00    -0.081 NA
BRANCH   9  12
ATOM     12  C   UNL     1       0.039  -3.313  -1.581  0.00  0.00    +0.066 C 
ATOM     13  C   UNL     1       0.059  -4.540  -1.036  0.00  0.00    +0.073 C 
BRANCH  13  14
ATOM     14  N   UNL     1       0.070  -5.654  -1.846  0.00  0.00    -0.342 N 
ATOM     15  C   UNL     1       0.060  -5.500  -3.303  0.00  0.00    +0.128 C 
ATOM     16  C   UNL     1       0.091  -6.992  -1.251  0.00  0.00    +0.128 C 
ENDBRANCH  13  14
ENDBRANCH   9  12
ENDBRANCH   3   8
ENDBRANCH   1   3
BRANCH   1  17
ATOM     17  C   UNL     1       2.443  -1.255  -3.369  0.00  0.00    +0.087 C 
BRANCH  17  18
ATOM     18  C   UNL     1       3.699  -0.897  -4.167  0.00  0.00    -0.062 C 
BRANCH  18  19
ATOM     19  N   UNL     1       4.575  -2.073  -4.254  0.00  0.00    +0.381 N 
ATOM     20  C   UNL     1       5.047  -2.430  -2.911  0.00  0.00    -0.078 C 
ATOM     21  C   UNL     1       5.895  -3.702  -2.986  0.00  0.00    -0.015 C 
ATOM     22  C   UNL     1       7.097  -3.455  -3.902  0.00  0.00    -0.010 C 
ATOM     23  C   UNL     1       6.594  -3.010  -5.279  0.00  0.00    -0.015 C 
ATOM     24  C   UNL     1       5.721  -1.764  -5.119  0.00  0.00    -0.078 C 
ATOM     25  H   UNL     1       4.059  -2.847  -4.645  0.00  0.00    -0.082 HD
BRANCH  22  26
ATOM     26  C   UNL     1       7.905  -4.745  -4.045  0.00  0.00    +0.038 C 
BRANCH  26  27
ATOM     27  C   UNL     1       9.153  -4.471  -4.845  0.00  0.00    -0.047 A 
ATOM     28  C   UNL     1       9.133  -4.597  -6.221  0.00  0.00    +0.003 A 
ATOM     29  C   UNL     1      10.277  -4.346  -6.955  0.00  0.00    +0.000 A 
ATOM     30  C   UNL     1      11.441  -3.966  -6.313  0.00  0.00    +0.000 A 
ATOM     31  C   UNL     1      11.460  -3.839  -4.936  0.00  0.00    +0.000 A 
ATOM     32  C   UNL     1      10.315  -4.087  -4.203  0.00  0.00    +0.003 A 
ENDBRANCH  26  27
ENDBRANCH  22  26
ENDBRANCH  18  19
ENDBRANCH  17  18
ENDBRANCH   1  17
TORSDOF 9
