REMARK  Name = ZINC63372342
REMARK  14 active torsions:
REMARK  status: ('A' for Active; 'I' for Inactive)
REMARK    1  A    between atoms: C_1  and  C_2
REMARK    2  A    between atoms: C_2  and  O_3
REMARK    3  A    between atoms: O_3  and  C_4
REMARK    4  A    between atoms: C_5  and  C_12
REMARK    5  A    between atoms: C_9  and  O_10
REMARK    6  A    between atoms: O_10  and  C_11
REMARK    7  A    between atoms: N_19  and  C_34
REMARK    8  A    between atoms: C_22  and  C_33
REMARK    9  A    between atoms: C_34  and  C_35
REMARK   10  A    between atoms: C_35  and  C_36
REMARK   11  A    between atoms: C_36  and  O_37
REMARK   12  A    between atoms: O_37  and  C_38
REMARK   13  A    between atoms: C_38  and  C_39
REMARK   14  A    between atoms: C_38  and  C_40
REMARK                            x       y       z     vdW  Elec       q    Type
REMARK                         _______ _______ _______ _____ _____    ______ ____
ROOT
ATOM      1  C   UNL     1      -1.365  -1.806   2.563  0.00  0.00    +0.069 C 
ATOM      2  C   UNL     1      -2.668  -2.367   1.966  0.00  0.00    +0.121 C 
ATOM      3  N   UNL     1      -3.814  -1.901   2.770  0.00  0.00    -0.283 N 
ATOM      4  C   UNL     1      -4.765  -1.188   2.156  0.00  0.00    +0.234 C 
ATOM      5  O   UNL     1      -4.613  -0.946   0.978  0.00  0.00    -0.274 OA
ATOM      6  C   UNL     1      -6.000  -0.669   2.815  0.00  0.00    +0.203 C 
ATOM      7  N   UNL     1      -6.067  -1.033   4.220  0.00  0.00    -0.291 N 
ATOM      8  C   UNL     1      -5.121  -1.731   4.846  0.00  0.00    +0.242 C 
ATOM      9  O   UNL     1      -5.285  -1.980   6.021  0.00  0.00    -0.273 OA
ATOM     10  C   UNL     1      -3.873  -2.229   4.196  0.00  0.00    +0.135 C 
ATOM     11  C   UNL     1      -2.646  -1.617   4.880  0.00  0.00    +0.139 C 
ATOM     12  C   UNL     1      -1.435  -2.036   4.052  0.00  0.00    -0.027 C 
ATOM     13  C   UNL     1      -0.584  -2.604   4.897  0.00  0.00    -0.000 A 
ATOM     14  C   UNL     1       0.786  -3.110   4.716  0.00  0.00    +0.010 A 
ATOM     15  C   UNL     1       1.370  -3.663   5.812  0.00  0.00    +0.001 A 
ATOM     16  C   UNL     1       0.736  -3.763   7.054  0.00  0.00    +0.002 A 
ATOM     17  C   UNL     1      -0.519  -3.316   7.313  0.00  0.00    +0.026 A 
ATOM     18  C   UNL     1      -1.231  -2.704   6.241  0.00  0.00    +0.043 A 
ATOM     19  N   UNL     1      -2.435  -2.157   6.223  0.00  0.00    -0.375 N 
ATOM     20  C   UNL     1      -3.802  -3.748   4.358  0.00  0.00    +0.044 C 
ATOM     21  H   UNL     1      -3.068  -2.117   6.957  0.00  0.00    +0.160 HD
ENDROOT
BRANCH   1  23
ATOM     22  C   UNL     1       0.802  -1.825   1.306  0.00  0.00    +0.166 A 
ATOM     23  C   UNL     1      -0.178  -2.531   1.985  0.00  0.00    +0.007 A 
ATOM     24  C   UNL     1      -0.066  -3.901   2.132  0.00  0.00    +0.008 A 
ATOM     25  C   UNL     1       1.023  -4.570   1.603  0.00  0.00    +0.004 A 
ATOM     26  C   UNL     1       2.004  -3.871   0.925  0.00  0.00    +0.049 A 
ATOM     27  C   UNL     1       1.895  -2.499   0.769  0.00  0.00    +0.162 A 
BRANCH  27  28
ATOM     28  O   UNL     1       2.856  -1.811   0.097  0.00  0.00    -0.491 OA
ATOM     29  C   UNL     1       3.949  -2.568  -0.427  0.00  0.00    +0.277 C 
ENDBRANCH  27  28
BRANCH  22  30
ATOM     30  O   UNL     1       0.693  -0.477   1.160  0.00  0.00    -0.488 OA
BRANCH  30  32
ATOM     31  C   UNL     1      -0.019   1.526   0.010  0.00  0.00    +0.048 C 
ATOM     32  C   UNL     1       0.002  -0.004   0.002  0.00  0.00    +0.226 C 
ENDBRANCH  30  32
ENDBRANCH  22  30
ENDBRANCH   1  23
BRANCH   7  33
ATOM     33  C   UNL     1      -7.239  -0.609   4.990  0.00  0.00    +0.110 C 
BRANCH  33  34
ATOM     34  C   UNL     1      -8.321  -1.688   4.908  0.00  0.00    +0.047 C 
BRANCH  34  35
ATOM     35  C   UNL     1      -9.545  -1.245   5.712  0.00  0.00    +0.161 C 
BRANCH  35  36
ATOM     36  O   UNL     1     -10.555  -2.252   5.636  0.00  0.00    -0.377 OA
BRANCH  36  37
ATOM     37  C   UNL     1     -11.747  -1.935   6.357  0.00  0.00    +0.112 C 
ATOM     38  C   UNL     1     -12.716  -1.188   5.439  0.00  0.00    +0.037 C 
ATOM     39  C   UNL     1     -12.404  -3.227   6.848  0.00  0.00    +0.037 C 
ENDBRANCH  36  37
ENDBRANCH  35  36
ENDBRANCH  34  35
ENDBRANCH  33  34
ENDBRANCH   7  33
TORSDOF 9
