REMARK  Name = ZINC66430395
REMARK  9 active torsions:
REMARK  status: ('A' for Active; 'I' for Inactive)
REMARK    1  A    between atoms: C_1  and  O_2
REMARK    2  A    between atoms: O_2  and  C_3
REMARK    3  A    between atoms: N_5  and  C_6
REMARK    4  A    between atoms: C_6  and  C_8
REMARK    5  A    between atoms: C_6  and  C_15
REMARK    6  A    between atoms: C_8  and  C_9
REMARK    7  A    between atoms: N_17  and  C_18
REMARK    8  A    between atoms: C_18  and  C_19
REMARK    9  A    between atoms: C_23  and  C_25
REMARK                            x       y       z     vdW  Elec       q    Type
REMARK                         _______ _______ _______ _____ _____    ______ ____
ROOT
ATOM      1  C   UNL     1       0.606  -2.194  -3.528  0.00  0.00    +0.234 C 
ATOM      2  O   UNL     1      -0.080  -1.194  -3.554  0.00  0.00    -0.274 OA
ATOM      3  N   UNL     1       0.743  -2.946  -4.639  0.00  0.00    -0.307 N 
ATOM      4  H   UNL     1       1.292  -3.745  -4.618  0.00  0.00    +0.149 HD
ENDROOT
BRANCH   1   5
ATOM      5  C   UNL     1       1.304  -2.596  -2.255  0.00  0.00    +0.166 C 
BRANCH   5   8
ATOM      6  C   UNL     1       0.600  -0.602  -1.046  0.00  0.00    +0.401 C 
ATOM      7  O   UNL     1       1.092   0.072  -1.930  0.00  0.00    -0.226 OA
ATOM      8  N   UNL     1       0.653  -1.946  -1.115  0.00  0.00    -0.270 N 
ATOM      9  H   UNL     1       0.260  -2.484  -0.409  0.00  0.00    +0.153 HD
BRANCH   6  11
ATOM     10  C   UNL     1      -0.017   1.425   0.010  0.00  0.00    +0.282 C 
ATOM     11  O   UNL     1       0.002  -0.004   0.002  0.00  0.00    -0.454 OA
ENDBRANCH   6  11
ENDBRANCH   5   8
BRANCH   5  12
ATOM     12  C   UNL     1       2.770  -2.165  -2.319  0.00  0.00    +0.067 C 
BRANCH  12  13
ATOM     13  C   UNL     1       3.498  -2.675  -1.101  0.00  0.00    -0.045 A 
ATOM     14  C   UNL     1       3.555  -1.901   0.043  0.00  0.00    +0.004 A 
ATOM     15  C   UNL     1       4.222  -2.369   1.160  0.00  0.00    +0.000 A 
ATOM     16  C   UNL     1       4.831  -3.609   1.133  0.00  0.00    +0.000 A 
ATOM     17  C   UNL     1       4.773  -4.383  -0.011  0.00  0.00    +0.000 A 
ATOM     18  C   UNL     1       4.102  -3.917  -1.127  0.00  0.00    +0.004 A 
ENDBRANCH  12  13
ENDBRANCH   5  12
ENDBRANCH   1   5
BRANCH   3  19
ATOM     19  C   UNL     1       0.064  -2.554  -5.877  0.00  0.00    +0.180 C 
BRANCH  19  20
ATOM     20  C   UNL     1       0.379  -3.554  -6.960  0.00  0.00    +0.143 A 
ATOM     21  N   UNL     1      -0.380  -4.611  -7.300  0.00  0.00    -0.261 N 
ATOM     22  H   UNL     1      -1.224  -4.871  -6.900  0.00  0.00    +0.190 HD
ATOM     23  N   UNL     1       0.289  -5.263  -8.349  0.00  0.00    -0.152 NA
ATOM     24  C   UNL     1       1.390  -4.578  -8.578  0.00  0.00    +0.188 A 
ATOM     25  N   UNL     1       1.433  -3.538  -7.732  0.00  0.00    -0.209 NA
BRANCH  24  26
ATOM     26  C   UNL     1       2.408  -4.899  -9.602  0.00  0.00    +0.058 A 
ATOM     27  C   UNL     1       2.429  -5.929 -10.504  0.00  0.00    +0.019 A 
ATOM     28  C   UNL     1       3.495  -6.027 -11.372  0.00  0.00    +0.008 A 
ATOM     29  C   UNL     1       4.488  -5.104 -11.307  0.00  0.00    +0.046 A 
ATOM     30  S   UNL     1       3.924  -4.040  -9.989  0.00  0.00    -0.093 S 
ENDBRANCH  24  26
ENDBRANCH  19  20
ENDBRANCH   3  19
TORSDOF 8
