REMARK  Name = ZINC06193199
REMARK  15 active torsions:
REMARK  status: ('A' for Active; 'I' for Inactive)
REMARK    1  A    between atoms: C_1  and  C_2
REMARK    2  A    between atoms: C_2  and  N_69
REMARK    3  A    between atoms: C_3  and  C_4
REMARK    4  A    between atoms: C_3  and  N_69
REMARK    5  A    between atoms: C_5  and  C_6
REMARK    6  A    between atoms: C_5  and  N_69
REMARK    7  A    between atoms: C_6  and  C_7
REMARK    8  A    between atoms: C_7  and  N_8
REMARK    9  A    between atoms: N_8  and  C_9
REMARK   10  A    between atoms: C_9  and  N_11
REMARK   11  A    between atoms: N_11  and  C_12
REMARK   12  A    between atoms: N_11  and  C_22
REMARK   13  A    between atoms: C_12  and  C_13
REMARK   14  A    between atoms: C_22  and  C_23
REMARK   15  A    between atoms: C_27  and  C_35
REMARK                            x       y       z     vdW  Elec       q    Type
REMARK                         _______ _______ _______ _____ _____    ______ ____
ROOT
ATOM      1  N   UNL     1      -2.948   0.701   1.399  0.00  0.00    -0.304 N 
ENDROOT
BRANCH   1   2
ATOM      2  C   UNL     1      -2.522  -0.412   2.030  0.00  0.00    +0.133 C 
ATOM      3  S   UNL     1      -2.978  -0.702   3.655  0.00  0.00    -0.019 S 
BRANCH   2   4
ATOM      4  N   UNL     1      -1.737  -1.296   1.383  0.00  0.00    -0.326 N 
ATOM      5  H   UNL     1      -1.479  -1.131   0.462  0.00  0.00    +0.148 HD
BRANCH   4   6
ATOM      6  C   UNL     1      -1.275  -2.505   2.068  0.00  0.00    +0.101 C 
BRANCH   6   7
ATOM      7  C   UNL     1      -0.407  -3.330   1.117  0.00  0.00    +0.000 C 
BRANCH   7   8
ATOM      8  C   UNL     1       0.076  -4.593   1.833  0.00  0.00    -0.077 C 
BRANCH   8   9
ATOM      9  N   UNL     1       0.792  -5.445   0.860  0.00  0.00    +0.379 N 
ATOM     10  H   UNL     1       0.273  -5.448  -0.026  0.00  0.00    -0.082 HD
BRANCH   9  12
ATOM     11  C   UNL     1       2.780  -5.670  -0.546  0.00  0.00    -0.017 C 
ATOM     12  C   UNL     1       2.148  -4.909   0.620  0.00  0.00    -0.082 C 
ENDBRANCH   9  12
BRANCH   9  13
ATOM     13  C   UNL     1       0.879  -6.830   1.369  0.00  0.00    -0.082 C 
ATOM     14  C   UNL     1      -0.477  -7.511   1.173  0.00  0.00    -0.017 C 
ENDBRANCH   9  13
ENDBRANCH   8   9
ENDBRANCH   7   8
ENDBRANCH   6   7
ENDBRANCH   4   6
ENDBRANCH   2   4
ENDBRANCH   1   2
BRANCH   1  15
ATOM     15  C   UNL     1      -2.557   0.949   0.009  0.00  0.00    +0.142 C 
BRANCH  15  16
ATOM     16  C   UNL     1      -1.269   1.730  -0.019  0.00  0.00    -0.026 A 
ATOM     17  C   UNL     1      -0.058   1.063  -0.040  0.00  0.00    +0.009 A 
ATOM     18  C   UNL     1       1.126   1.776  -0.071  0.00  0.00    +0.050 A 
ATOM     19  C   UNL     1       1.102   3.161  -0.076  0.00  0.00    +0.166 A 
ATOM     20  C   UNL     1      -0.117   3.833  -0.049  0.00  0.00    +0.167 A 
ATOM     21  C   UNL     1      -1.300   3.112  -0.017  0.00  0.00    +0.054 A 
ATOM     22  O   UNL     1       0.124   5.176  -0.061  0.00  0.00    -0.453 OA
ATOM     23  C   UNL     1       1.486   5.318  -0.507  0.00  0.00    +0.466 C 
ATOM     24  O   UNL     1       2.108   4.084  -0.105  0.00  0.00    -0.453 OA
ENDBRANCH  15  16
ENDBRANCH   1  15
BRANCH   1  25
ATOM     25  C   UNL     1      -3.801   1.661   2.103  0.00  0.00    +0.147 C 
BRANCH  25  26
ATOM     26  C   UNL     1      -5.248   1.294   1.896  0.00  0.00    +0.035 A 
ATOM     27  C   UNL     1      -5.891   0.537   2.818  0.00  0.00    +0.020 A 
ATOM     28  C   UNL     1      -7.297   0.198   2.587  0.00  0.00    -0.001 A 
ATOM     29  C   UNL     1      -8.014  -0.579   3.503  0.00  0.00    +0.013 A 
ATOM     30  C   UNL     1      -9.324  -0.877   3.259  0.00  0.00    -0.050 A 
ATOM     31  C   UNL     1      -9.951  -0.416   2.109  0.00  0.00    +0.005 A 
ATOM     32  C   UNL     1      -9.264   0.352   1.193  0.00  0.00    +0.026 A 
ATOM     33  C   UNL     1      -7.929   0.668   1.421  0.00  0.00    +0.049 A 
ATOM     34  N   UNL     1      -7.218   1.434   0.522  0.00  0.00    -0.322 N 
ATOM     35  H   UNL     1      -7.668   1.764  -0.308  0.00  0.00    +0.169 HD
ATOM     36  C   UNL     1      -5.929   1.745   0.745  0.00  0.00    +0.254 A 
ATOM     37  O   UNL     1      -5.333   2.429  -0.069  0.00  0.00    -0.268 OA
ATOM     38  C   UNL     1     -10.096  -1.715   4.245  0.00  0.00    +0.044 C 
ENDBRANCH  25  26
ENDBRANCH   1  25
TORSDOF 12
