REMARK  Name = ZINC50206287
REMARK  4 active torsions:
REMARK  status: ('A' for Active; 'I' for Inactive)
REMARK    1  A    between atoms: C_6  and  C_7
REMARK    2  A    between atoms: C_9  and  C_10
REMARK    3  A    between atoms: C_9  and  C_12
REMARK    4  A    between atoms: N_14  and  C_15
REMARK                            x       y       z     vdW  Elec       q    Type
REMARK                         _______ _______ _______ _____ _____    ______ ____
ROOT
ATOM      1  C   UNL     1      -1.261  -0.761   0.010  0.00  0.00    +0.208 C 
ATOM      2  O   UNL     1      -1.243  -2.105  -0.109  0.00  0.00    -0.286 OA
ATOM      3  C   UNL     1      -2.471  -0.091   0.131  0.00  0.00    +0.160 C 
ENDROOT
BRANCH   1   9
ATOM      4  C   UNL     1       0.239   0.965   0.992  0.00  0.00    +0.012 A 
ATOM      5  C   UNL     1       1.425   1.670   0.989  0.00  0.00    +0.007 A 
ATOM      6  C   UNL     1       2.378   1.419   0.021  0.00  0.00    -0.017 A 
ATOM      7  C   UNL     1       2.151   0.457  -0.954  0.00  0.00    -0.016 A 
ATOM      8  C   UNL     1       0.973  -0.254  -0.964  0.00  0.00    +0.018 A 
ATOM      9  C   UNL     1       0.003  -0.005   0.013  0.00  0.00    +0.023 A 
ATOM     10  C   UNL     1       3.370   0.427  -1.847  0.00  0.00    +0.195 C 
ATOM     11  O   UNL     1       4.071   1.660  -1.601  0.00  0.00    -0.371 OA
ATOM     12  C   UNL     1       3.745   2.009  -0.243  0.00  0.00    +0.195 C 
ENDBRANCH   1   9
BRANCH   3  13
ATOM     13  C   UNL     1      -3.721  -0.850   0.249  0.00  0.00    +0.258 C 
ATOM     14  O   UNL     1      -3.697  -2.067   0.242  0.00  0.00    -0.269 OA
ATOM     15  N   UNL     1      -4.896  -0.200   0.366  0.00  0.00    -0.308 N 
ATOM     16  H   UNL     1      -4.915   0.770   0.372  0.00  0.00    +0.149 HD
BRANCH  15  17
ATOM     17  C   UNL     1      -6.144  -0.958   0.485  0.00  0.00    +0.073 C 
ATOM     18  C   UNL     1      -6.706  -1.273  -0.917  0.00  0.00    +0.022 C 
ATOM     19  C   UNL     1      -8.241  -1.146  -0.748  0.00  0.00    +0.002 C 
ATOM     20  C   UNL     1      -8.380   0.058   0.216  0.00  0.00    +0.002 C 
ATOM     21  C   UNL     1      -7.208  -0.112   1.205  0.00  0.00    +0.022 C 
ENDBRANCH  15  17
ENDBRANCH   3  13
BRANCH   3  22
ATOM     22  C   UNL     1      -2.499   1.340   0.139  0.00  0.00    +0.108 C 
ATOM     23  N   UNL     1      -2.522   2.476   0.145  0.00  0.00    -0.191 NA
ENDBRANCH   3  22
TORSDOF 4
