REMARK  Name = ZINC33515438
REMARK  10 active torsions:
REMARK  status: ('A' for Active; 'I' for Inactive)
REMARK    1  A    between atoms: C_1  and  C_2
REMARK    2  A    between atoms: C_2  and  N_3
REMARK    3  A    between atoms: N_3  and  C_4
REMARK    4  A    between atoms: N_3  and  C_6
REMARK    5  A    between atoms: C_4  and  C_5
REMARK    6  A    between atoms: C_6  and  C_7
REMARK    7  A    between atoms: C_7  and  N_8
REMARK    8  A    between atoms: C_9  and  C_27
REMARK    9  A    between atoms: C_11  and  C_12
REMARK   10  A    between atoms: C_12  and  C_13
REMARK                            x       y       z     vdW  Elec       q    Type
REMARK                         _______ _______ _______ _____ _____    ______ ____
ROOT
ATOM      1  N   UNL     1      -3.151  -2.363   0.309  0.00  0.00    -0.285 N 
ATOM      2  C   UNL     1      -1.786  -1.854   0.149  0.00  0.00    +0.145 C 
ATOM      3  C   UNL     1      -1.892  -0.349   0.075  0.00  0.00    +0.076 C 
ATOM      4  C   UNL     1      -3.256  -0.047   0.195  0.00  0.00    +0.249 C 
ATOM      5  O   UNL     1      -3.745   1.069   0.183  0.00  0.00    -0.282 OA
ATOM      6  C   UNL     1      -4.004  -1.325   0.340  0.00  0.00    +0.288 C 
ATOM      7  O   UNL     1      -5.208  -1.417   0.463  0.00  0.00    -0.266 OA
ENDROOT
BRANCH   2   8
ATOM      8  C   UNL     1      -0.944  -2.255   1.333  0.00  0.00    -0.022 A 
ATOM      9  C   UNL     1      -1.487  -2.239   2.604  0.00  0.00    +0.008 A 
ATOM     10  C   UNL     1      -0.717  -2.610   3.690  0.00  0.00    +0.038 A 
ATOM     11  C   UNL     1       0.602  -2.989   3.505  0.00  0.00    +0.123 A 
ATOM     12  C   UNL     1       1.146  -3.001   2.232  0.00  0.00    +0.038 A 
ATOM     13  C   UNL     1       0.373  -2.633   1.147  0.00  0.00    +0.008 A 
ATOM     14  F   UNL     1       1.357  -3.349   4.566  0.00  0.00    -0.205 F 
ENDBRANCH   2   8
BRANCH   3  15
ATOM     15  C   UNL     1      -0.854   0.550  -0.080  0.00  0.00    +0.195 C 
ATOM     16  O   UNL     1       0.420   0.105  -0.139  0.00  0.00    -0.287 OA
BRANCH  15  17
ATOM     17  C   UNL     1      -1.136   1.990  -0.180  0.00  0.00    +0.026 A 
ATOM     18  C   UNL     1      -2.019   2.466  -1.156  0.00  0.00    +0.015 A 
ATOM     19  C   UNL     1      -2.285   3.814  -1.245  0.00  0.00    +0.050 A 
ATOM     20  C   UNL     1      -1.672   4.707  -0.374  0.00  0.00    +0.166 A 
ATOM     21  C   UNL     1      -0.785   4.240   0.598  0.00  0.00    +0.167 A 
ATOM     22  C   UNL     1      -0.517   2.889   0.696  0.00  0.00    +0.061 A 
ATOM     23  O   UNL     1      -0.325   5.306   1.315  0.00  0.00    -0.453 OA
ATOM     24  C   UNL     1      -1.247   6.378   1.043  0.00  0.00    +0.466 C 
ATOM     25  O   UNL     1      -1.764   6.062  -0.263  0.00  0.00    -0.453 OA
ENDBRANCH  15  17
ENDBRANCH   3  15
BRANCH   1  26
ATOM     26  C   UNL     1      -3.525  -3.775   0.424  0.00  0.00    +0.090 C 
BRANCH  26  27
ATOM     27  C   UNL     1      -3.517  -4.187   1.897  0.00  0.00    -0.060 C 
BRANCH  27  28
ATOM     28  N   UNL     1      -4.030  -5.558   2.026  0.00  0.00    +0.380 N 
ATOM     29  H   UNL     1      -4.951  -5.631   1.429  0.00  0.00    -0.082 HD
BRANCH  28  31
ATOM     30  C   UNL     1      -3.729  -7.909   1.413  0.00  0.00    -0.017 C 
ATOM     31  C   UNL     1      -3.069  -6.532   1.493  0.00  0.00    -0.082 C 
ENDBRANCH  28  31
BRANCH  28  32
ATOM     32  C   UNL     1      -4.371  -5.863   3.421  0.00  0.00    -0.082 C 
ATOM     33  C   UNL     1      -5.687  -5.174   3.788  0.00  0.00    -0.017 C 
ENDBRANCH  28  32
ENDBRANCH  27  28
ENDBRANCH  26  27
ENDBRANCH   1  26
TORSDOF 8
