REMARK  Name = ZINC02882332
REMARK  3 active torsions:
REMARK  status: ('A' for Active; 'I' for Inactive)
REMARK    1  A    between atoms: C_1  and  C_2
REMARK    2  A    between atoms: C_2  and  C_29
REMARK    3  A    between atoms: N_15  and  N_16
REMARK                            x       y       z     vdW  Elec       q    Type
REMARK                         _______ _______ _______ _____ _____    ______ ____
ROOT
ATOM      1  C   UNL     1       0.002  -0.004   0.002  0.00  0.00    +0.041 C 
ATOM      2  C   UNL     1      -0.019   1.526   0.010  0.00  0.00    +0.068 C 
ATOM      3  C   UNL     1      -0.754   2.030  -1.234  0.00  0.00    +0.071 C 
ATOM      4  C   UNL     1      -0.963   3.536  -1.086  0.00  0.00    -0.018 A 
ATOM      5  C   UNL     1      -0.851   4.104   0.139  0.00  0.00    +0.021 A 
ATOM      6  S   UNL     1      -1.159   5.830  -0.120  0.00  0.00    -0.071 S 
ATOM      7  C   UNL     1      -1.439   5.788  -1.863  0.00  0.00    +0.118 A 
ATOM      8  C   UNL     1      -1.281   4.421  -2.190  0.00  0.00    +0.076 A 
ATOM      9  C   UNL     1      -1.452   4.055  -3.565  0.00  0.00    +0.261 A 
ATOM     10  O   UNL     1      -1.336   2.903  -3.947  0.00  0.00    -0.267 OA
ATOM     11  N   UNL     1      -1.748   5.067  -4.414  0.00  0.00    -0.293 N 
ATOM     12  H   UNL     1      -1.876   4.855  -5.383  0.00  0.00    +0.172 HD
ATOM     13  C   UNL     1      -1.881   6.359  -4.010  0.00  0.00    +0.214 A 
ATOM     14  N   UNL     1      -1.731   6.734  -2.748  0.00  0.00    -0.207 NA
ATOM     15  N   UNL     1      -2.183   7.315  -4.948  0.00  0.00    -0.224 N 
ATOM     16  C   UNL     1      -0.533   3.395   1.418  0.00  0.00    +0.203 C 
ATOM     17  O   UNL     1      -0.683   1.984   1.191  0.00  0.00    -0.368 OA
ATOM     18  C   UNL     1       1.418   2.053  -0.001  0.00  0.00    +0.041 C 
ATOM     19  H   UNL     1      -2.297   7.062  -5.878  0.00  0.00    +0.174 HD
ENDROOT
BRANCH  15  20
ATOM     20  N   UNL     1      -2.326   8.654  -4.563  0.00  0.00    -0.147 N 
ATOM     21  C   UNL     1      -3.395   9.150  -3.914  0.00  0.00    +0.271 C 
ATOM     22  O   UNL     1      -4.374   8.517  -3.575  0.00  0.00    -0.268 OA
ATOM     23  C   UNL     1      -3.177  10.593  -3.682  0.00  0.00    +0.051 A 
ATOM     24  C   UNL     1      -3.915  11.598  -3.076  0.00  0.00    +0.014 A 
ATOM     25  C   UNL     1      -3.411  12.888  -3.030  0.00  0.00    +0.001 A 
ATOM     26  C   UNL     1      -2.178  13.179  -3.584  0.00  0.00    +0.001 A 
ATOM     27  C   UNL     1      -1.429  12.184  -4.193  0.00  0.00    +0.014 A 
ATOM     28  C   UNL     1      -1.920  10.889  -4.246  0.00  0.00    +0.051 A 
ATOM     29  C   UNL     1      -1.415   9.615  -4.799  0.00  0.00    +0.271 C 
ATOM     30  O   UNL     1      -0.353   9.461  -5.369  0.00  0.00    -0.268 OA
ENDBRANCH  15  20
TORSDOF 1
