REMARK  Name = ZINC01325144
REMARK  13 active torsions:
REMARK  status: ('A' for Active; 'I' for Inactive)
REMARK    1  A    between atoms: C_1  and  C_2
REMARK    2  A    between atoms: C_2  and  C_3
REMARK    3  A    between atoms: C_3  and  C_5
REMARK    4  A    between atoms: C_3  and  N_15
REMARK    5  A    between atoms: N_9  and  C_10
REMARK    6  A    between atoms: C_10  and  C_11
REMARK    7  A    between atoms: C_10  and  C_12
REMARK    8  A    between atoms: C_10  and  C_13
REMARK    9  A    between atoms: C_13  and  C_14
REMARK   10  A    between atoms: N_15  and  C_16
REMARK   11  A    between atoms: N_15  and  C_26
REMARK   12  A    between atoms: C_16  and  C_17
REMARK   13  A    between atoms: C_26  and  C_27
REMARK                            x       y       z     vdW  Elec       q    Type
REMARK                         _______ _______ _______ _____ _____    ______ ____
ROOT
ATOM      1  N   UNL     1       2.210   0.440  -1.623  0.00  0.00    -0.284 NA
ENDROOT
BRANCH   1   2
ATOM      2  C   UNL     1       0.889   0.138  -1.054  0.00  0.00    +0.127 C 
BRANCH   2   3
ATOM      3  C   UNL     1      -0.134   1.079  -1.636  0.00  0.00    +0.169 A 
ATOM      4  N   UNL     1      -0.194   1.501  -2.875  0.00  0.00    -0.112 NA
ATOM      5  N   UNL     1      -1.209   2.288  -2.979  0.00  0.00    -0.023 NA
ATOM      6  N   UNL     1      -1.798   2.379  -1.838  0.00  0.00    -0.043 NA
ATOM      7  N   UNL     1      -1.169   1.643  -0.985  0.00  0.00    -0.222 N 
BRANCH   7   8
ATOM      8  C   UNL     1      -1.513   1.459   0.427  0.00  0.00    +0.061 C 
ATOM      9  C   UNL     1      -1.613  -0.036   0.737  0.00  0.00    +0.036 C 
ATOM     10  C   UNL     1      -0.428   2.090   1.302  0.00  0.00    +0.036 C 
BRANCH   8  11
ATOM     11  C   UNL     1      -2.857   2.131   0.716  0.00  0.00    +0.026 C 
ATOM     12  C   UNL     1      -3.216   1.940   2.190  0.00  0.00    +0.006 C 
ENDBRANCH   8  11
ENDBRANCH   7   8
ENDBRANCH   2   3
BRANCH   2  14
ATOM     13  C   UNL     1       1.502  -2.263  -0.734  0.00  0.00    +0.006 C 
ATOM     14  C   UNL     1       0.506  -1.304  -1.391  0.00  0.00    +0.023 C 
ENDBRANCH   2  14
ENDBRANCH   1   2
BRANCH   1  15
ATOM     15  C   UNL     1       2.424  -0.296  -2.876  0.00  0.00    +0.120 C 
BRANCH  15  16
ATOM     16  C   UNL     1       1.625   0.350  -3.980  0.00  0.00    -0.030 A 
ATOM     17  C   UNL     1       0.572  -0.333  -4.559  0.00  0.00    +0.009 A 
ATOM     18  C   UNL     1      -0.163   0.256  -5.571  0.00  0.00    +0.050 A 
ATOM     19  C   UNL     1       0.155   1.532  -6.008  0.00  0.00    +0.166 A 
ATOM     20  C   UNL     1       1.216   2.219  -5.424  0.00  0.00    +0.167 A 
ATOM     21  C   UNL     1       1.945   1.625  -4.406  0.00  0.00    +0.054 A 
ATOM     22  O   UNL     1       1.326   3.441  -6.022  0.00  0.00    -0.453 OA
ATOM     23  C   UNL     1       0.584   3.336  -7.252  0.00  0.00    +0.466 C 
ATOM     24  O   UNL     1      -0.401   2.323  -6.971  0.00  0.00    -0.453 OA
ENDBRANCH  15  16
ENDBRANCH   1  15
BRANCH   1  25
ATOM     25  C   UNL     1       3.278   0.152  -0.655  0.00  0.00    +0.126 C 
BRANCH  25  26
ATOM     26  C   UNL     1       3.277   1.207   0.421  0.00  0.00    +0.031 A 
ATOM     27  C   UNL     1       2.658   0.965   1.604  0.00  0.00    +0.020 A 
ATOM     28  C   UNL     1       2.675   2.008   2.629  0.00  0.00    +0.003 A 
ATOM     29  C   UNL     1       2.052   1.815   3.867  0.00  0.00    +0.059 A 
ATOM     30  C   UNL     1       2.086   2.816   4.815  0.00  0.00    +0.163 A 
ATOM     31  C   UNL     1       2.741   4.021   4.543  0.00  0.00    +0.164 A 
ATOM     32  C   UNL     1       3.359   4.221   3.320  0.00  0.00    +0.075 A 
ATOM     33  C   UNL     1       3.333   3.223   2.355  0.00  0.00    +0.053 A 
ATOM     34  N   UNL     1       3.944   3.406   1.131  0.00  0.00    -0.322 N 
ATOM     35  H   UNL     1       4.396   4.243   0.942  0.00  0.00    +0.169 HD
ATOM     36  C   UNL     1       3.925   2.438   0.197  0.00  0.00    +0.254 A 
ATOM     37  O   UNL     1       4.480   2.633  -0.871  0.00  0.00    -0.268 OA
ATOM     38  O   UNL     1       2.787   5.011   5.475  0.00  0.00    -0.485 OA
ATOM     39  C   UNL     1       1.843   4.929   6.548  0.00  0.00    +0.270 C 
ATOM     40  C   UNL     1       1.845   3.490   7.083  0.00  0.00    +0.270 C 
ATOM     41  O   UNL     1       1.472   2.614   6.014  0.00  0.00    -0.485 OA
ENDBRANCH  25  26
ENDBRANCH   1  25
TORSDOF 9
