REMARK  Name = ZINC63746603
REMARK  6 active torsions:
REMARK  status: ('A' for Active; 'I' for Inactive)
REMARK    1  A    between atoms: C_1  and  C_2
REMARK    2  A    between atoms: C_7  and  N_8
REMARK    3  A    between atoms: N_11  and  C_12
REMARK    4  A    between atoms: C_14  and  C_36
REMARK    5  A    between atoms: C_17  and  C_30
REMARK    6  A    between atoms: C_18  and  C_22
REMARK                            x       y       z     vdW  Elec       q    Type
REMARK                         _______ _______ _______ _____ _____    ______ ____
ROOT
ATOM      1  C   UNL     1      -0.114  -0.818   5.903  0.00  0.00    +0.059 A 
ATOM      2  C   UNL     1      -0.094  -2.178   5.912  0.00  0.00    +0.028 A 
ATOM      3  C   UNL     1      -0.079  -2.906   7.106  0.00  0.00    -0.048 A 
ATOM      4  C   UNL     1      -0.084  -2.310   8.320  0.00  0.00    +0.013 A 
ATOM      5  C   UNL     1      -0.105  -0.897   8.423  0.00  0.00    +0.006 A 
ATOM      6  C   UNL     1      -0.115  -0.037   9.507  0.00  0.00    -0.000 C 
ATOM      7  C   UNL     1      -0.137   1.358   8.922  0.00  0.00    +0.198 C 
ATOM      8  N   UNL     1      -0.139   1.185   7.465  0.00  0.00    -0.368 N 
ATOM      9  C   UNL     1      -0.115  -0.096   7.184  0.00  0.00    +0.065 A 
ATOM     10  C   UNL     1      -0.058  -4.412   7.037  0.00  0.00    +0.044 C 
ATOM     11  H   UNL     1      -0.152   1.904   6.814  0.00  0.00    +0.161 HD
ENDROOT
BRANCH   7  12
ATOM     12  C   UNL     1      -1.382   2.085   9.361  0.00  0.00    +0.243 C 
ATOM     13  O   UNL     1      -2.364   2.091   8.650  0.00  0.00    -0.273 OA
ATOM     14  N   UNL     1      -1.404   2.729  10.545  0.00  0.00    -0.295 N 
ATOM     15  C   UNL     1      -0.191   2.836  11.372  0.00  0.00    +0.136 C 
ATOM     16  C   UNL     1       0.001   4.306  11.761  0.00  0.00    +0.179 C 
ATOM     17  O   UNL     1      -1.208   4.801  12.341  0.00  0.00    -0.377 OA
ATOM     18  C   UNL     1      -2.330   4.792  11.454  0.00  0.00    +0.179 C 
ATOM     19  C   UNL     1      -2.639   3.351  11.046  0.00  0.00    +0.136 C 
ENDBRANCH   7  12
BRANCH   1  23
ATOM     20  N   UNL     1       0.602   0.120   2.489  0.00  0.00    -0.269 N 
ATOM     21  C   UNL     1       0.540  -0.599   3.627  0.00  0.00    +0.308 C 
ATOM     22  O   UNL     1       1.089  -1.683   3.692  0.00  0.00    -0.252 OA
ATOM     23  N   UNL     1      -0.129  -0.117   4.693  0.00  0.00    -0.267 N 
ATOM     24  H   UNL     1       0.221   1.012   2.457  0.00  0.00    +0.156 HD
ATOM     25  H   UNL     1      -0.621   0.716   4.621  0.00  0.00    +0.156 HD
BRANCH  20  32
ATOM     26  C   UNL     1      -0.482   0.772  -0.060  0.00  0.00    +0.045 C 
ATOM     27  C   UNL     1       0.718  -0.128   0.089  0.00  0.00    -0.029 A 
ATOM     28  C   UNL     1       1.328  -0.658  -1.031  0.00  0.00    +0.005 A 
ATOM     29  C   UNL     1       2.429  -1.483  -0.894  0.00  0.00    +0.000 A 
ATOM     30  C   UNL     1       2.923  -1.780   0.363  0.00  0.00    +0.002 A 
ATOM     31  C   UNL     1       2.317  -1.254   1.486  0.00  0.00    +0.023 A 
ATOM     32  C   UNL     1       1.214  -0.420   1.353  0.00  0.00    +0.038 A 
ENDBRANCH  20  32
ENDBRANCH   1  23
BRANCH   6  33
ATOM     33  C   UNL     1      -0.105  -0.401  10.926  0.00  0.00    -0.019 A 
ATOM     34  C   UNL     1      -1.306  -0.702  11.585  0.00  0.00    +0.008 A 
ATOM     35  C   UNL     1      -1.287  -1.044  12.919  0.00  0.00    +0.001 A 
ATOM     36  C   UNL     1      -0.087  -1.091  13.610  0.00  0.00    +0.000 A 
ATOM     37  C   UNL     1       1.103  -0.794  12.967  0.00  0.00    +0.001 A 
ATOM     38  C   UNL     1       1.105  -0.456  11.632  0.00  0.00    +0.008 A 
ENDBRANCH   6  33
TORSDOF 4
