REMARK  Name = ZINC26342827
REMARK  5 active torsions:
REMARK  status: ('A' for Active; 'I' for Inactive)
REMARK    1  A    between atoms: C_1  and  C_2
REMARK    2  A    between atoms: C_2  and  C_3
REMARK    3  A    between atoms: C_2  and  N_4
REMARK    4  A    between atoms: C_8  and  C_10
REMARK    5  A    between atoms: C_10  and  N_11
REMARK                            x       y       z     vdW  Elec       q    Type
REMARK                         _______ _______ _______ _____ _____    ______ ____
ROOT
ATOM      1  C   UNL     1      -2.241   1.245   0.789  0.00  0.00    +0.201 C 
ENDROOT
BRANCH   1   2
ATOM      2  N   UNL     1      -1.414   2.233   0.083  0.00  0.00    -0.321 N 
ATOM      3  C   UNL     1      -1.568   3.564   0.673  0.00  0.00    +0.106 C 
ATOM      4  C   UNL     1      -0.665   4.545  -0.086  0.00  0.00    +0.024 C 
ATOM      5  C   UNL     1       0.789   4.180   0.221  0.00  0.00    +0.038 C 
ATOM      6  C   UNL     1       0.984   2.693   0.063  0.00  0.00    -0.023 A 
ATOM      7  C   UNL     1      -0.084   1.814   0.015  0.00  0.00    +0.036 A 
ATOM      8  C   UNL     1       0.158   0.446  -0.116  0.00  0.00    +0.064 A 
ATOM      9  C   UNL     1       1.451  -0.030  -0.202  0.00  0.00    +0.160 A 
ATOM     10  C   UNL     1       2.517   0.855  -0.159  0.00  0.00    +0.159 A 
ATOM     11  C   UNL     1       2.281   2.210  -0.027  0.00  0.00    +0.046 A 
ATOM     12  F   UNL     1       3.784   0.394  -0.246  0.00  0.00    -0.202 F 
ATOM     13  F   UNL     1       1.676  -1.356  -0.330  0.00  0.00    -0.202 F 
ENDBRANCH   1   2
BRANCH   1  18
ATOM     14  N   UNL     1      -2.740  -0.493   5.243  0.00  0.00    -0.297 N 
ATOM     15  C   UNL     1      -2.049   0.265   4.369  0.00  0.00    +0.306 C 
ATOM     16  O   UNL     1      -1.050   0.854   4.732  0.00  0.00    -0.252 OA
ATOM     17  N   UNL     1      -2.466   0.370   3.091  0.00  0.00    -0.239 N 
ATOM     18  C   UNL     1      -1.775   1.128   2.217  0.00  0.00    +0.238 C 
ATOM     19  O   UNL     1      -0.778   1.715   2.579  0.00  0.00    -0.274 OA
ATOM     20  H   UNL     1      -3.644  -1.026   4.914  0.00  0.00    +0.151 HD
ATOM     21  H   UNL     1      -3.370  -0.163   2.762  0.00  0.00    +0.159 HD
BRANCH  14  23
ATOM     22  C   UNL     1      -3.477  -0.953   7.529  0.00  0.00    +0.027 C 
ATOM     23  C   UNL     1      -2.287  -0.607   6.631  0.00  0.00    +0.068 C 
ATOM     24  C   UNL     1      -1.232  -1.710   6.735  0.00  0.00    +0.027 C 
ENDBRANCH  14  23
ENDBRANCH   1  18
TORSDOF 3
