REMARK  Name = ZINC13284559
REMARK  10 active torsions:
REMARK  status: ('A' for Active; 'I' for Inactive)
REMARK    1  A    between atoms: C_1  and  C_2
REMARK    2  A    between atoms: C_2  and  C_3
REMARK    3  A    between atoms: C_3  and  C_4
REMARK    4  A    between atoms: C_4  and  S_5
REMARK    5  A    between atoms: S_5  and  C_6
REMARK    6  A    between atoms: C_7  and  C_27
REMARK    7  A    between atoms: C_8  and  C_18
REMARK    8  A    between atoms: C_21  and  O_26
REMARK    9  A    between atoms: C_22  and  O_24
REMARK   10  A    between atoms: O_24  and  C_25
REMARK                            x       y       z     vdW  Elec       q    Type
REMARK                         _______ _______ _______ _____ _____    ______ ____
ROOT
ATOM      1  C   UNL     1       1.529  -4.368  -2.621  0.00  0.00    +0.111 C 
ATOM      2  C   UNL     1       2.107  -5.135  -3.618  0.00  0.00    +0.073 C 
ATOM      3  C   UNL     1       2.036  -6.644  -3.464  0.00  0.00    +0.097 C 
ATOM      4  C   UNL     1       1.332  -7.149  -2.218  0.00  0.00    +0.029 C 
ATOM      5  C   UNL     1       1.224  -8.469  -1.997  0.00  0.00    +0.162 C 
ATOM      6  C   UNL     1       0.531  -9.003  -0.772  0.00  0.00    +0.080 C 
ATOM      7  C   UNL     1       0.679  -7.996   0.372  0.00  0.00    +0.014 C 
ATOM      8  C   UNL     1       0.099  -6.651  -0.074  0.00  0.00    +0.056 C 
ATOM      9  C   UNL     1       0.810  -6.194  -1.326  0.00  0.00    +0.050 C 
ATOM     10  N   UNL     1       0.934  -4.911  -1.557  0.00  0.00    -0.244 NA
ATOM     11  O   UNL     1       1.747  -9.333  -2.890  0.00  0.00    -0.292 OA
ENDROOT
BRANCH   3  12
ATOM     12  C   UNL     1       1.321  -7.207  -4.665  0.00  0.00    -0.031 A 
ATOM     13  C   UNL     1       0.025  -6.814  -4.943  0.00  0.00    +0.008 A 
ATOM     14  C   UNL     1      -0.635  -7.327  -6.044  0.00  0.00    +0.049 A 
ATOM     15  C   UNL     1       0.002  -8.238  -6.871  0.00  0.00    +0.158 A 
ATOM     16  C   UNL     1       1.307  -8.634  -6.591  0.00  0.00    +0.162 A 
ATOM     17  C   UNL     1       1.964  -8.111  -5.489  0.00  0.00    +0.054 A 
BRANCH  16  18
ATOM     18  O   UNL     1       1.936  -9.527  -7.400  0.00  0.00    -0.491 OA
ATOM     19  C   UNL     1       3.275  -9.887  -7.052  0.00  0.00    +0.277 C 
ENDBRANCH  16  18
BRANCH  15  20
ATOM     20  O   UNL     1      -0.646  -8.745  -7.954  0.00  0.00    -0.503 OA
ATOM     21  H   UNL     1      -0.526  -8.227  -8.762  0.00  0.00    +0.292 HD
ENDBRANCH  15  20
ENDBRANCH   3  12
BRANCH   2  22
ATOM     22  C   UNL     1       2.745  -4.531  -4.749  0.00  0.00    +0.098 C 
ATOM     23  N   UNL     1       3.251  -4.051  -5.646  0.00  0.00    -0.191 NA
ENDBRANCH   2  22
BRANCH   1  24
ATOM     24  S   UNL     1       1.588  -2.612  -2.758  0.00  0.00    -0.105 S 
BRANCH  24  25
ATOM     25  C   UNL     1       0.739  -2.027  -1.265  0.00  0.00    +0.076 C 
BRANCH  25  26
ATOM     26  C   UNL     1       0.718  -0.497  -1.257  0.00  0.00    +0.011 C 
BRANCH  26  28
ATOM     27  C   UNL     1      -0.019   1.526   0.010  0.00  0.00    +0.004 C 
ATOM     28  C   UNL     1       0.002  -0.004   0.002  0.00  0.00    -0.003 C 
ENDBRANCH  26  28
ENDBRANCH  25  26
ENDBRANCH  24  25
ENDBRANCH   1  24
TORSDOF 8
