REMARK  Name = ZINC06162687
REMARK  8 active torsions:
REMARK  status: ('A' for Active; 'I' for Inactive)
REMARK    1  A    between atoms: C_1  and  C_2
REMARK    2  A    between atoms: C_8  and  C_9
REMARK    3  A    between atoms: C_8  and  N_56
REMARK    4  A    between atoms: C_10  and  O_32
REMARK    5  A    between atoms: C_16  and  C_28
REMARK    6  A    between atoms: C_17  and  C_20
REMARK    7  A    between atoms: C_25  and  O_26
REMARK    8  A    between atoms: O_26  and  C_27
REMARK                            x       y       z     vdW  Elec       q    Type
REMARK                         _______ _______ _______ _____ _____    ______ ____
ROOT
ATOM      1  C   UNL     1      -6.161   2.026  -0.151  0.00  0.00    +0.020 A 
ATOM      2  C   UNL     1      -6.835   2.399   1.000  0.00  0.00    +0.122 A 
ATOM      3  C   UNL     1      -6.309   2.106   2.256  0.00  0.00    +0.046 A 
ATOM      4  C   UNL     1      -5.119   1.447   2.369  0.00  0.00    +0.019 A 
ATOM      5  C   UNL     1      -4.427   1.065   1.219  0.00  0.00    +0.065 A 
ATOM      6  C   UNL     1      -4.949   1.355  -0.054  0.00  0.00    +0.144 A 
ATOM      7  O   UNL     1      -4.280   0.985  -1.164  0.00  0.00    -0.450 OA
ATOM      8  C   UNL     1      -3.109   0.343  -1.134  0.00  0.00    +0.220 A 
ATOM      9  C   UNL     1      -2.495  -0.004   0.026  0.00  0.00    +0.080 A 
ATOM     10  C   UNL     1      -3.140   0.352   1.302  0.00  0.00    +0.201 A 
ATOM     11  O   UNL     1      -2.633   0.071   2.374  0.00  0.00    -0.286 OA
ENDROOT
BRANCH   9  12
ATOM     12  C   UNL     1      -1.198  -0.722   0.010  0.00  0.00    +0.031 A 
ATOM     13  C   UNL     1      -1.169  -2.115   0.002  0.00  0.00    +0.012 A 
ATOM     14  C   UNL     1       0.042  -2.778  -0.013  0.00  0.00    +0.001 A 
ATOM     15  C   UNL     1       1.227  -2.065  -0.021  0.00  0.00    +0.004 A 
ATOM     16  C   UNL     1       1.210  -0.683  -0.019  0.00  0.00    +0.046 A 
ATOM     17  C   UNL     1       0.002  -0.004   0.002  0.00  0.00    +0.128 A 
BRANCH  17  18
ATOM     18  O   UNL     1      -0.016   1.355   0.009  0.00  0.00    -0.494 OA
ATOM     19  C   UNL     1       1.248   2.021   0.001  0.00  0.00    +0.277 C 
ENDBRANCH  17  18
ENDBRANCH   9  12
BRANCH   8  20
ATOM     20  C   UNL     1      -2.447  -0.016  -2.439  0.00  0.00    +0.451 C 
ATOM     21  F   UNL     1      -2.881  -1.281  -2.850  0.00  0.00    -0.163 F 
ATOM     22  F   UNL     1      -2.787   0.931  -3.411  0.00  0.00    -0.163 F 
ATOM     23  F   UNL     1      -1.058  -0.032  -2.269  0.00  0.00    -0.163 F 
ENDBRANCH   8  20
BRANCH   2  24
ATOM     24  O   UNL     1      -8.020   3.055   0.903  0.00  0.00    -0.506 OA
ATOM     25  H   UNL     1      -8.791   2.472   0.874  0.00  0.00    +0.292 HD
ENDBRANCH   2  24
BRANCH   1  26
ATOM     26  C   UNL     1      -6.741   2.347  -1.504  0.00  0.00    -0.036 C 
BRANCH  26  33
ATOM     27  C   UNL     1      -9.953   0.787  -4.886  0.00  0.00    +0.005 C 
ATOM     28  C   UNL     1      -9.137   0.394  -3.653  0.00  0.00    -0.031 C 
ATOM     29  C   UNL     1     -10.080  -0.108  -2.555  0.00  0.00    -0.001 C 
ATOM     30  C   UNL     1      -9.261  -0.443  -1.305  0.00  0.00    -0.018 C 
ATOM     31  C   UNL     1      -8.488   0.800  -0.860  0.00  0.00    -0.078 C 
ATOM     32  C   UNL     1      -8.367   1.612  -3.140  0.00  0.00    -0.075 C 
ATOM     33  N   UNL     1      -7.582   1.218  -1.951  0.00  0.00    +0.383 N 
ATOM     34  H   UNL     1      -6.974   0.428  -2.200  0.00  0.00    -0.081 HD
ENDBRANCH  26  33
ENDBRANCH   1  26
TORSDOF 6
