REMARK  Name = ZINC39653536
REMARK  14 active torsions:
REMARK  status: ('A' for Active; 'I' for Inactive)
REMARK    1  A    between atoms: C_1  and  C_2
REMARK    2  A    between atoms: C_2  and  O_3
REMARK    3  A    between atoms: O_3  and  C_4
REMARK    4  A    between atoms: C_6  and  C_12
REMARK    5  A    between atoms: C_9  and  O_10
REMARK    6  A    between atoms: O_10  and  C_11
REMARK    7  A    between atoms: C_12  and  C_13
REMARK    8  A    between atoms: C_13  and  N_14
REMARK    9  A    between atoms: C_15  and  C_17
REMARK   10  A    between atoms: C_28  and  C_30
REMARK   11  A    between atoms: C_30  and  C_31
REMARK   12  A    between atoms: C_31  and  C_32
REMARK   13  A    between atoms: C_35  and  O_38
REMARK   14  A    between atoms: O_38  and  C_39
REMARK                            x       y       z     vdW  Elec       q    Type
REMARK                         _______ _______ _______ _____ _____    ______ ____
ROOT
ATOM      1  C   UNL     1      -4.097  -7.559   2.031  0.00  0.00    +0.100 C 
ATOM      2  C   UNL     1      -3.413  -8.943   1.952  0.00  0.00    +0.121 C 
ATOM      3  N   UNL     1      -4.502  -9.914   2.213  0.00  0.00    -0.300 N 
ATOM      4  C   UNL     1      -5.673  -9.355   1.496  0.00  0.00    +0.115 C 
ATOM      5  C   UNL     1      -5.580  -7.834   1.731  0.00  0.00    -0.004 C 
ATOM      6  C   UNL     1      -6.444  -7.429   2.921  0.00  0.00    -0.010 C 
ATOM      7  C   UNL     1      -7.918  -7.659   2.577  0.00  0.00    -0.082 C 
ATOM      8  N   UNL     1      -8.276  -6.865   1.395  0.00  0.00    +0.379 N 
ATOM      9  C   UNL     1      -7.506  -7.323   0.233  0.00  0.00    -0.082 C 
ATOM     10  C   UNL     1      -6.014  -7.080   0.477  0.00  0.00    -0.010 C 
ATOM     11  C   UNL     1      -4.441 -11.048   2.937  0.00  0.00    +0.216 C 
ATOM     12  O   UNL     1      -5.427 -11.744   3.058  0.00  0.00    -0.276 OA
ATOM     13  H   UNL     1      -9.261  -6.970   1.207  0.00  0.00    -0.086 HD
ATOM     14  H   UNL     1      -8.071  -5.893   1.570  0.00  0.00    -0.086 HD
ENDROOT
BRANCH   1  16
ATOM     15  N   UNL     1      -3.504  -5.298   1.221  0.00  0.00    -0.315 N 
ATOM     16  C   UNL     1      -3.516  -6.627   0.999  0.00  0.00    +0.218 C 
ATOM     17  O   UNL     1      -3.059  -7.074  -0.033  0.00  0.00    -0.275 OA
ATOM     18  H   UNL     1      -3.869  -4.941   2.046  0.00  0.00    +0.149 HD
BRANCH  15  19
ATOM     19  C   UNL     1      -2.940  -4.393   0.217  0.00  0.00    +0.109 C 
BRANCH  19  20
ATOM     20  C   UNL     1      -3.049  -2.949   0.714  0.00  0.00    +0.054 C 
BRANCH  20  23
ATOM     21  C   UNL     1      -2.746  -0.638  -2.259  0.00  0.00    +0.162 A 
ATOM     22  C   UNL     1      -3.279  -1.495  -1.309  0.00  0.00    +0.053 A 
ATOM     23  C   UNL     1      -2.469  -2.018  -0.319  0.00  0.00    -0.042 A 
ATOM     24  C   UNL     1      -1.127  -1.687  -0.273  0.00  0.00    +0.007 A 
ATOM     25  C   UNL     1      -0.590  -0.833  -1.217  0.00  0.00    +0.049 A 
ATOM     26  C   UNL     1      -1.395  -0.310  -2.216  0.00  0.00    +0.162 A 
BRANCH  26  27
ATOM     27  O   UNL     1      -0.867   0.526  -3.150  0.00  0.00    -0.491 OA
ATOM     28  C   UNL     1       0.528   0.818  -3.044  0.00  0.00    +0.277 C 
ENDBRANCH  26  27
BRANCH  21  29
ATOM     29  O   UNL     1      -3.542  -0.123  -3.235  0.00  0.00    -0.489 OA
BRANCH  29  31
ATOM     30  C   UNL     1      -5.650   0.169  -4.380  0.00  0.00    +0.048 C 
ATOM     31  C   UNL     1      -4.919  -0.503  -3.216  0.00  0.00    +0.226 C 
ENDBRANCH  29  31
ENDBRANCH  21  29
ENDBRANCH  20  23
ENDBRANCH  19  20
ENDBRANCH  15  19
ENDBRANCH   1  16
BRANCH  11  32
ATOM     32  C   UNL     1      -3.147 -11.453   3.596  0.00  0.00    +0.100 C 
BRANCH  32  33
ATOM     33  C   UNL     1      -3.349 -12.769   4.350  0.00  0.00    +0.044 C 
BRANCH  33  34
ATOM     34  C   UNL     1      -2.056 -13.173   5.010  0.00  0.00    -0.047 A 
ATOM     35  C   UNL     1      -1.151 -13.964   4.327  0.00  0.00    +0.007 A 
ATOM     36  C   UNL     1       0.035 -14.337   4.929  0.00  0.00    +0.046 A 
ATOM     37  C   UNL     1       0.318 -13.916   6.220  0.00  0.00    +0.120 A 
ATOM     38  C   UNL     1      -0.591 -13.122   6.904  0.00  0.00    +0.046 A 
ATOM     39  C   UNL     1      -1.774 -12.748   6.295  0.00  0.00    +0.007 A 
BRANCH  37  40
ATOM     40  O   UNL     1       1.484 -14.281   6.815  0.00  0.00    -0.495 OA
ATOM     41  C   UNL     1       1.709 -13.811   8.146  0.00  0.00    +0.277 C 
ENDBRANCH  37  40
ENDBRANCH  33  34
ENDBRANCH  32  33
ENDBRANCH  11  32
TORSDOF 11
