REMARK  Name = ZINC00658180
REMARK  8 active torsions:
REMARK  status: ('A' for Active; 'I' for Inactive)
REMARK    1  A    between atoms: C_1  and  C_2
REMARK    2  A    between atoms: C_2  and  C_3
REMARK    3  A    between atoms: C_2  and  C_4
REMARK    4  A    between atoms: C_12  and  N_27
REMARK    5  A    between atoms: C_14  and  S_16
REMARK    6  A    between atoms: S_16  and  C_17
REMARK    7  A    between atoms: C_17  and  C_18
REMARK    8  A    between atoms: C_18  and  C_20
REMARK                            x       y       z     vdW  Elec       q    Type
REMARK                         _______ _______ _______ _____ _____    ______ ____
ROOT
ATOM      1  C   UNL     1       2.347   0.303  -0.882  0.00  0.00    +0.126 C 
ATOM      2  C   UNL     1       2.462   1.713  -0.294  0.00  0.00    +0.068 C 
ATOM      3  C   UNL     1       1.062   2.322  -0.242  0.00  0.00    -0.020 A 
ATOM      4  C   UNL     1      -0.018   1.511  -0.333  0.00  0.00    +0.021 A 
ATOM      5  S   UNL     1      -1.421   2.590  -0.228  0.00  0.00    -0.071 S 
ATOM      6  C   UNL     1      -0.563   4.123  -0.072  0.00  0.00    +0.115 A 
ATOM      7  C   UNL     1       0.803   3.743  -0.100  0.00  0.00    +0.051 A 
ATOM      8  C   UNL     1       1.765   4.788   0.015  0.00  0.00    +0.129 A 
ATOM      9  N   UNL     1       1.277   6.020   0.136  0.00  0.00    -0.207 NA
ATOM     10  C   UNL     1      -0.016   6.304   0.155  0.00  0.00    +0.191 A 
ATOM     11  N   UNL     1      -0.967   5.372   0.052  0.00  0.00    -0.214 NA
ATOM     12  C   UNL     1       0.002   0.022  -0.482  0.00  0.00    +0.203 C 
ATOM     13  O   UNL     1       1.333  -0.435  -0.196  0.00  0.00    -0.371 OA
ENDROOT
BRANCH   1  15
ATOM     14  C   UNL     1       3.581  -1.821  -1.336  0.00  0.00    +0.010 C 
ATOM     15  C   UNL     1       3.688  -0.418  -0.734  0.00  0.00    +0.012 C 
ATOM     16  C   UNL     1       4.775   0.370  -1.468  0.00  0.00    +0.010 C 
ENDBRANCH   1  15
BRANCH   8  17
ATOM     17  N   UNL     1       3.125   4.537   0.000  0.00  0.00    -0.343 N 
ATOM     18  H   UNL     1       3.451   3.625   0.064  0.00  0.00    +0.144 HD
ATOM     19  H   UNL     1       3.754   5.272  -0.074  0.00  0.00    +0.144 HD
ENDBRANCH   8  17
BRANCH  10  20
ATOM     20  S   UNL     1      -0.505   7.989   0.322  0.00  0.00    -0.078 S 
BRANCH  20  21
ATOM     21  C   UNL     1       1.120   8.780   0.415  0.00  0.00    +0.157 C 
BRANCH  21  22
ATOM     22  C   UNL     1       0.946  10.269   0.565  0.00  0.00    +0.173 C 
ATOM     23  O   UNL     1      -0.167  10.748   0.605  0.00  0.00    -0.291 OA
BRANCH  22  24
ATOM     24  C   UNL     1       2.127  11.141   0.663  0.00  0.00    +0.018 A 
ATOM     25  C   UNL     1       3.412  10.591   0.624  0.00  0.00    +0.012 A 
ATOM     26  C   UNL     1       4.514  11.415   0.709  0.00  0.00    +0.016 A 
ATOM     27  C   UNL     1       4.350  12.784   0.847  0.00  0.00    +0.018 A 
ATOM     28  C   UNL     1       3.080  13.335   0.894  0.00  0.00    +0.016 A 
ATOM     29  C   UNL     1       1.969  12.524   0.802  0.00  0.00    +0.012 A 
ATOM     30 BR   UNL     1       5.867  13.905   0.973  0.00  0.00    -0.050 Br
ENDBRANCH  22  24
ENDBRANCH  21  22
ENDBRANCH  20  21
ENDBRANCH  10  20
TORSDOF 6
