REMARK  Name = ZINC40170169
REMARK  8 active torsions:
REMARK  status: ('A' for Active; 'I' for Inactive)
REMARK    1  A    between atoms: C_1  and  C_2
REMARK    2  A    between atoms: C_2  and  C_3
REMARK    3  A    between atoms: C_3  and  C_5
REMARK    4  A    between atoms: C_3  and  S_20
REMARK    5  A    between atoms: N_7  and  C_8
REMARK    6  A    between atoms: C_9  and  C_17
REMARK    7  A    between atoms: S_20  and  C_21
REMARK    8  A    between atoms: C_32  and  C_34
REMARK                            x       y       z     vdW  Elec       q    Type
REMARK                         _______ _______ _______ _____ _____    ______ ____
ROOT
ATOM      1  C   UNL     1      -1.423  -0.559   0.130  0.00  0.00    +0.140 C 
ENDROOT
BRANCH   1   2
ATOM      2  C   UNL     1      -1.439  -2.045   0.378  0.00  0.00    +0.231 C 
ATOM      3  O   UNL     1      -1.592  -2.813  -0.548  0.00  0.00    -0.274 OA
ATOM      4  N   UNL     1      -1.284  -2.522   1.629  0.00  0.00    -0.278 N 
ATOM      5  H   UNL     1      -1.161  -1.908   2.370  0.00  0.00    +0.155 HD
BRANCH   4   6
ATOM      6  C   UNL     1      -1.299  -3.889   1.857  0.00  0.00    +0.084 A 
ATOM      7  C   UNL     1      -1.161  -4.553   3.066  0.00  0.00    +0.068 A 
ATOM      8  C   UNL     1      -1.213  -6.005   3.036  0.00  0.00    -0.023 A 
ATOM      9  C   UNL     1      -1.392  -6.526   1.804  0.00  0.00    -0.004 A 
ATOM     10  S   UNL     1      -1.496  -5.121   0.733  0.00  0.00    -0.077 S 
ATOM     11  C   UNL     1      -1.486  -7.977   1.445  0.00  0.00    +0.043 C 
ATOM     12  C   UNL     1      -0.971  -8.801   2.634  0.00  0.00    +0.005 C 
ATOM     13  C   UNL     1      -1.629  -8.285   3.917  0.00  0.00    +0.005 C 
ATOM     14  C   UNL     1      -1.082  -6.898   4.261  0.00  0.00    +0.037 C 
BRANCH   7  15
ATOM     15  C   UNL     1      -0.971  -3.821   4.322  0.00  0.00    +0.244 C 
ATOM     16  O   UNL     1      -1.937  -3.483   4.982  0.00  0.00    -0.270 OA
ATOM     17  N   UNL     1       0.273  -3.523   4.747  0.00  0.00    -0.325 N 
ATOM     18  H   UNL     1       1.042  -3.792   4.221  0.00  0.00    +0.145 HD
ATOM     19  H   UNL     1       0.399  -3.039   5.578  0.00  0.00    +0.145 HD
ENDBRANCH   7  15
ENDBRANCH   4   6
ENDBRANCH   1   2
BRANCH   1  21
ATOM     20  C   UNL     1       0.049   1.442  -0.137  0.00  0.00    +0.005 C 
ATOM     21  C   UNL     1       0.023  -0.084  -0.026  0.00  0.00    +0.020 C 
ENDBRANCH   1  21
BRANCH   1  22
ATOM     22  S   UNL     1      -2.348  -0.188  -1.385  0.00  0.00    -0.073 S 
BRANCH  22  23
ATOM     23  C   UNL     1      -4.016  -0.578  -0.972  0.00  0.00    +0.197 A 
ATOM     24  N   UNL     1      -4.439  -1.098   0.159  0.00  0.00    -0.122 NA
ATOM     25  N   UNL     1      -5.715  -1.253   0.128  0.00  0.00    -0.129 NA
ATOM     26  C   UNL     1      -6.188  -0.839  -1.033  0.00  0.00    +0.162 A 
ATOM     27  N   UNL     1      -5.111  -0.392  -1.765  0.00  0.00    -0.270 N 
ATOM     28  C   UNL     1      -5.282   0.116  -3.041  0.00  0.00    +0.058 A 
ATOM     29  C   UNL     1      -4.197   0.565  -3.783  0.00  0.00    +0.027 A 
ATOM     30  C   UNL     1      -4.392   1.067  -5.053  0.00  0.00    +0.002 A 
ATOM     31  C   UNL     1      -5.665   1.128  -5.601  0.00  0.00    +0.001 A 
ATOM     32  C   UNL     1      -6.754   0.689  -4.883  0.00  0.00    +0.010 A 
ATOM     33  C   UNL     1      -6.573   0.178  -3.595  0.00  0.00    +0.002 A 
ATOM     34  C   UNL     1      -7.714  -0.298  -2.806  0.00  0.00    -0.038 A 
ATOM     35  C   UNL     1      -7.497  -0.793  -1.566  0.00  0.00    +0.052 A 
ATOM     36  C   UNL     1      -9.109  -0.244  -3.373  0.00  0.00    +0.044 C 
ENDBRANCH  22  23
ENDBRANCH   1  22
TORSDOF 6
