REMARK  Name = ZINC05482483
REMARK  6 active torsions:
REMARK  status: ('A' for Active; 'I' for Inactive)
REMARK    1  A    between atoms: C_1  and  C_2
REMARK    2  A    between atoms: C_3  and  C_21
REMARK    3  A    between atoms: C_4  and  C_14
REMARK    4  A    between atoms: C_6  and  C_12
REMARK    5  A    between atoms: C_8  and  S_11
REMARK    6  A    between atoms: C_21  and  C_23
REMARK                            x       y       z     vdW  Elec       q    Type
REMARK                         _______ _______ _______ _____ _____    ______ ____
ROOT
ATOM      1  C   UNL     1      -1.533  -2.355   2.679  0.00  0.00    +0.061 C 
ATOM      2  C   UNL     1      -1.205  -1.736   1.344  0.00  0.00    +0.009 C 
ATOM      3  C   UNL     1      -0.590  -0.537   1.310  0.00  0.00    +0.020 C 
ATOM      4  C   UNL     1      -0.218   0.140   0.021  0.00  0.00    +0.073 C 
ATOM      5  C   UNL     1      -1.040  -0.439  -1.133  0.00  0.00    +0.133 C 
ATOM      6  C   UNL     1      -0.956  -1.970  -1.074  0.00  0.00    +0.143 C 
ATOM      7  N   UNL     1      -1.538  -2.403   0.204  0.00  0.00    -0.334 N 
ATOM      8  H   UNL     1      -2.234  -3.255   0.230  0.00  0.00    +0.147 HD
ENDROOT
BRANCH   4   9
ATOM      9  C   UNL     1      -0.491   1.618   0.136  0.00  0.00    -0.038 A 
ATOM     10  C   UNL     1      -1.686   2.060   0.671  0.00  0.00    +0.006 A 
ATOM     11  C   UNL     1      -1.935   3.415   0.782  0.00  0.00    +0.020 A 
ATOM     12  C   UNL     1      -0.992   4.329   0.347  0.00  0.00    +0.041 A 
ATOM     13  C   UNL     1       0.202   3.886  -0.194  0.00  0.00    +0.020 A 
ATOM     14  C   UNL     1       0.452   2.531  -0.299  0.00  0.00    +0.006 A 
ATOM     15 CL   UNL     1      -1.306   6.031   0.480  0.00  0.00    -0.084 Cl
ENDBRANCH   4   9
BRANCH   3  16
ATOM     16  C   UNL     1      -0.286   0.101   2.520  0.00  0.00    +0.158 C 
ATOM     17  O   UNL     1      -1.182   0.493   3.242  0.00  0.00    -0.293 OA
ATOM     18  C   UNL     1       1.151   0.301   2.927  0.00  0.00    +0.091 C 
ENDBRANCH   3  16
BRANCH   6  19
ATOM     19  S   UNL     1      -1.892  -2.690  -2.451  0.00  0.00    -0.155 S 
ATOM     20  H   UNL     1      -1.943  -3.782  -2.569  0.00  0.00    +0.103 HD
ENDBRANCH   6  19
BRANCH   5  21
ATOM     21  C   UNL     1      -2.443  -0.014  -1.002  0.00  0.00    +0.070 C 
ATOM     22  N   UNL     1      -3.526   0.314  -0.900  0.00  0.00    -0.196 NA
ENDBRANCH   5  21
TORSDOF 4
