REMARK  Name = ZINC38488917
REMARK  6 active torsions:
REMARK  status: ('A' for Active; 'I' for Inactive)
REMARK    1  A    between atoms: C_1  and  C_2
REMARK    2  A    between atoms: C_2  and  C_3
REMARK    3  A    between atoms: C_6  and  N_9
REMARK    4  A    between atoms: C_10  and  C_12
REMARK    5  A    between atoms: C_12  and  N_13
REMARK    6  A    between atoms: C_18  and  C_20
REMARK                            x       y       z     vdW  Elec       q    Type
REMARK                         _______ _______ _______ _____ _____    ______ ____
ROOT
ATOM      1  N   UNL     1       6.157  -2.386  -5.698  0.00  0.00    -0.218 N 
ATOM      2  C   UNL     1       6.696  -3.552  -5.310  0.00  0.00    +0.294 A 
ATOM      3  O   UNL     1       5.987  -4.535  -5.171  0.00  0.00    -0.264 OA
ATOM      4  C   UNL     1       8.148  -3.646  -5.051  0.00  0.00    +0.148 A 
ATOM      5  C   UNL     1       8.867  -2.453  -5.242  0.00  0.00    +0.077 A 
ATOM      6  C   UNL     1       8.217  -1.234  -5.661  0.00  0.00    +0.142 A 
ATOM      7  N   UNL     1       6.916  -1.228  -5.880  0.00  0.00    -0.163 NA
ATOM      8  S   UNL     1      10.526  -2.940  -4.848  0.00  0.00    -0.050 S 
ATOM      9  C   UNL     1      10.170  -4.650  -4.464  0.00  0.00    +0.162 A 
ATOM     10  N   UNL     1       8.870  -4.711  -4.658  0.00  0.00    -0.219 NA
ATOM     11  N   UNL     1      11.037  -5.649  -4.067  0.00  0.00    -0.310 N 
ATOM     12  C   UNL     1      12.485  -5.498  -3.866  0.00  0.00    +0.107 C 
ATOM     13  C   UNL     1      13.037  -6.878  -3.451  0.00  0.00    +0.020 C 
ATOM     14  C   UNL     1      11.962  -7.858  -3.990  0.00  0.00    +0.020 C 
ATOM     15  C   UNL     1      10.661  -7.043  -3.768  0.00  0.00    +0.107 C 
ENDROOT
BRANCH   6  16
ATOM     16  C   UNL     1       9.007  -0.000  -5.852  0.00  0.00    +0.156 A 
ATOM     17  C   UNL     1       8.517   1.209  -6.237  0.00  0.00    +0.051 A 
ATOM     18  C   UNL     1       9.614   2.092  -6.290  0.00  0.00    +0.042 A 
ATOM     19  C   UNL     1      10.707   1.386  -5.939  0.00  0.00    +0.196 A 
ATOM     20  O   UNL     1      10.335   0.124  -5.669  0.00  0.00    -0.461 OA
ENDBRANCH   6  16
BRANCH   1  21
ATOM     21  C   UNL     1       4.715  -2.327  -5.947  0.00  0.00    +0.243 C 
BRANCH  21  23
ATOM     22  N   UNL     1       2.657  -1.834  -4.665  0.00  0.00    -0.284 N 
ATOM     23  C   UNL     1       4.000  -1.949  -4.676  0.00  0.00    +0.239 C 
ATOM     24  O   UNL     1       4.634  -1.749  -3.661  0.00  0.00    -0.273 OA
ATOM     25  H   UNL     1       2.145  -2.067  -5.455  0.00  0.00    +0.155 HD
BRANCH  22  29
ATOM     26  C   UNL     1       0.708  -0.471  -1.245  0.00  0.00    -0.048 A 
ATOM     27  C   UNL     1       1.965   0.011  -1.561  0.00  0.00    +0.005 A 
ATOM     28  C   UNL     1       2.614  -0.438  -2.695  0.00  0.00    +0.023 A 
ATOM     29  C   UNL     1       2.003  -1.377  -3.516  0.00  0.00    +0.033 A 
ATOM     30  C   UNL     1       0.741  -1.860  -3.195  0.00  0.00    +0.023 A 
ATOM     31  C   UNL     1       0.100  -1.410  -2.058  0.00  0.00    +0.005 A 
BRANCH  26  33
ATOM     32  C   UNL     1       0.372  -0.872   1.179  0.00  0.00    +0.009 C 
ATOM     33  C   UNL     1       0.003   0.021  -0.007  0.00  0.00    +0.032 C 
ENDBRANCH  26  33
ENDBRANCH  22  29
ENDBRANCH  21  23
ENDBRANCH   1  21
TORSDOF 5
