REMARK  Name = ZINC13643405
REMARK  8 active torsions:
REMARK  status: ('A' for Active; 'I' for Inactive)
REMARK    1  A    between atoms: C_4  and  O_22
REMARK    2  A    between atoms: C_6  and  C_7
REMARK    3  A    between atoms: N_9  and  C_10
REMARK    4  A    between atoms: C_10  and  C_11
REMARK    5  A    between atoms: N_14  and  C_17
REMARK    6  A    between atoms: O_22  and  C_23
REMARK    7  A    between atoms: C_23  and  C_24
REMARK    8  A    between atoms: C_24  and  C_25
REMARK                            x       y       z     vdW  Elec       q    Type
REMARK                         _______ _______ _______ _____ _____    ______ ____
ROOT
ATOM      1  C   UNL     1       6.222  -0.023  -5.099  0.00  0.00    +0.015 A 
ATOM      2  C   UNL     1       6.782  -0.568  -3.962  0.00  0.00    +0.024 A 
ATOM      3  C   UNL     1       6.137  -0.452  -2.744  0.00  0.00    +0.083 A 
ATOM      4  C   UNL     1       4.921   0.214  -2.657  0.00  0.00    +0.139 A 
ATOM      5  C   UNL     1       4.348   0.760  -3.793  0.00  0.00    +0.060 A 
ATOM      6  C   UNL     1       5.000   0.648  -5.021  0.00  0.00    +0.040 A 
ATOM      7 CL   UNL     1       6.849  -1.141  -1.319  0.00  0.00    -0.080 Cl
ENDROOT
BRANCH   6   8
ATOM      8  C   UNL     1       4.397   1.233  -6.237  0.00  0.00    +0.244 C 
ATOM      9  O   UNL     1       3.333   1.817  -6.167  0.00  0.00    -0.270 OA
ATOM     10  N   UNL     1       5.027   1.119  -7.423  0.00  0.00    -0.311 N 
ATOM     11  H   UNL     1       5.876   0.653  -7.479  0.00  0.00    +0.149 HD
BRANCH  10  12
ATOM     12  C   UNL     1       4.429   1.699  -8.629  0.00  0.00    +0.108 C 
BRANCH  12  13
ATOM     13  C   UNL     1       5.339   1.431  -9.829  0.00  0.00    +0.009 C 
ATOM     14  C   UNL     1       6.664   2.177  -9.644  0.00  0.00    +0.024 C 
ATOM     15  C   UNL     1       7.545   1.954 -10.875  0.00  0.00    +0.105 C 
ATOM     16  N   UNL     1       6.850   2.445 -12.072  0.00  0.00    -0.330 N 
ATOM     17  C   UNL     1       5.598   1.711 -12.296  0.00  0.00    +0.105 C 
ATOM     18  C   UNL     1       4.658   1.926 -11.108  0.00  0.00    +0.024 C 
BRANCH  16  19
ATOM     19  C   UNL     1       7.675   2.378 -13.190  0.00  0.00    +0.032 A 
ATOM     20  C   UNL     1       7.281   1.676 -14.329  0.00  0.00    +0.040 A 
ATOM     21  C   UNL     1       8.125   1.639 -15.419  0.00  0.00    +0.084 A 
ATOM     22  C   UNL     1       9.707   2.917 -14.328  0.00  0.00    +0.084 A 
ATOM     23  C   UNL     1       8.920   3.006 -13.200  0.00  0.00    +0.040 A 
ATOM     24  N   UNL     1       9.344   2.243 -15.454  0.00  0.00    -0.367 N 
ATOM     25  H   UNL     1       9.953   2.194 -16.279  0.00  0.00    +0.165 HD
ENDBRANCH  16  19
ENDBRANCH  12  13
ENDBRANCH  10  12
ENDBRANCH   6   8
BRANCH   4  26
ATOM     26  O   UNL     1       4.291   0.326  -1.458  0.00  0.00    -0.490 OA
BRANCH  26  27
ATOM     27  C   UNL     1       3.044   1.024  -1.442  0.00  0.00    +0.234 C 
BRANCH  27  28
ATOM     28  C   UNL     1       2.490   1.047  -0.016  0.00  0.00    +0.077 C 
BRANCH  28  29
ATOM     29  C   UNL     1       1.175   1.783   0.000  0.00  0.00    -0.026 A 
ATOM     30  C   UNL     1      -0.013   1.076   0.008  0.00  0.00    +0.006 A 
ATOM     31  C   UNL     1      -1.219   1.750   0.017  0.00  0.00    +0.020 A 
ATOM     32  C   UNL     1      -1.238   3.134   0.031  0.00  0.00    +0.042 A 
ATOM     33  C   UNL     1      -0.050   3.842   0.023  0.00  0.00    +0.040 A 
ATOM     34  C   UNL     1       1.157   3.166   0.008  0.00  0.00    +0.046 A 
ATOM     35 CL   UNL     1       2.649   4.054  -0.003  0.00  0.00    -0.083 Cl
ATOM     36 CL   UNL     1      -2.753   3.981   0.049  0.00  0.00    -0.083 Cl
ENDBRANCH  28  29
ENDBRANCH  27  28
ENDBRANCH  26  27
ENDBRANCH   4  26
TORSDOF 8
