REMARK  Name = ZINC33171071
REMARK  9 active torsions:
REMARK  status: ('A' for Active; 'I' for Inactive)
REMARK    1  A    between atoms: C_1  and  C_2
REMARK    2  A    between atoms: C_3  and  N_27
REMARK    3  A    between atoms: C_4  and  C_7
REMARK    4  A    between atoms: C_8  and  C_9
REMARK    5  A    between atoms: C_12  and  S_15
REMARK    6  A    between atoms: S_15  and  N_18
REMARK    7  A    between atoms: N_18  and  C_19
REMARK    8  A    between atoms: C_19  and  C_20
REMARK    9  A    between atoms: C_28  and  C_30
REMARK                            x       y       z     vdW  Elec       q    Type
REMARK                         _______ _______ _______ _____ _____    ______ ____
ROOT
ATOM      1  C   UNL     1       0.191   5.727  -1.654  0.00  0.00    -0.025 A 
ATOM      2  C   UNL     1       1.262   5.030  -1.086  0.00  0.00    +0.010 A 
ATOM      3  C   UNL     1       2.534   5.558  -1.150  0.00  0.00    +0.029 A 
ATOM      4  C   UNL     1       2.751   6.779  -1.765  0.00  0.00    +0.105 A 
ATOM      5  C   UNL     1       1.695   7.477  -2.325  0.00  0.00    +0.029 A 
ATOM      6  C   UNL     1       0.418   6.960  -2.273  0.00  0.00    +0.010 A 
ENDROOT
BRANCH   4   7
ATOM      7  S   UNL     1       4.380   7.447  -1.837  0.00  0.00    +0.059 S 
ATOM      8  O   UNL     1       5.275   6.349  -1.724  0.00  0.00    -0.153 OA
ATOM      9  O   UNL     1       4.404   8.340  -2.942  0.00  0.00    -0.153 OA
BRANCH   7  10
ATOM     10  N   UNL     1       4.590   8.370  -0.478  0.00  0.00    -0.186 NA
ATOM     11  H   UNL     1       4.566   9.467  -0.564  0.00  0.00    +0.148 HD
BRANCH  10  12
ATOM     12  C   UNL     1       4.587   7.739   0.844  0.00  0.00    +0.141 C 
BRANCH  12  13
ATOM     13  C   UNL     1       5.152   8.698   1.860  0.00  0.00    -0.032 A 
ATOM     14  C   UNL     1       6.509   8.702   2.126  0.00  0.00    +0.006 A 
ATOM     15  C   UNL     1       7.029   9.585   3.054  0.00  0.00    +0.020 A 
ATOM     16  C   UNL     1       6.190  10.458   3.724  0.00  0.00    +0.041 A 
ATOM     17  C   UNL     1       4.831  10.449   3.461  0.00  0.00    +0.020 A 
ATOM     18  C   UNL     1       4.313   9.569   2.529  0.00  0.00    +0.006 A 
ATOM     19 CL   UNL     1       6.841  11.563   4.894  0.00  0.00    -0.084 Cl
ENDBRANCH  12  13
ENDBRANCH  10  12
ENDBRANCH   7  10
ENDBRANCH   4   7
BRANCH   1  21
ATOM     20  C   UNL     1      -1.375   3.863  -1.863  0.00  0.00    +0.051 C 
ATOM     21  C   UNL     1      -1.170   5.168  -1.594  0.00  0.00    +0.011 C 
BRANCH  20  25
ATOM     22  C   UNL     1       1.536   0.076  -3.573  0.00  0.00    +0.071 C 
ATOM     23  C   UNL     1       0.990   1.417  -3.152  0.00  0.00    +0.102 A 
ATOM     24  C   UNL     1      -0.293   1.675  -2.616  0.00  0.00    +0.103 A 
ATOM     25  C   UNL     1      -0.287   3.048  -2.405  0.00  0.00    +0.182 A 
ATOM     26  O   UNL     1       0.927   3.475  -2.808  0.00  0.00    -0.353 OA
ATOM     27  N   UNL     1       1.607   2.562  -3.213  0.00  0.00    -0.081 NA
BRANCH  24  28
ATOM     28  N   UNL     1      -1.326   0.763  -2.360  0.00  0.00    -0.281 N 
ATOM     29  C   UNL     1      -1.642  -0.172  -3.277  0.00  0.00    +0.220 C 
ATOM     30  O   UNL     1      -0.994  -0.263  -4.299  0.00  0.00    -0.275 OA
ATOM     31  H   UNL     1      -1.879   0.811  -1.410  0.00  0.00    +0.155 HD
BRANCH  29  32
ATOM     32  C   UNL     1      -2.800  -1.106  -3.034  0.00  0.00    +0.075 C 
ATOM     33  C   UNL     1      -2.478  -2.581  -2.788  0.00  0.00    +0.013 C 
ATOM     34  C   UNL     1      -3.108  -2.146  -4.113  0.00  0.00    +0.013 C 
ENDBRANCH  29  32
ENDBRANCH  24  28
ENDBRANCH  20  25
ENDBRANCH   1  21
TORSDOF 8
