REMARK  Name = ZINC15587306
REMARK  6 active torsions:
REMARK  status: ('A' for Active; 'I' for Inactive)
REMARK    1  A    between atoms: C_2  and  N_26
REMARK    2  A    between atoms: C_4  and  S_9
REMARK    3  A    between atoms: S_9  and  C_10
REMARK    4  A    between atoms: C_10  and  C_11
REMARK    5  A    between atoms: N_13  and  C_14
REMARK    6  A    between atoms: N_13  and  C_20
REMARK                            x       y       z     vdW  Elec       q    Type
REMARK                         _______ _______ _______ _____ _____    ______ ____
ROOT
ATOM      1  C   UNL     1      -0.013   1.217   0.131  0.00  0.00    +0.226 C 
ATOM      2  O   UNL     1      -0.005   0.004   0.121  0.00  0.00    -0.275 OA
ATOM      3  N   UNL     1       1.143   1.898   0.002  0.00  0.00    -0.295 N 
ENDROOT
BRANCH   3   4
ATOM      4  C   UNL     1       1.124   3.360  -0.099  0.00  0.00    +0.076 C 
ATOM      5  C   UNL     1       1.773   3.788  -1.417  0.00  0.00    +0.022 C 
ATOM      6  C   UNL     1       1.753   5.314  -1.523  0.00  0.00    +0.002 C 
ATOM      7  C   UNL     1       2.531   5.917  -0.351  0.00  0.00    +0.000 C 
ATOM      8  C   UNL     1       1.882   5.489   0.966  0.00  0.00    +0.002 C 
ATOM      9  C   UNL     1       1.902   3.962   1.072  0.00  0.00    +0.022 C 
ENDBRANCH   3   4
BRANCH   3  10
ATOM     10  C   UNL     1       2.418   1.178  -0.036  0.00  0.00    +0.076 C 
ATOM     11  C   UNL     1       2.424   0.214  -1.224  0.00  0.00    +0.022 C 
ATOM     12  C   UNL     1       3.756  -0.539  -1.263  0.00  0.00    +0.002 C 
ATOM     13  C   UNL     1       3.934  -1.328   0.035  0.00  0.00    +0.000 C 
ATOM     14  C   UNL     1       3.928  -0.364   1.223  0.00  0.00    +0.002 C 
ATOM     15  C   UNL     1       2.597   0.389   1.263  0.00  0.00    +0.022 C 
ENDBRANCH   3  10
BRANCH   1  16
ATOM     16  C   UNL     1      -1.314   1.961   0.279  0.00  0.00    +0.173 C 
BRANCH  16  17
ATOM     17  S   UNL     1      -2.655   0.781   0.570  0.00  0.00    -0.078 S 
BRANCH  17  21
ATOM     18  C   UNL     1      -6.106   3.604   0.903  0.00  0.00    +0.113 A 
ATOM     19  C   UNL     1      -4.816   4.061   0.671  0.00  0.00    +0.124 A 
ATOM     20  N   UNL     1      -3.808   3.186   0.583  0.00  0.00    -0.209 NA
ATOM     21  C   UNL     1      -4.017   1.891   0.702  0.00  0.00    +0.171 A 
ATOM     22  N   UNL     1      -5.264   1.393   0.929  0.00  0.00    -0.302 N 
ATOM     23  H   UNL     1      -5.413   0.307   1.029  0.00  0.00    +0.171 HD
ATOM     24  C   UNL     1      -6.319   2.228   1.034  0.00  0.00    +0.254 A 
ATOM     25  O   UNL     1      -7.440   1.790   1.238  0.00  0.00    -0.268 OA
BRANCH  19  26
ATOM     26  N   UNL     1      -4.573   5.413   0.538  0.00  0.00    -0.343 N 
ATOM     27  H   UNL     1      -3.550   5.773   0.355  0.00  0.00    +0.144 HD
ATOM     28  H   UNL     1      -5.403   6.131   0.616  0.00  0.00    +0.144 HD
ENDBRANCH  19  26
ENDBRANCH  17  21
ENDBRANCH  16  17
ENDBRANCH   1  16
TORSDOF 6
