REMARK  Name = ZINC07372038
REMARK  7 active torsions:
REMARK  status: ('A' for Active; 'I' for Inactive)
REMARK    1  A    between atoms: C_1  and  N_2
REMARK    2  A    between atoms: C_3  and  C_23
REMARK    3  A    between atoms: C_6  and  S_7
REMARK    4  A    between atoms: S_7  and  C_8
REMARK    5  A    between atoms: C_8  and  C_9
REMARK    6  A    between atoms: N_15  and  C_16
REMARK    7  A    between atoms: C_23  and  C_24
REMARK                            x       y       z     vdW  Elec       q    Type
REMARK                         _______ _______ _______ _____ _____    ______ ____
ROOT
ATOM      1  C   UNL     1       0.736   6.192   7.175  0.00  0.00    +0.146 A 
ATOM      2  N   UNL     1       0.524   7.488   7.327  0.00  0.00    -0.199 NA
ATOM      3  C   UNL     1       0.061   7.958   8.483  0.00  0.00    +0.217 A 
ATOM      4  N   UNL     1      -0.177   7.124   9.489  0.00  0.00    -0.181 NA
ATOM      5  C   UNL     1       0.043   5.823   9.335  0.00  0.00    +0.224 A 
ATOM      6  N   UNL     1       0.500   5.359   8.174  0.00  0.00    -0.198 NA
ATOM      7  N   UNL     1      -0.204   4.952  10.379  0.00  0.00    -0.284 N 
ATOM      8  N   UNL     1      -0.165   9.310   8.638  0.00  0.00    -0.327 N 
ATOM      9  H   UNL     1      -0.120   3.995  10.242  0.00  0.00    +0.155 HD
ATOM     10  H   UNL     1      -0.499   9.652   9.482  0.00  0.00    +0.145 HD
ATOM     11  H   UNL     1       0.009   9.918   7.902  0.00  0.00    +0.145 HD
ENDROOT
BRANCH   7  12
ATOM     12  C   UNL     1      -0.573   5.449  11.632  0.00  0.00    +0.034 A 
ATOM     13  C   UNL     1      -0.067   6.663  12.076  0.00  0.00    +0.023 A 
ATOM     14  C   UNL     1      -0.439   7.154  13.312  0.00  0.00    +0.002 A 
ATOM     15  C   UNL     1      -1.305   6.433  14.112  0.00  0.00    +0.000 A 
ATOM     16  C   UNL     1      -1.807   5.220  13.676  0.00  0.00    +0.002 A 
ATOM     17  C   UNL     1      -1.444   4.726  12.438  0.00  0.00    +0.023 A 
ENDBRANCH   7  12
BRANCH   1  18
ATOM     18  C   UNL     1       1.254   5.663   5.862  0.00  0.00    +0.153 C 
BRANCH  18  19
ATOM     19  S   UNL     1      -0.142   5.246   4.788  0.00  0.00    -0.078 S 
BRANCH  19  25
ATOM     20  C   UNL     1      -1.253   4.110   1.888  0.00  0.00    +0.152 C 
ATOM     21  N   UNL     1       0.174   4.217   2.205  0.00  0.00    -0.309 N 
ATOM     22  C   UNL     1       1.226   3.881   1.399  0.00  0.00    +0.139 A 
ATOM     23  N   UNL     1       2.319   4.137   2.061  0.00  0.00    -0.133 NA
ATOM     24  N   UNL     1       2.031   4.604   3.224  0.00  0.00    -0.122 NA
ATOM     25  C   UNL     1       0.728   4.671   3.367  0.00  0.00    +0.192 A 
BRANCH  22  26
ATOM     26  C   UNL     1       1.139   3.324   0.001  0.00  0.00    +0.118 C 
BRANCH  26  27
ATOM     27  C   UNL     1       1.099   1.819   0.062  0.00  0.00    -0.003 A 
ATOM     28  C   UNL     1       0.025   0.997   0.150  0.00  0.00    +0.011 A 
ATOM     29  C   UNL     1       0.229  -0.370   0.192  0.00  0.00    +0.008 A 
ATOM     30  C   UNL     1       1.497  -0.847   0.144  0.00  0.00    +0.045 A 
ATOM     31  S   UNL     1       2.453   0.656   0.036  0.00  0.00    -0.101 S 
ENDBRANCH  26  27
ENDBRANCH  22  26
ENDBRANCH  19  25
ENDBRANCH  18  19
ENDBRANCH   1  18
TORSDOF 6
