REMARK  Name = ZINC00931432
REMARK  8 active torsions:
REMARK  status: ('A' for Active; 'I' for Inactive)
REMARK    1  A    between atoms: C_1  and  C_2
REMARK    2  A    between atoms: C_3  and  C_8
REMARK    3  A    between atoms: N_5  and  C_7
REMARK    4  A    between atoms: C_8  and  C_10
REMARK    5  A    between atoms: C_8  and  N_19
REMARK    6  A    between atoms: N_12  and  C_13
REMARK    7  A    between atoms: N_19  and  C_20
REMARK    8  A    between atoms: C_30  and  C_32
REMARK                            x       y       z     vdW  Elec       q    Type
REMARK                         _______ _______ _______ _____ _____    ______ ____
ROOT
ATOM      1  N   UNL     1       0.407  -1.263  -3.405  0.00  0.00    -0.251 N 
ATOM      2  C   UNL     1       1.465  -1.000  -4.197  0.00  0.00    +0.265 C 
ATOM      3  O   UNL     1       2.044   0.062  -4.103  0.00  0.00    -0.271 OA
ENDROOT
BRANCH   1   4
ATOM      4  C   UNL     1      -0.194  -2.523  -3.439  0.00  0.00    +0.045 A 
ATOM      5  C   UNL     1      -1.243  -2.770  -4.299  0.00  0.00    +0.024 A 
ATOM      6  C   UNL     1      -1.849  -4.022  -4.341  0.00  0.00    +0.002 A 
ATOM      7  C   UNL     1      -1.425  -5.035  -3.537  0.00  0.00    +0.008 A 
ATOM      8  C   UNL     1      -0.358  -4.825  -2.647  0.00  0.00    -0.016 A 
ATOM      9  C   UNL     1       0.270  -3.557  -2.599  0.00  0.00    +0.004 A 
ATOM     10  C   UNL     1       1.339  -3.350  -1.712  0.00  0.00    +0.010 A 
ATOM     11  C   UNL     1       1.760  -4.370  -0.915  0.00  0.00    +0.001 A 
ATOM     12  C   UNL     1       1.147  -5.620  -0.966  0.00  0.00    +0.001 A 
ATOM     13  C   UNL     1       0.101  -5.853  -1.805  0.00  0.00    +0.008 A 
ENDBRANCH   1   4
BRANCH   2  14
ATOM     14  C   UNL     1       1.929  -2.025  -5.200  0.00  0.00    +0.296 C 
ATOM     15  C   UNL     1       0.980  -2.036  -6.406  0.00  0.00    +0.283 C 
ATOM     16  O   UNL     1       1.457  -3.008  -7.343  0.00  0.00    -0.484 OA
ATOM     17  C   UNL     1       2.790  -2.988  -7.619  0.00  0.00    +0.162 A 
ATOM     18  C   UNL     1       3.259  -3.632  -8.755  0.00  0.00    +0.049 A 
ATOM     19  C   UNL     1       4.610  -3.623  -9.047  0.00  0.00    +0.004 A 
ATOM     20  C   UNL     1       5.497  -2.973  -8.209  0.00  0.00    +0.004 A 
ATOM     21  C   UNL     1       5.035  -2.329  -7.077  0.00  0.00    +0.049 A 
ATOM     22  C   UNL     1       3.681  -2.332  -6.778  0.00  0.00    +0.163 A 
ATOM     23  O   UNL     1       3.241  -1.687  -5.664  0.00  0.00    -0.472 OA
ENDBRANCH   2  14
BRANCH   1  24
ATOM     24  C   UNL     1      -0.113  -0.228  -2.509  0.00  0.00    +0.200 C 
BRANCH  24  27
ATOM     25  C   UNL     1       2.301  -0.401  -0.463  0.00  0.00    +0.068 C 
ATOM     26  C   UNL     1       0.885  -0.844  -0.199  0.00  0.00    +0.065 A 
ATOM     27  C   UNL     1      -0.180  -0.768  -1.103  0.00  0.00    +0.022 A 
ATOM     28  C   UNL     1      -1.281  -1.264  -0.492  0.00  0.00    +0.114 A 
ATOM     29  N   UNL     1      -0.925  -1.641   0.754  0.00  0.00    -0.274 N 
ATOM     30  N   UNL     1       0.441  -1.372   0.912  0.00  0.00    -0.176 NA
ATOM     31  C   UNL     1      -1.810  -2.231   1.761  0.00  0.00    +0.172 C 
ENDBRANCH  24  27
BRANCH  24  32
ATOM     32  C   UNL     1      -1.493   0.179  -2.957  0.00  0.00    +0.239 C 
ATOM     33  O   UNL     1      -2.036  -0.416  -3.863  0.00  0.00    -0.273 OA
ATOM     34  N   UNL     1      -2.124   1.203  -2.350  0.00  0.00    -0.311 N 
ATOM     35  H   UNL     1      -1.663   1.726  -1.675  0.00  0.00    +0.149 HD
BRANCH  34  36
ATOM     36  C   UNL     1      -3.506   1.528  -2.710  0.00  0.00    +0.073 C 
ATOM     37  C   UNL     1      -3.512   2.443  -3.937  0.00  0.00    +0.022 C 
ATOM     38  C   UNL     1      -4.956   2.783  -4.312  0.00  0.00    +0.002 C 
ATOM     39  C   UNL     1      -5.634   3.496  -3.141  0.00  0.00    +0.000 C 
ATOM     40  C   UNL     1      -5.628   2.582  -1.914  0.00  0.00    +0.002 C 
ATOM     41  C   UNL     1      -4.184   2.242  -1.538  0.00  0.00    +0.022 C 
ENDBRANCH  34  36
ENDBRANCH  24  32
ENDBRANCH   1  24
TORSDOF 6
