REMARK  Name = ZINC08750903
REMARK  8 active torsions:
REMARK  status: ('A' for Active; 'I' for Inactive)
REMARK    1  A    between atoms: C_1  and  C_2
REMARK    2  A    between atoms: C_2  and  C_4
REMARK    3  A    between atoms: C_2  and  N_11
REMARK    4  A    between atoms: C_12  and  C_14
REMARK    5  A    between atoms: C_14  and  C_16
REMARK    6  A    between atoms: C_14  and  N_61
REMARK    7  A    between atoms: N_19  and  C_22
REMARK    8  A    between atoms: N_25  and  C_30
REMARK                            x       y       z     vdW  Elec       q    Type
REMARK                         _______ _______ _______ _____ _____    ______ ____
ROOT
ATOM      1  C   UNL     1      -0.115   1.702   0.214  0.00  0.00    -0.059 C 
ATOM      2  C   UNL     1       1.318   2.240   0.199  0.00  0.00    +0.086 C 
ATOM      3  N   UNL     1       2.132   1.488   1.163  0.00  0.00    -0.331 N 
ATOM      4  C   UNL     1       2.146   0.056   0.833  0.00  0.00    +0.086 C 
ATOM      5  C   UNL     1       0.713  -0.482   0.848  0.00  0.00    -0.059 C 
ATOM      6  N   UNL     1      -0.089   0.268  -0.142  0.00  0.00    +0.389 N 
ATOM      7  H   UNL     1       0.341   0.162  -1.068  0.00  0.00    -0.081 HD
ENDROOT
BRANCH   3   8
ATOM      8  C   UNL     1       3.419   1.994   1.229  0.00  0.00    +0.074 A 
ATOM      9  C   UNL     1       4.266   1.936   0.101  0.00  0.00    +0.158 A 
ATOM     10  N   UNL     1       5.476   2.418   0.159  0.00  0.00    -0.170 NA
ATOM     11  N   UNL     1       5.969   2.990   1.337  0.00  0.00    -0.195 N 
ATOM     12  C   UNL     1       5.197   3.062   2.439  0.00  0.00    +0.292 A 
ATOM     13  O   UNL     1       5.634   3.562   3.464  0.00  0.00    -0.264 OA
ATOM     14  C   UNL     1       3.889   2.557   2.402  0.00  0.00    +0.129 A 
ATOM     15 CL   UNL     1       2.875   2.636   3.809  0.00  0.00    -0.076 Cl
BRANCH  11  16
ATOM     16  C   UNL     1       7.274   3.494   1.370  0.00  0.00    +0.069 A 
ATOM     17  C   UNL     1       7.518   4.764   1.877  0.00  0.00    +0.028 A 
ATOM     18  C   UNL     1       8.808   5.255   1.913  0.00  0.00    +0.002 A 
ATOM     19  C   UNL     1       9.855   4.489   1.435  0.00  0.00    +0.000 A 
ATOM     20  C   UNL     1       9.615   3.227   0.925  0.00  0.00    +0.002 A 
ATOM     21  C   UNL     1       8.328   2.727   0.891  0.00  0.00    +0.028 A 
ENDBRANCH  11  16
ENDBRANCH   3   8
BRANCH   6  22
ATOM     22  C   UNL     1      -1.466  -0.267  -0.186  0.00  0.00    +0.016 C 
ATOM     23  C   UNL     1      -2.113  -0.196   1.198  0.00  0.00    -0.004 C 
BRANCH  22  25
ATOM     24  N   UNL     1      -2.561  -2.402  -0.784  0.00  0.00    -0.310 N 
ATOM     25  C   UNL     1      -1.419  -1.701  -0.646  0.00  0.00    +0.200 C 
ATOM     26  O   UNL     1      -0.353  -2.224  -0.892  0.00  0.00    -0.278 OA
ATOM     27  H   UNL     1      -3.414  -1.984  -0.588  0.00  0.00    +0.149 HD
BRANCH  24  29
ATOM     28  C   UNL     1      -2.475  -3.841  -2.760  0.00  0.00    +0.033 C 
ATOM     29  C   UNL     1      -2.515  -3.797  -1.231  0.00  0.00    +0.100 C 
BRANCH  29  30
ATOM     30  C   UNL     1      -3.741  -4.523  -0.740  0.00  0.00    -0.027 A 
ATOM     31  C   UNL     1      -4.970  -3.889  -0.751  0.00  0.00    +0.008 A 
ATOM     32  C   UNL     1      -6.095  -4.556  -0.304  0.00  0.00    +0.038 A 
ATOM     33  C   UNL     1      -5.990  -5.855   0.164  0.00  0.00    +0.123 A 
ATOM     34  C   UNL     1      -4.758  -6.486   0.179  0.00  0.00    +0.038 A 
ATOM     35  C   UNL     1      -3.635  -5.820  -0.273  0.00  0.00    +0.008 A 
ATOM     36  F   UNL     1      -7.089  -6.505   0.605  0.00  0.00    -0.205 F 
ENDBRANCH  29  30
ENDBRANCH  24  29
ENDBRANCH  22  25
ENDBRANCH   6  22
TORSDOF 6
