REMARK  Name = ZINC01061098
REMARK  6 active torsions:
REMARK  status: ('A' for Active; 'I' for Inactive)
REMARK    1  A    between atoms: C_1  and  S_2
REMARK    2  A    between atoms: S_2  and  C_3
REMARK    3  A    between atoms: C_6  and  C_9
REMARK    4  A    between atoms: C_22  and  C_24
REMARK    5  A    between atoms: C_27  and  S_30
REMARK    6  A    between atoms: S_30  and  C_31
REMARK                            x       y       z     vdW  Elec       q    Type
REMARK                         _______ _______ _______ _____ _____    ______ ____
ROOT
ATOM      1  C   UNL     1       2.984  -1.444   5.013  0.00  0.00    +0.013 C 
ATOM      2  C   UNL     1       3.108  -2.733   5.375  0.00  0.00    -0.023 C 
ATOM      3  C   UNL     1       2.609  -3.846   4.479  0.00  0.00    +0.037 C 
ATOM      4  C   UNL     1       1.907  -4.874   5.377  0.00  0.00    +0.009 C 
ATOM      5  C   UNL     1       2.925  -5.456   6.355  0.00  0.00    +0.035 C 
ATOM      6  C   UNL     1       3.640  -4.374   7.110  0.00  0.00    -0.020 C 
ATOM      7  C   UNL     1       3.742  -3.108   6.659  0.00  0.00    +0.046 C 
ATOM      8  N   UNL     1       4.414  -2.154   7.363  0.00  0.00    -0.326 N 
ATOM      9  C   UNL     1       5.012  -2.357   8.511  0.00  0.00    +0.215 C 
ATOM     10  N   UNL     1       5.712  -1.536   9.325  0.00  0.00    -0.206 NA
ATOM     11  C   UNL     1       6.126  -2.186  10.377  0.00  0.00    +0.203 C 
ATOM     12  N   UNL     1       5.713  -3.481  10.303  0.00  0.00    -0.251 N 
ATOM     13  N   UNL     1       4.998  -3.601   9.109  0.00  0.00    -0.210 N 
ATOM     14  C   UNL     1       4.292  -4.703   8.442  0.00  0.00    +0.155 C 
ATOM     15  H   UNL     1       5.882  -4.182  10.952  0.00  0.00    +0.171 HD
ATOM     16  H   UNL     1       4.454  -1.260   6.987  0.00  0.00    +0.169 HD
ENDROOT
BRANCH   1  20
ATOM     17  C   UNL     1       1.614  -0.454   1.120  0.00  0.00    +0.008 A 
ATOM     18  C   UNL     1       1.300   0.369   2.197  0.00  0.00    +0.015 A 
ATOM     19  C   UNL     1       1.742   0.051   3.461  0.00  0.00    +0.009 A 
ATOM     20  C   UNL     1       2.509  -1.101   3.663  0.00  0.00    -0.025 A 
ATOM     21  C   UNL     1       2.822  -1.927   2.578  0.00  0.00    +0.009 A 
ATOM     22  C   UNL     1       2.371  -1.605   1.317  0.00  0.00    +0.015 A 
BRANCH  17  24
ATOM     23  C   UNL     1       0.125   1.502  -0.258  0.00  0.00    +0.090 C 
ATOM     24  S   UNL     1       1.045  -0.043  -0.496  0.00  0.00    -0.129 S 
ENDBRANCH  17  24
ENDBRANCH   1  20
BRANCH  14  25
ATOM     25  C   UNL     1       3.225  -5.224   9.369  0.00  0.00    -0.021 A 
ATOM     26  C   UNL     1       2.380  -4.340  10.014  0.00  0.00    +0.007 A 
ATOM     27  C   UNL     1       1.401  -4.814  10.865  0.00  0.00    +0.015 A 
ATOM     28  C   UNL     1       1.266  -6.181  11.073  0.00  0.00    +0.008 A 
ATOM     29  C   UNL     1       2.117  -7.067  10.423  0.00  0.00    +0.015 A 
ATOM     30  C   UNL     1       3.090  -6.586   9.569  0.00  0.00    +0.007 A 
BRANCH  28  31
ATOM     31  S   UNL     1       0.019  -6.790  12.159  0.00  0.00    -0.129 S 
ATOM     32  C   UNL     1       0.233  -8.591  12.105  0.00  0.00    +0.090 C 
ENDBRANCH  28  31
ENDBRANCH  14  25
TORSDOF 4
