REMARK  Name = ZINC09056431
REMARK  11 active torsions:
REMARK  status: ('A' for Active; 'I' for Inactive)
REMARK    1  A    between atoms: C_1  and  C_2
REMARK    2  A    between atoms: C_2  and  C_3
REMARK    3  A    between atoms: C_3  and  N_60
REMARK    4  A    between atoms: C_4  and  C_5
REMARK    5  A    between atoms: C_4  and  N_60
REMARK    6  A    between atoms: C_8  and  C_10
REMARK    7  A    between atoms: C_15  and  C_16
REMARK    8  A    between atoms: C_15  and  N_60
REMARK    9  A    between atoms: N_18  and  C_19
REMARK   10  A    between atoms: C_22  and  S_25
REMARK   11  A    between atoms: S_25  and  N_28
REMARK                            x       y       z     vdW  Elec       q    Type
REMARK                         _______ _______ _______ _____ _____    ______ ____
ROOT
ATOM      1  C   UNL     1       6.073   0.530   2.626  0.00  0.00    +0.201 C 
ATOM      2  O   UNL     1       5.298   0.389   3.548  0.00  0.00    -0.278 OA
ATOM      3  N   UNL     1       7.393   0.657   2.869  0.00  0.00    -0.287 N 
ATOM      4  H   UNL     1       8.005   0.843   2.139  0.00  0.00    +0.155 HD
ENDROOT
BRANCH   3   5
ATOM      5  C   UNL     1       7.880   0.523   4.174  0.00  0.00    +0.033 A 
ATOM      6  C   UNL     1       7.137   0.997   5.247  0.00  0.00    +0.025 A 
ATOM      7  C   UNL     1       7.617   0.856   6.534  0.00  0.00    +0.030 A 
ATOM      8  C   UNL     1       8.843   0.255   6.754  0.00  0.00    +0.106 A 
ATOM      9  C   UNL     1       9.588  -0.213   5.687  0.00  0.00    +0.030 A 
ATOM     10  C   UNL     1       9.110  -0.081   4.398  0.00  0.00    +0.025 A 
BRANCH   8  11
ATOM     11  S   UNL     1       9.456   0.085   8.397  0.00  0.00    +0.061 S 
ATOM     12  O   UNL     1       8.326   0.111   9.257  0.00  0.00    -0.153 OA
ATOM     13  O   UNL     1      10.374  -1.000   8.377  0.00  0.00    -0.153 OA
BRANCH  11  14
ATOM     14  N   UNL     1      10.339   1.445   8.733  0.00  0.00    -0.177 NA
ATOM     15  C   UNL     1      11.779   1.613   8.492  0.00  0.00    +0.109 C 
ATOM     16  C   UNL     1      12.165   3.025   8.982  0.00  0.00    +0.018 C 
ATOM     17  C   UNL     1      11.039   3.357   9.997  0.00  0.00    +0.018 C 
ATOM     18  C   UNL     1       9.812   2.685   9.331  0.00  0.00    +0.109 C 
ENDBRANCH  11  14
ENDBRANCH   8  11
ENDBRANCH   3   5
BRANCH   1  19
ATOM     19  C   UNL     1       5.561   0.564   1.209  0.00  0.00    +0.020 C 
BRANCH  19  20
ATOM     20  N   UNL     1       4.108   0.295   1.222  0.00  0.00    +0.391 N 
ATOM     21  H   UNL     1       3.672   0.856   1.963  0.00  0.00    -0.080 HD
BRANCH  20  22
ATOM     22  C   UNL     1       3.863  -1.137   1.497  0.00  0.00    -0.078 C 
BRANCH  22  24
ATOM     23  C   UNL     1       4.098  -3.473   0.643  0.00  0.00    +0.002 C 
ATOM     24  C   UNL     1       4.415  -2.003   0.363  0.00  0.00    -0.022 C 
ENDBRANCH  22  24
ENDBRANCH  20  22
BRANCH  20  25
ATOM     25  C   UNL     1       3.513   0.669  -0.077  0.00  0.00    +0.021 C 
BRANCH  25  26
ATOM     26  C   UNL     1       2.012   0.594   0.036  0.00  0.00    +0.202 A 
ATOM     27  N   UNL     1       1.220   1.559   0.411  0.00  0.00    -0.114 NA
ATOM     28  N   UNL     1       0.001   1.148   0.392  0.00  0.00    -0.107 NA
ATOM     29  C   UNL     1      -0.027  -0.107  -0.001  0.00  0.00    +0.255 A 
ATOM     30  O   UNL     1       1.248  -0.480  -0.233  0.00  0.00    -0.422 OA
BRANCH  29  31
ATOM     31  C   UNL     1      -1.224  -0.947  -0.156  0.00  0.00    +0.076 A 
ATOM     32  C   UNL     1      -2.550  -0.626   0.071  0.00  0.00    +0.021 A 
ATOM     33  C   UNL     1      -3.505  -1.591  -0.151  0.00  0.00    +0.008 A 
ATOM     34  C   UNL     1      -3.118  -2.823  -0.573  0.00  0.00    +0.046 A 
ATOM     35  S   UNL     1      -1.345  -2.650  -0.679  0.00  0.00    -0.092 S 
ENDBRANCH  29  31
ENDBRANCH  25  26
ENDBRANCH  20  25
ENDBRANCH  19  20
ENDBRANCH   1  19
TORSDOF 10
