REMARK  Name = ZINC45074574
REMARK  12 active torsions:
REMARK  status: ('A' for Active; 'I' for Inactive)
REMARK    1  A    between atoms: C_1  and  C_2
REMARK    2  A    between atoms: C_2  and  C_28
REMARK    3  A    between atoms: C_3  and  C_4
REMARK    4  A    between atoms: C_4  and  C_5
REMARK    5  A    between atoms: C_5  and  C_6
REMARK    6  A    between atoms: C_5  and  C_7
REMARK    7  A    between atoms: C_5  and  C_22
REMARK    8  A    between atoms: C_7  and  O_8
REMARK    9  A    between atoms: O_8  and  C_9
REMARK   10  A    between atoms: C_9  and  C_11
REMARK   11  A    between atoms: C_16  and  C_17
REMARK   12  A    between atoms: C_16  and  C_18
REMARK                            x       y       z     vdW  Elec       q    Type
REMARK                         _______ _______ _______ _____ _____    ______ ____
ROOT
ATOM      1  C   UNL     1      -0.733   0.113   4.756  0.00  0.00    +0.243 C 
ENDROOT
BRANCH   1   2
ATOM      2  C   UNL     1      -0.879  -0.572   3.395  0.00  0.00    +0.030 C 
ATOM      3  C   UNL     1      -2.314  -0.406   2.892  0.00  0.00    +0.020 C 
BRANCH   2   4
ATOM      4  C   UNL     1      -0.562  -2.039   3.534  0.00  0.00    -0.038 A 
ATOM      5  C   UNL     1       0.567  -2.562   2.931  0.00  0.00    +0.004 A 
ATOM      6  C   UNL     1       0.858  -3.907   3.059  0.00  0.00    +0.000 A 
ATOM      7  C   UNL     1       0.020  -4.729   3.789  0.00  0.00    +0.000 A 
ATOM      8  C   UNL     1      -1.108  -4.206   4.392  0.00  0.00    +0.000 A 
ATOM      9  C   UNL     1      -1.397  -2.860   4.269  0.00  0.00    +0.004 A 
ENDBRANCH   2   4
BRANCH   2  10
ATOM     10  C   UNL     1       0.088   0.067   2.396  0.00  0.00    +0.041 C 
BRANCH  10  13
ATOM     11  C   UNL     1      -0.569   1.792   0.269  0.00  0.00    +0.038 C 
ATOM     12  C   UNL     1      -0.488   0.306   0.036  0.00  0.00    -0.080 C 
ATOM     13  C   UNL     1      -0.166  -0.495   1.021  0.00  0.00    -0.027 C 
ATOM     14  C   UNL     1      -0.778  -0.260  -1.331  0.00  0.00    +0.038 C 
ENDBRANCH  10  13
ENDBRANCH   2  10
ENDBRANCH   1   2
BRANCH   1  15
ATOM     15  O   UNL     1      -1.636  -0.484   5.688  0.00  0.00    -0.463 OA
BRANCH  15  16
ATOM     16  C   UNL     1      -1.633   0.006   6.938  0.00  0.00    +0.321 C 
ATOM     17  O   UNL     1      -0.888   0.911   7.231  0.00  0.00    -0.250 OA
BRANCH  16  18
ATOM     18  C   UNL     1      -2.559  -0.573   7.977  0.00  0.00    +0.131 C 
ATOM     19  C   UNL     1      -2.339  -2.078   8.320  0.00  0.00    +0.026 C 
ATOM     20  C   UNL     1      -3.009  -2.264   9.701  0.00  0.00    +0.006 C 
ATOM     21  C   UNL     1      -3.576  -0.854  10.052  0.00  0.00    +0.003 C 
ATOM     22  C   UNL     1      -2.480   0.067   9.407  0.00  0.00    -0.009 C 
ATOM     23  C   UNL     1      -1.107  -0.134  10.053  0.00  0.00    +0.013 C 
ATOM     24  C   UNL     1      -2.896   1.539   9.402  0.00  0.00    +0.013 C 
ATOM     25  C   UNL     1      -4.758  -0.655   9.054  0.00  0.00    +0.079 C 
ATOM     26  C   UNL     1      -4.060  -0.441   7.684  0.00  0.00    +0.151 C 
ATOM     27  O   UNL     1      -4.582  -0.238   6.614  0.00  0.00    -0.296 OA
ENDBRANCH  16  18
ENDBRANCH  15  16
ENDBRANCH   1  15
TORSDOF 7
