REMARK  Name = ZINC20295655
REMARK  5 active torsions:
REMARK  status: ('A' for Active; 'I' for Inactive)
REMARK    1  A    between atoms: C_1  and  C_2
REMARK    2  A    between atoms: C_3  and  N_9
REMARK    3  A    between atoms: C_10  and  C_12
REMARK    4  A    between atoms: C_12  and  N_13
REMARK    5  A    between atoms: C_27  and  C_29
REMARK                            x       y       z     vdW  Elec       q    Type
REMARK                         _______ _______ _______ _____ _____    ______ ____
ROOT
ATOM      1  N   UNL     1      -2.167   3.304  -3.133  0.00  0.00    -0.305 N 
ATOM      2  C   UNL     1      -1.210   2.822  -4.003  0.00  0.00    +0.052 A 
ATOM      3  C   UNL     1      -1.211   3.178  -5.340  0.00  0.00    +0.025 A 
ATOM      4  C   UNL     1      -0.256   2.669  -6.199  0.00  0.00    +0.002 A 
ATOM      5  C   UNL     1       0.708   1.797  -5.723  0.00  0.00    +0.002 A 
ATOM      6  C   UNL     1       0.729   1.438  -4.394  0.00  0.00    +0.025 A 
ATOM      7  C   UNL     1      -0.224   1.948  -3.500  0.00  0.00    +0.052 A 
ATOM      8  N   UNL     1      -0.151   1.614  -2.204  0.00  0.00    -0.316 N 
ATOM      9  C   UNL     1      -1.010   1.337  -1.286  0.00  0.00    +0.017 C 
ATOM     10  C   UNL     1      -0.450   0.704  -0.024  0.00  0.00    +0.051 C 
ATOM     11  C   UNL     1      -1.371   0.993   1.159  0.00  0.00    +0.014 C 
ATOM     12  C   UNL     1      -2.765   0.458   0.820  0.00  0.00    +0.080 C 
ATOM     13  C   UNL     1      -3.248   1.152  -0.421  0.00  0.00    +0.163 C 
ATOM     14  C   UNL     1      -2.400   1.569  -1.385  0.00  0.00    +0.040 C 
ATOM     15  C   UNL     1      -2.993   2.280  -2.552  0.00  0.00    +0.175 C 
ATOM     16  O   UNL     1      -4.572   1.366  -0.577  0.00  0.00    -0.292 OA
ATOM     17  H   UNL     1       0.924   1.601  -1.972  0.00  0.00    +0.152 HD
ENDROOT
BRANCH  15  18
ATOM     18  C   UNL     1      -3.304   1.262  -3.618  0.00  0.00    +0.130 A 
ATOM     19  C   UNL     1      -4.515   0.733  -3.871  0.00  0.00    +0.047 A 
ATOM     20  C   UNL     1      -4.351  -0.172  -4.945  0.00  0.00    +0.041 A 
ATOM     21  C   UNL     1      -3.050  -0.141  -5.284  0.00  0.00    +0.195 A 
ATOM     22  O   UNL     1      -2.422   0.733  -4.481  0.00  0.00    -0.466 OA
ENDBRANCH  15  18
BRANCH   1  23
ATOM     23  C   UNL     1      -2.986   4.341  -3.774  0.00  0.00    +0.202 C 
BRANCH  23  25
ATOM     24  N   UNL     1      -4.690   5.998  -3.087  0.00  0.00    -0.284 N 
ATOM     25  C   UNL     1      -3.771   5.083  -2.722  0.00  0.00    +0.235 C 
ATOM     26  O   UNL     1      -3.575   4.855  -1.547  0.00  0.00    -0.274 OA
ATOM     27  H   UNL     1      -4.918   6.154  -4.152  0.00  0.00    +0.155 HD
BRANCH  24  30
ATOM     28  C   UNL     1      -5.397   8.682  -3.714  0.00  0.00    +0.047 C 
ATOM     29  C   UNL     1      -5.716   8.066  -2.376  0.00  0.00    -0.011 A 
ATOM     30  C   UNL     1      -5.353   6.752  -2.112  0.00  0.00    +0.038 A 
ATOM     31  C   UNL     1      -5.644   6.188  -0.877  0.00  0.00    +0.023 A 
ATOM     32  C   UNL     1      -6.298   6.934   0.084  0.00  0.00    +0.003 A 
ATOM     33  C   UNL     1      -6.664   8.240  -0.182  0.00  0.00    +0.020 A 
ATOM     34  C   UNL     1      -6.376   8.805  -1.413  0.00  0.00    +0.046 A 
ATOM     35 CL   UNL     1      -6.837  10.446  -1.743  0.00  0.00    -0.083 Cl
ENDBRANCH  24  30
ENDBRANCH  23  25
ENDBRANCH   1  23
TORSDOF 4
