REMARK  Name = ZINC38670592
REMARK  8 active torsions:
REMARK  status: ('A' for Active; 'I' for Inactive)
REMARK    1  A    between atoms: C_1  and  N_2
REMARK    2  A    between atoms: C_10  and  C_12
REMARK    3  A    between atoms: C_12  and  C_14
REMARK    4  A    between atoms: C_12  and  N_33
REMARK    5  A    between atoms: C_14  and  N_15
REMARK    6  A    between atoms: C_16  and  C_18
REMARK    7  A    between atoms: C_21  and  S_24
REMARK    8  A    between atoms: S_24  and  N_27
REMARK                            x       y       z     vdW  Elec       q    Type
REMARK                         _______ _______ _______ _____ _____    ______ ____
ROOT
ATOM      1  C   UNL     1       5.880  -2.624   0.731  0.00  0.00    +0.094 C 
ENDROOT
BRANCH   1   2
ATOM      2  N   UNL     1       5.285  -3.322   1.873  0.00  0.00    -0.313 N 
ATOM      3  C   UNL     1       5.970  -3.429   3.029  0.00  0.00    +0.244 C 
ATOM      4  O   UNL     1       7.081  -2.946   3.123  0.00  0.00    -0.270 OA
ATOM      5  H   UNL     1       4.397  -3.707   1.798  0.00  0.00    +0.149 HD
BRANCH   3   6
ATOM      6  C   UNL     1       5.369  -4.133   4.182  0.00  0.00    +0.037 A 
ATOM      7  C   UNL     1       4.095  -4.693   4.075  0.00  0.00    +0.015 A 
ATOM      8  C   UNL     1       3.540  -5.349   5.155  0.00  0.00    +0.029 A 
ATOM      9  C   UNL     1       4.244  -5.452   6.342  0.00  0.00    +0.106 A 
ATOM     10  C   UNL     1       5.507  -4.898   6.454  0.00  0.00    +0.029 A 
ATOM     11  C   UNL     1       6.076  -4.245   5.380  0.00  0.00    +0.015 A 
BRANCH   9  12
ATOM     12  S   UNL     1       3.528  -6.291   7.716  0.00  0.00    +0.061 S 
ATOM     13  O   UNL     1       4.161  -5.777   8.880  0.00  0.00    -0.153 OA
ATOM     14  O   UNL     1       2.120  -6.244   7.531  0.00  0.00    -0.153 OA
BRANCH  12  15
ATOM     15  N   UNL     1       3.969  -7.883   7.601  0.00  0.00    -0.177 NA
ATOM     16  C   UNL     1       3.135  -8.838   6.859  0.00  0.00    +0.109 C 
ATOM     17  C   UNL     1       4.007  -9.554   5.823  0.00  0.00    +0.017 C 
ATOM     18  C   UNL     1       5.213 -10.184   6.524  0.00  0.00    +0.003 C 
ATOM     19  C   UNL     1       6.050  -9.087   7.187  0.00  0.00    +0.017 C 
ATOM     20  C   UNL     1       5.204  -8.366   8.233  0.00  0.00    +0.109 C 
ENDBRANCH  12  15
ENDBRANCH   9  12
ENDBRANCH   3   6
ENDBRANCH   1   2
BRANCH   1  21
ATOM     21  C   UNL     1       4.947  -2.736  -0.477  0.00  0.00    -0.020 C 
BRANCH  21  31
ATOM     22  C   UNL     1       0.165   1.536   0.732  0.00  0.00    +0.129 C 
ATOM     23  N   UNL     1       0.140   0.078   0.589  0.00  0.00    -0.333 N 
ATOM     24  C   UNL     1      -1.123  -0.662   0.713  0.00  0.00    +0.105 C 
ATOM     25  C   UNL     1      -0.862  -1.891   1.593  0.00  0.00    +0.024 C 
ATOM     26  C   UNL     1       0.146  -2.798   0.888  0.00  0.00    +0.038 C 
ATOM     27  C   UNL     1       1.360  -2.012   0.468  0.00  0.00    -0.026 A 
ATOM     28  C   UNL     1       1.317  -0.632   0.327  0.00  0.00    +0.033 A 
ATOM     29  C   UNL     1       2.452   0.064  -0.072  0.00  0.00    +0.023 A 
ATOM     30  C   UNL     1       3.625  -0.617  -0.332  0.00  0.00    +0.004 A 
ATOM     31  C   UNL     1       3.668  -1.992  -0.195  0.00  0.00    -0.059 A 
ATOM     32  C   UNL     1       2.541  -2.688   0.212  0.00  0.00    +0.007 A 
ENDBRANCH  21  31
BRANCH  21  33
ATOM     33  N   UNL     1       5.602  -2.154  -1.657  0.00  0.00    +0.385 N 
ATOM     34  C   UNL     1       6.832  -2.917  -1.988  0.00  0.00    -0.078 C 
ATOM     35  C   UNL     1       7.067  -2.580  -3.482  0.00  0.00    -0.020 C 
ATOM     36  C   UNL     1       5.632  -2.531  -4.055  0.00  0.00    -0.020 C 
ATOM     37  C   UNL     1       4.722  -2.274  -2.839  0.00  0.00    -0.078 C 
ATOM     38  H   UNL     1       5.827  -1.185  -1.487  0.00  0.00    -0.081 HD
ENDBRANCH  21  33
ENDBRANCH   1  21
TORSDOF 7
