REMARK  Name = ZINC36743149
REMARK  5 active torsions:
REMARK  status: ('A' for Active; 'I' for Inactive)
REMARK    1  A    between atoms: C_3  and  N_12
REMARK    2  A    between atoms: C_4  and  C_8
REMARK    3  A    between atoms: C_6  and  N_7
REMARK    4  A    between atoms: N_12  and  S_13
REMARK    5  A    between atoms: S_13  and  N_16
REMARK                            x       y       z     vdW  Elec       q    Type
REMARK                         _______ _______ _______ _____ _____    ______ ____
ROOT
ATOM      1  C   UNL     1       0.080   1.111   0.435  0.00  0.00    +0.024 A 
ATOM      2  C   UNL     1       1.196   1.905   0.256  0.00  0.00    +0.027 A 
ATOM      3  C   UNL     1       2.453   1.325   0.161  0.00  0.00    +0.061 A 
ATOM      4  C   UNL     1       2.589  -0.055   0.245  0.00  0.00    +0.079 A 
ATOM      5  C   UNL     1       1.474  -0.849   0.424  0.00  0.00    +0.037 A 
ATOM      6  C   UNL     1       0.216  -0.268   0.519  0.00  0.00    +0.025 A 
ENDROOT
BRANCH   4   7
ATOM      7  C   UNL     1       3.954  -0.685   0.142  0.00  0.00    +0.419 C 
ATOM      8  F   UNL     1       3.836  -2.075   0.256  0.00  0.00    -0.166 F 
ATOM      9  F   UNL     1       4.523  -0.365  -1.095  0.00  0.00    -0.166 F 
ATOM     10  F   UNL     1       4.770  -0.201   1.170  0.00  0.00    -0.166 F 
ENDBRANCH   4   7
BRANCH   6  11
ATOM     11  N   UNL     1      -0.915  -1.073   0.701  0.00  0.00    -0.358 N 
ATOM     12  H   UNL     1      -1.793  -0.667   0.768  0.00  0.00    +0.142 HD
ATOM     13  H   UNL     1      -0.820  -2.036   0.760  0.00  0.00    +0.142 HD
ENDBRANCH   6  11
BRANCH   3  14
ATOM     14  N   UNL     1       3.584   2.130  -0.021  0.00  0.00    -0.206 N 
ATOM     15  H   UNL     1       4.319   1.816  -0.571  0.00  0.00    +0.175 HD
BRANCH  14  16
ATOM     16  S   UNL     1       3.667   3.617   0.703  0.00  0.00    +0.112 S 
ATOM     17  O   UNL     1       4.972   4.120   0.449  0.00  0.00    -0.138 OA
ATOM     18  O   UNL     1       2.492   4.320   0.322  0.00  0.00    -0.138 OA
BRANCH  16  19
ATOM     19  N   UNL     1       3.563   3.372   2.337  0.00  0.00    -0.164 NA
ATOM     20  C   UNL     1       2.257   3.357   3.010  0.00  0.00    +0.111 C 
ATOM     21  C   UNL     1       2.131   2.058   3.813  0.00  0.00    +0.017 C 
ATOM     22  C   UNL     1       3.328   1.929   4.759  0.00  0.00    +0.003 C 
ATOM     23  C   UNL     1       4.621   1.869   3.943  0.00  0.00    +0.017 C 
ATOM     24  C   UNL     1       4.775   3.160   3.141  0.00  0.00    +0.111 C 
ENDBRANCH  16  19
ENDBRANCH  14  16
ENDBRANCH   3  14
TORSDOF 5
