REMARK  Name = ZINC59889239
REMARK  5 active torsions:
REMARK  status: ('A' for Active; 'I' for Inactive)
REMARK    1  A    between atoms: C_3  and  C_6
REMARK    2  A    between atoms: C_8  and  N_12
REMARK    3  A    between atoms: C_13  and  C_15
REMARK    4  A    between atoms: C_15  and  N_16
REMARK    5  A    between atoms: C_23  and  C_26
REMARK                            x       y       z     vdW  Elec       q    Type
REMARK                         _______ _______ _______ _____ _____    ______ ____
ROOT
ATOM      1  C   UNL     1       9.087  -0.253  -0.106  0.00  0.00    +0.222 C 
ENDROOT
BRANCH   1   2
ATOM      2  N   UNL     1       9.173  -1.715  -0.119  0.00  0.00    -0.290 N 
ATOM      3  C   UNL     1       9.220  -2.390   1.058  0.00  0.00    +0.203 A 
ATOM      4  N   UNL     1       9.297  -3.693   1.086  0.00  0.00    -0.230 NA
ATOM      5  C   UNL     1       9.331  -4.402  -0.039  0.00  0.00    +0.116 A 
ATOM      6  C   UNL     1       9.287  -3.791  -1.303  0.00  0.00    +0.080 A 
ATOM      7  C   UNL     1       9.198  -2.363  -1.298  0.00  0.00    +0.263 A 
ATOM      8  O   UNL     1       9.150  -1.743  -2.347  0.00  0.00    -0.267 OA
ATOM      9  C   UNL     1       9.333  -4.710  -2.436  0.00  0.00    +0.010 A 
ATOM     10  C   UNL     1       9.413  -6.042  -2.192  0.00  0.00    +0.057 A 
ATOM     11  S   UNL     1       9.430  -6.134  -0.411  0.00  0.00    -0.076 S 
BRANCH   9  12
ATOM     12  C   UNL     1       9.294  -4.199  -3.822  0.00  0.00    +0.021 A 
ATOM     13  C   UNL     1      10.117  -4.497  -4.875  0.00  0.00    +0.016 A 
ATOM     14  C   UNL     1       9.883  -3.889  -6.091  0.00  0.00    +0.008 A 
ATOM     15  C   UNL     1       8.850  -3.017  -6.206  0.00  0.00    +0.046 A 
ATOM     16  S   UNL     1       8.156  -3.038  -4.562  0.00  0.00    -0.097 S 
ENDBRANCH   9  12
ENDBRANCH   1   2
BRANCH   1  18
ATOM     17  N   UNL     1       7.316   1.474  -0.070  0.00  0.00    -0.269 N 
ATOM     18  C   UNL     1       7.639   0.166  -0.085  0.00  0.00    +0.238 C 
ATOM     19  O   UNL     1       6.766  -0.675  -0.082  0.00  0.00    -0.273 OA
ATOM     20  H   UNL     1       8.015   2.146  -0.072  0.00  0.00    +0.156 HD
BRANCH  17  23
ATOM     21  C   UNL     1       3.740   1.825  -0.025  0.00  0.00    +0.101 A 
ATOM     22  C   UNL     1       4.902   1.028  -0.046  0.00  0.00    +0.074 A 
ATOM     23  C   UNL     1       5.976   1.861  -0.051  0.00  0.00    +0.121 A 
ATOM     24  N   UNL     1       5.511   3.138  -0.034  0.00  0.00    -0.263 N 
ATOM     25  H   UNL     1       6.054   3.942  -0.033  0.00  0.00    +0.190 HD
ATOM     26  N   UNL     1       4.111   3.090  -0.022  0.00  0.00    -0.172 NA
BRANCH  21  29
ATOM     27  C   UNL     1      -0.016   1.353   0.009  0.00  0.00    +0.008 A 
ATOM     28  C   UNL     1       1.178   2.041   0.002  0.00  0.00    +0.018 A 
ATOM     29  C   UNL     1       2.347   1.329  -0.013  0.00  0.00    +0.039 A 
ATOM     30  S   UNL     1       1.752  -0.354  -0.017  0.00  0.00    -0.095 S 
ATOM     31  C   UNL     1       0.002  -0.004   0.002  0.00  0.00    +0.046 A 
ENDBRANCH  21  29
ENDBRANCH  17  23
ENDBRANCH   1  18
TORSDOF 5
