REMARK  Name = ZINC33034270
REMARK  10 active torsions:
REMARK  status: ('A' for Active; 'I' for Inactive)
REMARK    1  A    between atoms: C_1  and  C_2
REMARK    2  A    between atoms: C_2  and  C_3
REMARK    3  A    between atoms: C_2  and  C_4
REMARK    4  A    between atoms: C_4  and  C_5
REMARK    5  A    between atoms: C_8  and  S_11
REMARK    6  A    between atoms: S_11  and  N_14
REMARK    7  A    between atoms: N_14  and  C_15
REMARK    8  A    between atoms: C_17  and  C_27
REMARK    9  A    between atoms: C_20  and  N_21
REMARK   10  A    between atoms: N_29  and  C_30
REMARK                            x       y       z     vdW  Elec       q    Type
REMARK                         _______ _______ _______ _____ _____    ______ ____
ROOT
ATOM      1  C   UNL     1      -1.486   8.040   3.701  0.00  0.00    +0.070 A 
ATOM      2  C   UNL     1      -0.132   8.188   3.940  0.00  0.00    +0.039 A 
ATOM      3  C   UNL     1       0.343   8.224   5.255  0.00  0.00    +0.039 A 
ATOM      4  C   UNL     1      -0.551   8.101   6.322  0.00  0.00    +0.015 A 
ATOM      5  C   UNL     1      -1.899   7.950   6.079  0.00  0.00    +0.026 A 
ATOM      6  C   UNL     1      -2.374   7.918   4.774  0.00  0.00    +0.052 A 
ENDROOT
BRANCH   6   7
ATOM      7  N   UNL     1      -3.738   7.765   4.533  0.00  0.00    -0.332 N 
ATOM      8  C   UNL     1      -4.452   7.404   5.765  0.00  0.00    +0.086 C 
ATOM      9  C   UNL     1      -5.930   7.168   5.444  0.00  0.00    -0.063 C 
ATOM     10  N   UNL     1      -6.499   8.383   4.845  0.00  0.00    +0.381 N 
ATOM     11  C   UNL     1      -5.784   8.743   3.612  0.00  0.00    -0.063 C 
ATOM     12  C   UNL     1      -4.307   8.980   3.934  0.00  0.00    +0.086 C 
ATOM     13  H   UNL     1      -7.558   8.210   4.602  0.00  0.00    -0.086 HD
ATOM     14  H   UNL     1      -6.418   9.216   5.558  0.00  0.00    -0.086 HD
ENDBRANCH   6   7
BRANCH   3  15
ATOM     15  C   UNL     1       1.786   8.386   5.515  0.00  0.00    +0.244 C 
ATOM     16  O   UNL     1       2.562   8.493   4.585  0.00  0.00    -0.270 OA
ATOM     17  N   UNL     1       2.243   8.416   6.782  0.00  0.00    -0.308 N 
ATOM     18  H   UNL     1       1.540   8.319   7.623  0.00  0.00    +0.149 HD
BRANCH  17  19
ATOM     19  C   UNL     1       3.676   8.577   7.040  0.00  0.00    +0.073 C 
ATOM     20  C   UNL     1       4.369   7.198   7.053  0.00  0.00    +0.022 C 
ATOM     21  C   UNL     1       5.437   7.321   8.167  0.00  0.00    +0.002 C 
ATOM     22  C   UNL     1       4.713   8.165   9.245  0.00  0.00    +0.002 C 
ATOM     23  C   UNL     1       3.895   9.191   8.434  0.00  0.00    +0.022 C 
ENDBRANCH  17  19
ENDBRANCH   3  15
BRANCH   1  24
ATOM     24  N   UNL     1      -1.966   8.008   2.386  0.00  0.00    -0.214 N 
ATOM     25  H   UNL     1      -2.338   8.929   1.914  0.00  0.00    +0.174 HD
BRANCH  24  26
ATOM     26  S   UNL     1      -1.973   6.583   1.543  0.00  0.00    +0.072 S 
ATOM     27  O   UNL     1      -0.668   6.034   1.661  0.00  0.00    -0.150 OA
ATOM     28  O   UNL     1      -2.573   6.859   0.285  0.00  0.00    -0.150 OA
BRANCH  26  32
ATOM     29  C   UNL     1      -4.764   3.755   3.712  0.00  0.00    -0.047 A 
ATOM     30  C   UNL     1      -3.423   3.794   4.046  0.00  0.00    +0.005 A 
ATOM     31  C   UNL     1      -2.570   4.655   3.381  0.00  0.00    +0.029 A 
ATOM     32  C   UNL     1      -3.060   5.483   2.388  0.00  0.00    +0.109 A 
ATOM     33  C   UNL     1      -4.402   5.448   2.058  0.00  0.00    +0.029 A 
ATOM     34  C   UNL     1      -5.254   4.584   2.720  0.00  0.00    +0.005 A 
BRANCH  29  35
ATOM     35  C   UNL     1      -5.694   2.814   4.435  0.00  0.00    +0.038 C 
BRANCH  35  37
ATOM     36  C   UNL     1      -6.776   0.563   4.355  0.00  0.00    +0.007 C 
ATOM     37  C   UNL     1      -5.740   1.476   3.695  0.00  0.00    -0.013 C 
ATOM     38  C   UNL     1      -4.363   0.811   3.756  0.00  0.00    +0.007 C 
ENDBRANCH  35  37
ENDBRANCH  29  35
ENDBRANCH  26  32
ENDBRANCH  24  26
ENDBRANCH   1  24
TORSDOF 8
