REMARK  Name = ZINC36066168
REMARK  12 active torsions:
REMARK  status: ('A' for Active; 'I' for Inactive)
REMARK    1  A    between atoms: C_1  and  C_2
REMARK    2  A    between atoms: C_7  and  N_12
REMARK    3  A    between atoms: C_9  and  C_11
REMARK    4  A    between atoms: C_13  and  C_15
REMARK    5  A    between atoms: C_23  and  C_34
REMARK    6  A    between atoms: N_29  and  C_30
REMARK    7  A    between atoms: C_30  and  C_31
REMARK    8  A    between atoms: C_31  and  O_32
REMARK    9  A    between atoms: O_32  and  C_33
REMARK   10  A    between atoms: N_36  and  C_37
REMARK   11  A    between atoms: C_40  and  O_43
REMARK   12  A    between atoms: O_43  and  C_44
REMARK                            x       y       z     vdW  Elec       q    Type
REMARK                         _______ _______ _______ _____ _____    ______ ____
ROOT
ATOM      1  C   UNL     1       1.191  -4.226   3.575  0.00  0.00    +0.198 C 
ATOM      2  C   UNL     1       2.597  -4.711   3.399  0.00  0.00    +0.127 C 
ATOM      3  C   UNL     1       2.755  -5.644   2.212  0.00  0.00    +0.009 C 
ATOM      4  C   UNL     1       4.037  -5.976   2.184  0.00  0.00    +0.004 C 
ATOM      5  C   UNL     1       4.653  -5.285   3.406  0.00  0.00    +0.155 C 
ATOM      6  O   UNL     1       3.834  -4.044   3.483  0.00  0.00    -0.358 OA
ATOM      7  C   UNL     1       4.090  -6.152   4.598  0.00  0.00    +0.123 C 
ATOM      8  C   UNL     1       2.684  -5.566   4.727  0.00  0.00    +0.128 C 
ATOM      9  C   UNL     1       1.409  -6.301   4.651  0.00  0.00    +0.223 C 
ATOM     10  O   UNL     1       1.203  -7.432   5.037  0.00  0.00    -0.275 OA
ATOM     11  N   UNL     1       0.496  -5.460   4.060  0.00  0.00    -0.284 N 
ENDROOT
BRANCH   1  13
ATOM     12  N   UNL     1       0.662  -2.459   1.927  0.00  0.00    -0.311 N 
ATOM     13  C   UNL     1       0.614  -3.763   2.262  0.00  0.00    +0.237 C 
ATOM     14  O   UNL     1       0.105  -4.565   1.507  0.00  0.00    -0.274 OA
ATOM     15  H   UNL     1       1.069  -1.818   2.531  0.00  0.00    +0.149 HD
BRANCH  12  21
ATOM     16  C   UNL     1      -1.270   1.411  -0.467  0.00  0.00    +0.008 C 
ATOM     17  C   UNL     1      -0.878  -0.064  -0.574  0.00  0.00    -0.009 C 
ATOM     18  C   UNL     1       0.165  -0.235  -1.680  0.00  0.00    +0.003 C 
ATOM     19  C   UNL     1       0.557  -1.711  -1.787  0.00  0.00    +0.002 C 
ATOM     20  C   UNL     1       1.144  -2.180  -0.454  0.00  0.00    +0.022 C 
ATOM     21  C   UNL     1       0.100  -2.009   0.651  0.00  0.00    +0.076 C 
ATOM     22  C   UNL     1      -0.291  -0.534   0.758  0.00  0.00    +0.009 C 
ATOM     23  C   UNL     1      -1.335  -0.362   1.864  0.00  0.00    +0.009 C 
ENDBRANCH  12  21
ENDBRANCH   1  13
BRANCH   7  24
ATOM     24  C   UNL     1       4.055  -7.614   4.233  0.00  0.00    +0.224 C 
ATOM     25  O   UNL     1       2.997  -8.208   4.209  0.00  0.00    -0.275 OA
ATOM     26  N   UNL     1       5.198  -8.262   3.934  0.00  0.00    -0.285 N 
ATOM     27  H   UNL     1       6.034  -7.772   3.885  0.00  0.00    +0.155 HD
BRANCH  26  28
ATOM     28  C   UNL     1       5.179  -9.642   3.693  0.00  0.00    +0.034 A 
ATOM     29  C   UNL     1       6.054 -10.198   2.769  0.00  0.00    +0.027 A 
ATOM     30  C   UNL     1       6.035 -11.558   2.533  0.00  0.00    +0.047 A 
ATOM     31  C   UNL     1       5.143 -12.369   3.218  0.00  0.00    +0.120 A 
ATOM     32  C   UNL     1       4.268 -11.814   4.141  0.00  0.00    +0.047 A 
ATOM     33  C   UNL     1       4.290 -10.455   4.383  0.00  0.00    +0.027 A 
BRANCH  31  34
ATOM     34  O   UNL     1       5.125 -13.709   2.985  0.00  0.00    -0.495 OA
ATOM     35  C   UNL     1       4.180 -14.483   3.726  0.00  0.00    +0.277 C 
ENDBRANCH  31  34
ENDBRANCH  26  28
ENDBRANCH   7  24
BRANCH  11  36
ATOM     36  C   UNL     1      -0.937  -5.729   3.925  0.00  0.00    +0.136 C 
BRANCH  36  37
ATOM     37  C   UNL     1      -1.684  -5.125   5.117  0.00  0.00    +0.178 C 
BRANCH  37  38
ATOM     38  O   UNL     1      -1.562  -3.702   5.083  0.00  0.00    -0.381 OA
ATOM     39  C   UNL     1      -2.228  -3.037   6.159  0.00  0.00    +0.194 C 
ENDBRANCH  37  38
ENDBRANCH  36  37
ENDBRANCH  11  36
TORSDOF 8
