REMARK  Name = ZINC63437326
REMARK  11 active torsions:
REMARK  status: ('A' for Active; 'I' for Inactive)
REMARK    1  A    between atoms: C_1  and  C_2
REMARK    2  A    between atoms: C_2  and  C_3
REMARK    3  A    between atoms: C_2  and  C_4
REMARK    4  A    between atoms: C_4  and  C_5
REMARK    5  A    between atoms: C_5  and  N_6
REMARK    6  A    between atoms: C_7  and  C_9
REMARK    7  A    between atoms: C_9  and  C_11
REMARK    8  A    between atoms: C_9  and  N_21
REMARK    9  A    between atoms: C_11  and  C_12
REMARK   10  A    between atoms: C_22  and  C_24
REMARK   11  A    between atoms: C_27  and  C_30
REMARK                            x       y       z     vdW  Elec       q    Type
REMARK                         _______ _______ _______ _____ _____    ______ ____
ROOT
ATOM      1  C   UNL     1       0.889  -0.875   6.279  0.00  0.00    +0.163 C 
ENDROOT
BRANCH   1   3
ATOM      2  N   UNL     1       0.325  -1.190   3.892  0.00  0.00    -0.314 N 
ATOM      3  C   UNL     1      -0.025  -0.694   5.095  0.00  0.00    +0.234 C 
ATOM      4  O   UNL     1      -1.075  -0.102   5.225  0.00  0.00    -0.274 OA
ATOM      5  H   UNL     1       1.165  -1.663   3.788  0.00  0.00    +0.149 HD
BRANCH   2   6
ATOM      6  C   UNL     1      -0.564  -1.014   2.740  0.00  0.00    +0.104 C 
BRANCH   6   7
ATOM      7  C   UNL     1       0.064  -1.665   1.507  0.00  0.00    +0.022 C 
BRANCH   7   9
ATOM      8  C   UNL     1      -0.971   0.007  -0.034  0.00  0.00    +0.007 C 
ATOM      9  C   UNL     1      -0.864  -1.481   0.304  0.00  0.00    -0.016 C 
ATOM     10  C   UNL     1      -0.297  -2.238  -0.898  0.00  0.00    +0.007 C 
ENDBRANCH   7   9
ENDBRANCH   6   7
ENDBRANCH   2   6
ENDBRANCH   1   3
BRANCH   1  11
ATOM     11  N   UNL     1       0.288  -0.251   7.460  0.00  0.00    -0.300 N 
ATOM     12  C   UNL     1       0.582  -0.715   8.691  0.00  0.00    +0.245 C 
ATOM     13  O   UNL     1       1.347  -1.652   8.821  0.00  0.00    -0.270 OA
ATOM     14  H   UNL     1      -0.322   0.496   7.357  0.00  0.00    +0.150 HD
BRANCH  12  15
ATOM     15  C   UNL     1      -0.025  -0.086   9.883  0.00  0.00    +0.037 A 
ATOM     16  C   UNL     1      -0.907   0.986   9.737  0.00  0.00    +0.013 A 
ATOM     17  C   UNL     1      -1.470   1.569  10.854  0.00  0.00    +0.005 A 
ATOM     18  C   UNL     1      -1.162   1.093  12.116  0.00  0.00    -0.041 A 
ATOM     19  C   UNL     1      -0.287   0.032  12.268  0.00  0.00    +0.005 A 
ATOM     20  C   UNL     1       0.278  -0.564  11.159  0.00  0.00    +0.013 A 
BRANCH  18  21
ATOM     21  C   UNL     1      -1.780   1.735  13.331  0.00  0.00    -0.003 C 
ATOM     22  C   UNL     1      -3.304   1.616  13.251  0.00  0.00    +0.015 C 
ATOM     23  C   UNL     1      -3.932   2.267  14.485  0.00  0.00    -0.010 C 
ATOM     24  C   UNL     1      -3.430   1.561  15.746  0.00  0.00    +0.007 C 
ATOM     25  C   UNL     1      -1.907   1.680  15.826  0.00  0.00    -0.010 C 
ATOM     26  C   UNL     1      -1.279   1.029  14.592  0.00  0.00    +0.015 C 
ATOM     27  C   UNL     1      -1.513   3.158  15.878  0.00  0.00    +0.007 C 
ATOM     28  C   UNL     1      -2.015   3.864  14.617  0.00  0.00    -0.010 C 
ATOM     29  C   UNL     1      -3.538   3.745  14.537  0.00  0.00    +0.007 C 
ATOM     30  C   UNL     1      -1.387   3.213  13.384  0.00  0.00    +0.015 C 
ENDBRANCH  18  21
ENDBRANCH  12  15
ENDBRANCH   1  11
BRANCH   1  31
ATOM     31  C   UNL     1       2.240  -0.218   5.987  0.00  0.00    +0.065 C 
BRANCH  31  32
ATOM     32  C   UNL     1       2.043   1.262   5.780  0.00  0.00    -0.039 C 
ATOM     33  C   UNL     1       2.167   2.237   6.710  0.00  0.00    -0.001 A 
ATOM     34  C   UNL     1       2.508   2.211   8.137  0.00  0.00    +0.010 A 
ATOM     35  C   UNL     1       2.554   3.377   8.822  0.00  0.00    +0.001 A 
ATOM     36  C   UNL     1       2.284   4.606   8.203  0.00  0.00    +0.002 A 
ATOM     37  C   UNL     1       1.964   4.710   6.896  0.00  0.00    +0.026 A 
ATOM     38  C   UNL     1       1.888   3.547   6.080  0.00  0.00    +0.043 A 
ATOM     39  N   UNL     1       1.602   3.389   4.810  0.00  0.00    -0.380 N 
ATOM     40  C   UNL     1       1.674   1.959   4.489  0.00  0.00    +0.144 C 
ATOM     41  H   UNL     1       1.384   4.099   4.187  0.00  0.00    +0.160 HD
ENDBRANCH  31  32
ENDBRANCH   1  31
TORSDOF 9
