REMARK  Name = ZINC35972590
REMARK  15 active torsions:
REMARK  status: ('A' for Active; 'I' for Inactive)
REMARK    1  A    between atoms: C_1  and  C_2
REMARK    2  A    between atoms: C_2  and  C_3
REMARK    3  A    between atoms: C_3  and  N_4
REMARK    4  A    between atoms: C_5  and  C_24
REMARK    5  A    between atoms: C_7  and  C_17
REMARK    6  A    between atoms: N_19  and  C_20
REMARK    7  A    between atoms: C_20  and  C_21
REMARK    8  A    between atoms: C_20  and  C_22
REMARK    9  A    between atoms: C_20  and  C_23
REMARK   10  A    between atoms: C_26  and  O_34
REMARK   11  A    between atoms: C_27  and  O_32
REMARK   12  A    between atoms: C_28  and  O_30
REMARK   13  A    between atoms: O_30  and  C_31
REMARK   14  A    between atoms: O_32  and  C_33
REMARK   15  A    between atoms: O_34  and  C_35
REMARK                            x       y       z     vdW  Elec       q    Type
REMARK                         _______ _______ _______ _____ _____    ______ ____
ROOT
ATOM      1  N   UNL     1       0.488  -1.909  -0.530  0.00  0.00    -0.289 N 
ATOM      2  C   UNL     1       1.425  -2.893   0.005  0.00  0.00    +0.123 C 
ATOM      3  C   UNL     1       0.684  -4.029   0.706  0.00  0.00    +0.130 C 
ATOM      4  C   UNL     1      -0.396  -4.574  -0.191  0.00  0.00    -0.021 A 
ATOM      5  C   UNL     1      -0.730  -5.911  -0.156  0.00  0.00    +0.005 A 
ATOM      6  C   UNL     1      -1.735  -6.394  -0.977  0.00  0.00    +0.000 A 
ATOM      7  C   UNL     1      -2.409  -5.542  -1.834  0.00  0.00    +0.001 A 
ATOM      8  C   UNL     1      -2.080  -4.202  -1.882  0.00  0.00    +0.013 A 
ATOM      9  C   UNL     1      -1.064  -3.713  -1.062  0.00  0.00    +0.041 A 
ATOM     10  C   UNL     1      -0.665  -2.292  -1.111  0.00  0.00    +0.247 C 
ATOM     11  O   UNL     1      -1.369  -1.476  -1.675  0.00  0.00    -0.270 OA
ENDROOT
BRANCH   2  12
ATOM     12  C   UNL     1       2.245  -3.462  -1.125  0.00  0.00    -0.019 A 
ATOM     13  C   UNL     1       1.625  -3.857  -2.296  0.00  0.00    +0.055 A 
ATOM     14  C   UNL     1       2.376  -4.381  -3.337  0.00  0.00    +0.165 A 
ATOM     15  C   UNL     1       3.753  -4.508  -3.203  0.00  0.00    +0.204 A 
ATOM     16  C   UNL     1       4.372  -4.109  -2.025  0.00  0.00    +0.165 A 
ATOM     17  C   UNL     1       3.615  -3.582  -0.990  0.00  0.00    +0.055 A 
BRANCH  16  18
ATOM     18  O   UNL     1       5.720  -4.232  -1.889  0.00  0.00    -0.491 OA
ATOM     19  C   UNL     1       6.280  -3.875  -0.624  0.00  0.00    +0.277 C 
ENDBRANCH  16  18
BRANCH  15  20
ATOM     20  O   UNL     1       4.493  -5.022  -4.223  0.00  0.00    -0.488 OA
ATOM     21  C   UNL     1       5.000  -4.097  -5.187  0.00  0.00    +0.277 C 
ENDBRANCH  15  20
BRANCH  14  22
ATOM     22  O   UNL     1       1.764  -4.770  -4.488  0.00  0.00    -0.491 OA
ATOM     23  C   UNL     1       0.346  -4.610  -4.556  0.00  0.00    +0.277 C 
ENDBRANCH  14  22
ENDBRANCH   2  12
BRANCH   3  24
ATOM     24  C   UNL     1       1.658  -5.130   1.038  0.00  0.00    +0.223 C 
ATOM     25  O   UNL     1       1.978  -5.934   0.188  0.00  0.00    -0.275 OA
ATOM     26  N   UNL     1       2.172  -5.223   2.281  0.00  0.00    -0.310 N 
ATOM     27  H   UNL     1       1.861  -4.627   2.980  0.00  0.00    +0.149 HD
BRANCH  26  28
ATOM     28  C   UNL     1       3.201  -6.223   2.575  0.00  0.00    +0.026 C 
ATOM     29  C   UNL     1       4.404  -6.003   1.655  0.00  0.00    +0.031 C 
ATOM     30  C   UNL     1       3.643  -6.087   4.033  0.00  0.00    +0.031 C 
ATOM     31  C   UNL     1       2.632  -7.624   2.343  0.00  0.00    +0.031 C 
ENDBRANCH  26  28
ENDBRANCH   3  24
BRANCH   1  32
ATOM     32  C   UNL     1       0.804  -0.482  -0.428  0.00  0.00    +0.108 C 
BRANCH  32  34
ATOM     33  C   UNL     1       0.582   1.560   0.994  0.00  0.00    +0.005 C 
ATOM     34  C   UNL     1       0.252   0.070   0.887  0.00  0.00    +0.016 C 
ENDBRANCH  32  34
ENDBRANCH   1  32
TORSDOF 8
