REMARK  Name = ZINC32603985
REMARK  5 active torsions:
REMARK  status: ('A' for Active; 'I' for Inactive)
REMARK    1  A    between atoms: C_1  and  C_2
REMARK    2  A    between atoms: C_6  and  N_9
REMARK    3  A    between atoms: C_7  and  C_8
REMARK    4  A    between atoms: N_9  and  C_10
REMARK    5  A    between atoms: N_20  and  C_23
REMARK                            x       y       z     vdW  Elec       q    Type
REMARK                         _______ _______ _______ _____ _____    ______ ____
ROOT
ATOM      1  C   UNL     1      -0.809   1.620   1.218  0.00  0.00    +0.118 C 
ATOM      2  C   UNL     1      -0.013   1.086   0.008  0.00  0.00    +0.033 C 
ATOM      3  C   UNL     1      -0.832   1.633  -1.181  0.00  0.00    +0.044 C 
ATOM      4  C   UNL     1      -1.530   2.863  -0.643  0.00  0.00    +0.038 A 
ATOM      5  C   UNL     1      -1.518   2.857   0.706  0.00  0.00    +0.049 A 
ATOM      6  N   UNL     1      -2.103   3.891   1.391  0.00  0.00    -0.309 N 
ATOM      7  H   UNL     1      -2.099   3.894   2.491  0.00  0.00    +0.170 HD
ATOM      8  C   UNL     1      -2.688   4.908   0.734  0.00  0.00    +0.330 A 
ATOM      9  O   UNL     1      -3.199   5.813   1.364  0.00  0.00    -0.246 OA
ATOM     10  N   UNL     1      -2.713   4.938  -0.611  0.00  0.00    -0.258 N 
ATOM     11  C   UNL     1      -2.150   3.942  -1.322  0.00  0.00    +0.260 A 
ATOM     12  O   UNL     1      -2.172   3.968  -2.539  0.00  0.00    -0.267 OA
ENDROOT
BRANCH  10  13
ATOM     13  C   UNL     1      -3.356   6.057  -1.305  0.00  0.00    +0.095 C 
ATOM     14  C   UNL     1      -2.660   7.364  -0.918  0.00  0.00    +0.025 C 
ATOM     15  C   UNL     1      -3.331   8.533  -1.642  0.00  0.00    +0.002 C 
ATOM     16  C   UNL     1      -4.806   8.602  -1.241  0.00  0.00    +0.000 C 
ATOM     17  C   UNL     1      -5.502   7.295  -1.628  0.00  0.00    +0.002 C 
ATOM     18  C   UNL     1      -4.830   6.127  -0.904  0.00  0.00    +0.025 C 
ENDBRANCH  10  13
BRANCH   1  19
ATOM     19  N   UNL     1       0.100   1.970   2.312  0.00  0.00    -0.335 N 
ATOM     20  H   UNL     1       1.146   2.234   2.094  0.00  0.00    +0.147 HD
BRANCH  19  26
ATOM     21  C   UNL     1       0.977   2.660   7.098  0.00  0.00    +0.044 C 
ATOM     22  C   UNL     1       0.043   2.300   5.971  0.00  0.00    -0.046 A 
ATOM     23  C   UNL     1      -1.272   1.969   6.243  0.00  0.00    +0.004 A 
ATOM     24  C   UNL     1      -2.132   1.638   5.212  0.00  0.00    +0.002 A 
ATOM     25  C   UNL     1      -1.681   1.643   3.906  0.00  0.00    +0.023 A 
ATOM     26  C   UNL     1      -0.360   1.970   3.631  0.00  0.00    +0.031 A 
ATOM     27  C   UNL     1       0.501   2.302   4.669  0.00  0.00    -0.027 A 
ATOM     28  C   UNL     1       1.935   2.662   4.374  0.00  0.00    +0.046 C 
ENDBRANCH  19  26
ENDBRANCH   1  19
TORSDOF 3
