REMARK  Name = ZINC40824343
REMARK  6 active torsions:
REMARK  status: ('A' for Active; 'I' for Inactive)
REMARK    1  A    between atoms: C_1  and  C_2
REMARK    2  A    between atoms: C_6  and  C_7
REMARK    3  A    between atoms: N_9  and  C_10
REMARK    4  A    between atoms: C_10  and  C_11
REMARK    5  A    between atoms: C_10  and  C_12
REMARK    6  A    between atoms: N_17  and  N_18
REMARK                            x       y       z     vdW  Elec       q    Type
REMARK                         _______ _______ _______ _____ _____    ______ ____
ROOT
ATOM      1  C   UNL     1      -0.018   1.503   0.010  0.00  0.00    +0.048 C 
ATOM      2  C   UNL     1       0.002  -0.004   0.002  0.00  0.00    +0.009 A 
ATOM      3  C   UNL     1       0.008  -0.838  -1.123  0.00  0.00    +0.042 A 
ATOM      4  C   UNL     1       0.026  -2.137  -0.673  0.00  0.00    +0.115 A 
ATOM      5  O   UNL     1       0.034  -2.112   0.658  0.00  0.00    -0.454 OA
ATOM      6  C   UNL     1       0.024  -0.830   1.091  0.00  0.00    +0.193 A 
ATOM      7  C   UNL     1       0.033  -3.326  -1.600  0.00  0.00    +0.075 C 
ATOM      8  C   UNL     1      -0.492  -2.902  -2.974  0.00  0.00    +0.014 C 
ATOM      9  C   UNL     1       0.280  -1.685  -3.495  0.00  0.00    +0.058 C 
ATOM     10  C   UNL     1       0.001  -0.512  -2.566  0.00  0.00    +0.070 C 
ATOM     11  N   UNL     1      -0.227   0.686  -3.008  0.00  0.00    -0.183 NA
ENDROOT
BRANCH  11  12
ATOM     12  N   UNL     1      -0.222   0.938  -4.386  0.00  0.00    -0.191 N 
ATOM     13  C   UNL     1      -0.458   2.183  -4.845  0.00  0.00    +0.317 C 
ATOM     14  O   UNL     1      -0.454   2.401  -6.041  0.00  0.00    -0.251 OA
ATOM     15  N   UNL     1      -0.700   3.186  -3.977  0.00  0.00    -0.312 N 
ATOM     16  H   UNL     1      -0.048   0.216  -5.010  0.00  0.00    +0.179 HD
ATOM     17  H   UNL     1      -0.703   3.012  -3.023  0.00  0.00    +0.147 HD
ATOM     18  H   UNL     1      -0.870   4.082  -4.308  0.00  0.00    +0.147 HD
ENDBRANCH  11  12
BRANCH   6  19
ATOM     19  C   UNL     1       0.032  -0.400   2.494  0.00  0.00    +0.280 C 
ATOM     20  O   UNL     1       0.019   0.786   2.766  0.00  0.00    -0.267 OA
ATOM     21  N   UNL     1       0.054  -1.317   3.480  0.00  0.00    -0.306 N 
ATOM     22  H   UNL     1       0.065  -2.263   3.263  0.00  0.00    +0.149 HD
BRANCH  21  23
ATOM     23  C   UNL     1       0.062  -0.887   4.881  0.00  0.00    +0.067 C 
ATOM     24  C   UNL     1      -1.373  -0.637   5.346  0.00  0.00    +0.027 C 
ATOM     25  C   UNL     1       0.696  -1.979   5.746  0.00  0.00    +0.027 C 
ENDBRANCH  21  23
ENDBRANCH   6  19
TORSDOF 3
