REMARK  Name = ZINC12474939
REMARK  10 active torsions:
REMARK  status: ('A' for Active; 'I' for Inactive)
REMARK    1  A    between atoms: C_1  and  O_2
REMARK    2  A    between atoms: O_2  and  C_3
REMARK    3  A    between atoms: C_6  and  C_9
REMARK    4  A    between atoms: C_9  and  C_11
REMARK    5  A    between atoms: C_9  and  N_20
REMARK    6  A    between atoms: N_13  and  C_14
REMARK    7  A    between atoms: N_20  and  C_21
REMARK    8  A    between atoms: C_21  and  C_22
REMARK    9  A    between atoms: C_27  and  C_29
REMARK   10  A    between atoms: C_29  and  C_30
REMARK                            x       y       z     vdW  Elec       q    Type
REMARK                         _______ _______ _______ _____ _____    ______ ____
ROOT
ATOM      1  N   UNL     1       2.056  -3.440   4.815  0.00  0.00    -0.281 N 
ATOM      2  C   UNL     1       1.415  -2.635   5.685  0.00  0.00    +0.221 C 
ATOM      3  O   UNL     1       1.208  -1.475   5.396  0.00  0.00    -0.275 OA
ENDROOT
BRANCH   1   4
ATOM      4  C   UNL     1       2.503  -2.916   3.522  0.00  0.00    +0.193 C 
BRANCH   4   8
ATOM      5  C   UNL     1       0.218  -4.711   0.390  0.00  0.00    +0.120 A 
ATOM      6  C   UNL     1       0.413  -3.338   0.408  0.00  0.00    +0.046 A 
ATOM      7  C   UNL     1       1.152  -2.760   1.422  0.00  0.00    +0.009 A 
ATOM      8  C   UNL     1       1.697  -3.549   2.418  0.00  0.00    -0.018 A 
ATOM      9  C   UNL     1       1.504  -4.918   2.402  0.00  0.00    +0.009 A 
ATOM     10  C   UNL     1       0.761  -5.500   1.393  0.00  0.00    +0.046 A 
BRANCH   5  12
ATOM     11  C   UNL     1      -1.038  -4.409  -1.607  0.00  0.00    +0.277 C 
ATOM     12  O   UNL     1      -0.509  -5.282  -0.607  0.00  0.00    -0.495 OA
ENDBRANCH   5  12
ENDBRANCH   4   8
BRANCH   4  13
ATOM     13  C   UNL     1       3.962  -3.236   3.327  0.00  0.00    +0.238 C 
ATOM     14  O   UNL     1       4.507  -4.047   4.047  0.00  0.00    -0.273 OA
ATOM     15  N   UNL     1       4.663  -2.623   2.353  0.00  0.00    -0.311 N 
ATOM     16  H   UNL     1       4.227  -1.975   1.777  0.00  0.00    +0.149 HD
BRANCH  15  17
ATOM     17  C   UNL     1       6.082  -2.935   2.163  0.00  0.00    +0.073 C 
ATOM     18  C   UNL     1       6.924  -2.075   3.107  0.00  0.00    +0.022 C 
ATOM     19  C   UNL     1       8.405  -2.401   2.909  0.00  0.00    +0.002 C 
ATOM     20  C   UNL     1       8.803  -2.107   1.461  0.00  0.00    +0.000 C 
ATOM     21  C   UNL     1       7.960  -2.967   0.516  0.00  0.00    +0.002 C 
ATOM     22  C   UNL     1       6.479  -2.641   0.715  0.00  0.00    +0.022 C 
ENDBRANCH  15  17
ENDBRANCH   4  13
ENDBRANCH   1   4
BRANCH   1  23
ATOM     23  C   UNL     1       2.307  -4.841   5.163  0.00  0.00    +0.151 C 
BRANCH  23  24
ATOM     24  C   UNL     1       3.186  -4.906   6.386  0.00  0.00    +0.007 A 
ATOM     25  C   UNL     1       2.862  -5.265   7.652  0.00  0.00    +0.013 A 
ATOM     26  C   UNL     1       3.844  -5.251   8.625  0.00  0.00    +0.008 A 
ATOM     27  C   UNL     1       5.101  -4.877   8.284  0.00  0.00    +0.045 A 
ATOM     28  S   UNL     1       4.926  -4.536   6.540  0.00  0.00    -0.100 S 
ENDBRANCH  23  24
ENDBRANCH   1  23
BRANCH   2  29
ATOM     29  C   UNL     1       0.956  -3.174   7.014  0.00  0.00    +0.133 C 
BRANCH  29  30
ATOM     30  C   UNL     1       0.272  -2.079   7.792  0.00  0.00    -0.014 A 
ATOM     31  C   UNL     1       0.837  -1.278   8.709  0.00  0.00    +0.087 A 
ATOM     32  N   UNL     1      -0.093  -0.405   9.203  0.00  0.00    -0.360 N 
ATOM     33  H   UNL     1       0.080   0.271   9.877  0.00  0.00    +0.165 HD
ATOM     34  C   UNL     1      -1.311  -0.629   8.601  0.00  0.00    +0.047 A 
ATOM     35  C   UNL     1      -1.135  -1.683   7.686  0.00  0.00    +0.003 A 
ATOM     36  C   UNL     1      -2.213  -2.128   6.919  0.00  0.00    +0.010 A 
ATOM     37  C   UNL     1      -3.435  -1.533   7.058  0.00  0.00    +0.001 A 
ATOM     38  C   UNL     1      -3.614  -0.490   7.956  0.00  0.00    +0.002 A 
ATOM     39  C   UNL     1      -2.565  -0.042   8.730  0.00  0.00    +0.026 A 
ENDBRANCH  29  30
ENDBRANCH   2  29
TORSDOF 9
