REMARK  Name = ZINC00465783
REMARK  5 active torsions:
REMARK  status: ('A' for Active; 'I' for Inactive)
REMARK    1  A    between atoms: C_1  and  C_2
REMARK    2  A    between atoms: C_3  and  C_21
REMARK    3  A    between atoms: C_7  and  N_8
REMARK    4  A    between atoms: C_9  and  C_11
REMARK    5  A    between atoms: C_16  and  N_17
REMARK                            x       y       z     vdW  Elec       q    Type
REMARK                         _______ _______ _______ _____ _____    ______ ____
ROOT
ATOM      1  N   UNL     1       0.087  -0.087   2.438  0.00  0.00    -0.281 N 
ATOM      2  C   UNL     1      -0.019  -0.744   3.610  0.00  0.00    +0.250 C 
ATOM      3  O   UNL     1      -0.008  -1.959   3.630  0.00  0.00    -0.270 OA
ATOM      4  H   UNL     1       0.139   0.881   2.427  0.00  0.00    +0.155 HD
ENDROOT
BRANCH   1  11
ATOM      5  C   UNL     1      -1.150   1.068   0.151  0.00  0.00    +0.046 C 
ATOM      6  C   UNL     1      -0.471  -0.276   0.096  0.00  0.00    -0.025 A 
ATOM      7  C   UNL     1      -0.431  -0.982  -1.091  0.00  0.00    -0.032 A 
ATOM      8  C   UNL     1       0.193  -2.216  -1.142  0.00  0.00    +0.021 A 
ATOM      9  C   UNL     1       0.778  -2.746  -0.005  0.00  0.00    +0.017 A 
ATOM     10  C   UNL     1       0.742  -2.044   1.183  0.00  0.00    +0.024 A 
ATOM     11  C   UNL     1       0.121  -0.803   1.236  0.00  0.00    +0.037 A 
ATOM     12 BR   UNL     1       0.245  -3.180  -2.768  0.00  0.00    -0.050 Br
ATOM     13  C   UNL     1      -1.068  -0.409  -2.330  0.00  0.00    +0.045 C 
ENDBRANCH   1  11
BRANCH   2  14
ATOM     14  C   UNL     1      -0.147   0.015   4.873  0.00  0.00    +0.067 A 
ATOM     15  C   UNL     1       0.805   0.977   5.213  0.00  0.00    +0.015 A 
ATOM     16  C   UNL     1       0.679   1.681   6.392  0.00  0.00    +0.001 A 
ATOM     17  C   UNL     1      -0.388   1.435   7.238  0.00  0.00    +0.002 A 
ATOM     18  C   UNL     1      -1.336   0.483   6.907  0.00  0.00    +0.033 A 
ATOM     19  C   UNL     1      -1.225  -0.224   5.727  0.00  0.00    +0.138 A 
BRANCH  19  20
ATOM     20  N   UNL     1      -2.243  -1.238   5.371  0.00  0.00    +0.057 N 
ATOM     21  O   UNL     1      -3.108  -1.529   6.163  0.00  0.00    -0.126 OA
ATOM     22  O   UNL     1      -2.209  -1.774   4.288  0.00  0.00    -0.126 OA
ENDBRANCH  19  20
ENDBRANCH   2  14
TORSDOF 3
