REMARK  Name = ZINC59309591
REMARK  11 active torsions:
REMARK  status: ('A' for Active; 'I' for Inactive)
REMARK    1  A    between atoms: C_1  and  C_2
REMARK    2  A    between atoms: C_2  and  S_3
REMARK    3  A    between atoms: S_3  and  C_4
REMARK    4  A    between atoms: C_9  and  N_10
REMARK    5  A    between atoms: C_11  and  C_13
REMARK    6  A    between atoms: C_13  and  S_14
REMARK    7  A    between atoms: S_14  and  C_15
REMARK    8  A    between atoms: N_20  and  N_21
REMARK    9  A    between atoms: C_22  and  C_23
REMARK   10  A    between atoms: C_22  and  C_24
REMARK   11  A    between atoms: C_27  and  N_30
REMARK                            x       y       z     vdW  Elec       q    Type
REMARK                         _______ _______ _______ _____ _____    ______ ____
ROOT
ATOM      1  C   UNL     1       4.317  -3.163   8.133  0.00  0.00    +0.211 A 
ATOM      2  N   UNL     1       4.850  -3.716   9.227  0.00  0.00    -0.186 NA
ATOM      3  C   UNL     1       5.239  -2.771  10.057  0.00  0.00    +0.232 A 
ATOM      4  N   UNL     1       4.953  -1.578   9.492  0.00  0.00    -0.245 N 
ATOM      5  N   UNL     1       4.364  -1.858   8.249  0.00  0.00    -0.144 NA
ATOM      6  N   UNL     1       5.834  -2.965  11.290  0.00  0.00    -0.205 N 
ATOM      7  H   UNL     1       6.086  -2.201  11.832  0.00  0.00    +0.177 HD
ATOM      8  H   UNL     1       5.124  -0.701   9.870  0.00  0.00    +0.192 HD
ENDROOT
BRANCH   6   9
ATOM      9  N   UNL     1       6.074  -4.264  11.755  0.00  0.00    -0.184 NA
ATOM     10  C   UNL     1       6.633  -4.446  12.912  0.00  0.00    +0.063 C 
ATOM     11  C   UNL     1       7.024  -3.260  13.755  0.00  0.00    +0.068 C 
BRANCH  10  12
ATOM     12  C   UNL     1       6.886  -5.814  13.402  0.00  0.00    -0.002 A 
ATOM     13  C   UNL     1       7.482  -6.012  14.650  0.00  0.00    +0.011 A 
ATOM     14  C   UNL     1       7.717  -7.291  15.104  0.00  0.00    +0.023 A 
ATOM     15  C   UNL     1       7.361  -8.385  14.322  0.00  0.00    +0.025 A 
ATOM     16  C   UNL     1       6.767  -8.191  13.079  0.00  0.00    +0.023 A 
ATOM     17  C   UNL     1       6.524  -6.915  12.621  0.00  0.00    +0.011 A 
BRANCH  15  18
ATOM     18  N   UNL     1       7.600  -9.679  14.785  0.00  0.00    -0.358 N 
ATOM     19  H   UNL     1       8.014  -9.815  15.652  0.00  0.00    +0.142 HD
ATOM     20  H   UNL     1       7.353 -10.443  14.241  0.00  0.00    +0.142 HD
ENDBRANCH  15  18
ENDBRANCH  10  12
ENDBRANCH   6   9
BRANCH   1  21
ATOM     21  S   UNL     1       3.664  -4.046   6.754  0.00  0.00    -0.075 S 
BRANCH  21  22
ATOM     22  C   UNL     1       3.112  -2.742   5.620  0.00  0.00    +0.173 C 
BRANCH  22  24
ATOM     23  N   UNL     1       2.046  -2.588   3.393  0.00  0.00    -0.284 N 
ATOM     24  C   UNL     1       2.525  -3.369   4.382  0.00  0.00    +0.228 C 
ATOM     25  O   UNL     1       2.482  -4.577   4.275  0.00  0.00    -0.275 OA
ATOM     26  H   UNL     1       2.152  -1.625   3.442  0.00  0.00    +0.155 HD
BRANCH  23  32
ATOM     27  C   UNL     1       1.353  -2.496   1.073  0.00  0.00    +0.029 A 
ATOM     28  C   UNL     1       0.712  -3.078  -0.011  0.00  0.00    +0.016 A 
ATOM     29  C   UNL     1       0.113  -4.316   0.123  0.00  0.00    +0.001 A 
ATOM     30  C   UNL     1       0.151  -4.979   1.337  0.00  0.00    +0.002 A 
ATOM     31  C   UNL     1       0.787  -4.407   2.422  0.00  0.00    +0.024 A 
ATOM     32  C   UNL     1       1.396  -3.167   2.296  0.00  0.00    +0.047 A 
BRANCH  27  33
ATOM     33  S   UNL     1       2.118  -0.918   0.905  0.00  0.00    -0.124 S 
BRANCH  33  35
ATOM     34  C   UNL     1       2.423   0.910  -1.107  0.00  0.00    +0.015 C 
ATOM     35  C   UNL     1       1.804  -0.460  -0.822  0.00  0.00    +0.071 C 
ENDBRANCH  33  35
ENDBRANCH  27  33
ENDBRANCH  23  32
ENDBRANCH  22  24
ENDBRANCH  21  22
ENDBRANCH   1  21
TORSDOF 9
