REMARK  Name = ZINC35399856
REMARK  7 active torsions:
REMARK  status: ('A' for Active; 'I' for Inactive)
REMARK    1  A    between atoms: C_1  and  C_2
REMARK    2  A    between atoms: C_2  and  C_4
REMARK    3  A    between atoms: C_2  and  N_13
REMARK    4  A    between atoms: C_14  and  C_16
REMARK    5  A    between atoms: C_16  and  N_17
REMARK    6  A    between atoms: N_20  and  S_23
REMARK    7  A    between atoms: S_23  and  C_26
REMARK                            x       y       z     vdW  Elec       q    Type
REMARK                         _______ _______ _______ _____ _____    ______ ____
ROOT
ATOM      1  N   UNL     1      -3.979  -1.213  -2.509  0.00  0.00    -0.291 NA
ATOM      2  C   UNL     1      -3.242  -2.198  -3.312  0.00  0.00    +0.102 C 
ATOM      3  C   UNL     1      -3.682  -2.091  -4.776  0.00  0.00    +0.125 C 
ATOM      4  N   UNL     1      -5.147  -2.213  -4.833  0.00  0.00    -0.174 NA
ATOM      5  C   UNL     1      -5.952  -1.352  -3.953  0.00  0.00    +0.125 C 
ATOM      6  C   UNL     1      -5.422  -1.488  -2.522  0.00  0.00    +0.102 C 
ENDROOT
BRANCH   4   7
ATOM      7  S   UNL     1      -5.870  -3.290  -5.862  0.00  0.00    +0.061 S 
ATOM      8  O   UNL     1      -7.184  -2.804  -6.101  0.00  0.00    -0.153 OA
ATOM      9  O   UNL     1      -4.945  -3.533  -6.913  0.00  0.00    -0.153 OA
BRANCH   7  10
ATOM     10  C   UNL     1      -6.046  -4.809  -4.986  0.00  0.00    +0.109 A 
ATOM     11  C   UNL     1      -5.036  -5.751  -5.029  0.00  0.00    +0.032 A 
ATOM     12  C   UNL     1      -5.171  -6.944  -4.344  0.00  0.00    +0.051 A 
ATOM     13  C   UNL     1      -6.321  -7.198  -3.611  0.00  0.00    +0.162 A 
ATOM     14  C   UNL     1      -7.335  -6.250  -3.566  0.00  0.00    +0.164 A 
ATOM     15  C   UNL     1      -7.192  -5.053  -4.253  0.00  0.00    +0.078 A 
ATOM     16  O   UNL     1      -8.468  -6.475  -2.846  0.00  0.00    -0.485 OA
ATOM     17  C   UNL     1      -8.734  -7.831  -2.472  0.00  0.00    +0.270 C 
ATOM     18  C   UNL     1      -7.438  -8.440  -1.919  0.00  0.00    +0.270 C 
ATOM     19  O   UNL     1      -6.441  -8.379  -2.944  0.00  0.00    -0.485 OA
ENDBRANCH   7  10
ENDBRANCH   4   7
BRANCH   1  20
ATOM     20  C   UNL     1      -3.465  -1.164  -1.134  0.00  0.00    +0.180 C 
BRANCH  20  22
ATOM     21  N   UNL     1      -1.372  -0.511   0.012  0.00  0.00    -0.305 N 
ATOM     22  C   UNL     1      -2.051  -0.643  -1.145  0.00  0.00    +0.228 C 
ATOM     23  O   UNL     1      -1.524  -0.341  -2.194  0.00  0.00    -0.274 OA
ATOM     24  H   UNL     1      -1.794  -0.752   0.852  0.00  0.00    +0.149 HD
BRANCH  21  26
ATOM     25  C   UNL     1      -0.019   1.526   0.010  0.00  0.00    +0.036 C 
ATOM     26  C   UNL     1       0.002  -0.004   0.002  0.00  0.00    +0.136 C 
BRANCH  26  27
ATOM     27  C   UNL     1       0.731  -0.503   1.223  0.00  0.00    +0.126 A 
ATOM     28  C   UNL     1       2.005  -0.917   1.240  0.00  0.00    +0.055 A 
ATOM     29  C   UNL     1       2.290  -1.308   2.626  0.00  0.00    +0.020 A 
ATOM     30  C   UNL     1       3.410  -1.812   3.286  0.00  0.00    +0.011 A 
ATOM     31  C   UNL     1       3.343  -2.081   4.625  0.00  0.00    +0.001 A 
ATOM     32  C   UNL     1       2.169  -1.856   5.329  0.00  0.00    +0.004 A 
ATOM     33  C   UNL     1       1.052  -1.359   4.693  0.00  0.00    +0.047 A 
ATOM     34  C   UNL     1       1.098  -1.078   3.333  0.00  0.00    +0.135 A 
ATOM     35  O   UNL     1       0.199  -0.593   2.454  0.00  0.00    -0.458 OA
ENDBRANCH  26  27
ENDBRANCH  21  26
ENDBRANCH  20  22
ENDBRANCH   1  20
TORSDOF 6
