REMARK  Name = ZINC08901153
REMARK  7 active torsions:
REMARK  status: ('A' for Active; 'I' for Inactive)
REMARK    1  A    between atoms: C_4  and  S_10
REMARK    2  A    between atoms: C_5  and  N_7
REMARK    3  A    between atoms: S_10  and  N_13
REMARK    4  A    between atoms: N_13  and  C_14
REMARK    5  A    between atoms: C_14  and  C_15
REMARK    6  A    between atoms: C_15  and  C_17
REMARK    7  A    between atoms: C_15  and  N_50
REMARK                            x       y       z     vdW  Elec       q    Type
REMARK                         _______ _______ _______ _____ _____    ______ ____
ROOT
ATOM      1  C   UNL     1      -2.525   1.303   2.167  0.00  0.00    +0.095 C 
ENDROOT
BRANCH   1   2
ATOM      2  N   UNL     1      -3.384   1.510   0.999  0.00  0.00    -0.191 NA
ATOM      3  H   UNL     1      -4.345   1.410   1.080  0.00  0.00    +0.148 HD
BRANCH   2   4
ATOM      4  S   UNL     1      -2.713   1.915  -0.460  0.00  0.00    +0.061 S 
ATOM      5  O   UNL     1      -1.849   3.016  -0.218  0.00  0.00    -0.153 OA
ATOM      6  O   UNL     1      -3.781   1.976  -1.395  0.00  0.00    -0.153 OA
BRANCH   4  10
ATOM      7  C   UNL     1      -0.081  -1.543  -1.727  0.00  0.00    +0.002 A 
ATOM      8  C   UNL     1       0.477  -0.301  -1.487  0.00  0.00    +0.002 A 
ATOM      9  C   UNL     1      -0.326   0.754  -1.100  0.00  0.00    +0.031 A 
ATOM     10  C   UNL     1      -1.688   0.569  -0.954  0.00  0.00    +0.135 A 
ATOM     11  C   UNL     1      -2.246  -0.673  -1.194  0.00  0.00    +0.152 A 
ATOM     12  C   UNL     1      -1.442  -1.729  -1.581  0.00  0.00    +0.035 A 
BRANCH  11  13
ATOM     13  N   UNL     1      -3.704  -0.873  -1.031  0.00  0.00    +0.058 N 
ATOM     14  O   UNL     1      -4.214  -1.929  -1.360  0.00  0.00    -0.126 OA
ATOM     15  O   UNL     1      -4.393   0.018  -0.567  0.00  0.00    -0.126 OA
ENDBRANCH  11  13
ENDBRANCH   4  10
ENDBRANCH   2   4
ENDBRANCH   1   2
BRANCH   1  16
ATOM     16  C   UNL     1      -3.371   1.369   3.440  0.00  0.00    -0.021 C 
BRANCH  16  23
ATOM     17  C   UNL     1      -1.676  -0.103   4.371  0.00  0.00    -0.078 C 
ATOM     18  C   UNL     1      -0.996  -0.592   5.621  0.00  0.00    -0.019 C 
ATOM     19  C   UNL     1      -1.874  -1.689   6.259  0.00  0.00    -0.002 C 
ATOM     20  C   UNL     1      -3.003  -1.132   6.995  0.00  0.00    -0.002 C 
ATOM     21  C   UNL     1      -3.946  -0.317   6.086  0.00  0.00    -0.019 C 
ATOM     22  C   UNL     1      -3.329   1.034   5.847  0.00  0.00    -0.078 C 
ATOM     23  N   UNL     1      -2.497   1.135   4.600  0.00  0.00    +0.385 N 
ATOM     24  H   UNL     1      -1.858   1.933   4.701  0.00  0.00    -0.081 HD
ENDBRANCH  16  23
BRANCH  16  25
ATOM     25  C   UNL     1      -3.970   2.745   3.575  0.00  0.00    -0.053 A 
ATOM     26  C   UNL     1      -5.281   2.979   3.207  0.00  0.00    +0.009 A 
ATOM     27  C   UNL     1      -5.789   4.229   3.340  0.00  0.00    +0.045 A 
ATOM     28  S   UNL     1      -4.395   5.124   4.005  0.00  0.00    -0.105 S 
ATOM     29  C   UNL     1      -3.232   3.771   4.065  0.00  0.00    +0.047 A 
ENDBRANCH  16  25
ENDBRANCH   1  16
TORSDOF 7
