REMARK  Name = ZINC38675982
REMARK  3 active torsions:
REMARK  status: ('A' for Active; 'I' for Inactive)
REMARK    1  A    between atoms: C_7  and  C_10
REMARK    2  A    between atoms: N_15  and  C_16
REMARK    3  A    between atoms: C_20  and  O_22
REMARK                            x       y       z     vdW  Elec       q    Type
REMARK                         _______ _______ _______ _____ _____    ______ ____
ROOT
ATOM      1  C   UNL     1       0.682  -3.125  -0.021  0.00  0.00    +0.026 C 
ATOM      2  C   UNL     1       1.173  -4.417  -0.033  0.00  0.00    +0.078 C 
ATOM      3  C   UNL     1       0.436  -5.705  -0.038  0.00  0.00    +0.256 C 
ATOM      4  N   UNL     1       1.165  -6.808  -0.049  0.00  0.00    -0.260 N 
ATOM      5  C   UNL     1       2.541  -6.742  -0.055  0.00  0.00    +0.166 C 
ATOM      6  N   UNL     1       3.404  -7.732  -0.067  0.00  0.00    -0.226 NA
ATOM      7  S   UNL     1       2.867  -4.987  -0.053  0.00  0.00    -0.049 S 
ATOM      8  O   UNL     1      -0.779  -5.744  -0.032  0.00  0.00    -0.269 OA
ATOM      9  H   UNL     1       0.726  -7.673  -0.052  0.00  0.00    +0.157 HD
ENDROOT
BRANCH   1  16
ATOM     10  C   UNL     1      -0.016   1.353   0.009  0.00  0.00    +0.001 A 
ATOM     11  C   UNL     1       1.164   2.102   0.002  0.00  0.00    +0.002 A 
ATOM     12  C   UNL     1       2.384   1.514  -0.013  0.00  0.00    +0.026 A 
ATOM     13  C   UNL     1       2.484   0.096  -0.022  0.00  0.00    +0.043 A 
ATOM     14  N   UNL     1       3.530  -0.703  -0.037  0.00  0.00    -0.380 N 
ATOM     15  C   UNL     1       3.076  -2.096  -0.040  0.00  0.00    +0.149 C 
ATOM     16  C   UNL     1       1.564  -2.045  -0.024  0.00  0.00    -0.018 C 
ATOM     17  C   UNL     1       1.236  -0.687  -0.013  0.00  0.00    +0.003 A 
ATOM     18  C   UNL     1       0.002  -0.004   0.002  0.00  0.00    +0.010 A 
ATOM     19  H   UNL     1       4.456  -0.414  -0.045  0.00  0.00    +0.160 HD
ENDBRANCH   1  16
BRANCH   6  20
ATOM     20  C   UNL     1       2.961  -9.025  -0.074  0.00  0.00    +0.070 A 
ATOM     21  C   UNL     1       1.925  -9.417   0.779  0.00  0.00    +0.028 A 
ATOM     22  C   UNL     1       1.482 -10.723   0.768  0.00  0.00    +0.006 A 
ATOM     23  C   UNL     1       2.058 -11.647  -0.084  0.00  0.00    +0.045 A 
ATOM     24  C   UNL     1       3.088 -11.268  -0.935  0.00  0.00    +0.119 A 
ATOM     25  C   UNL     1       3.538  -9.959  -0.937  0.00  0.00    +0.073 A 
BRANCH  24  26
ATOM     26  O   UNL     1       3.651 -12.181  -1.770  0.00  0.00    -0.507 OA
ATOM     27  H   UNL     1       3.222 -12.239  -2.635  0.00  0.00    +0.292 HD
ENDBRANCH  24  26
ENDBRANCH   6  20
TORSDOF 3
