REMARK  Name = ZINC37427511
REMARK  15 active torsions:
REMARK  status: ('A' for Active; 'I' for Inactive)
REMARK    1  A    between atoms: C_1  and  C_2
REMARK    2  A    between atoms: C_2  and  C_3
REMARK    3  A    between atoms: C_2  and  C_4
REMARK    4  A    between atoms: C_2  and  C_5
REMARK    5  A    between atoms: N_8  and  C_10
REMARK    6  A    between atoms: C_10  and  C_11
REMARK    7  A    between atoms: C_10  and  C_12
REMARK    8  A    between atoms: C_10  and  C_13
REMARK    9  A    between atoms: N_14  and  C_30
REMARK   10  A    between atoms: C_19  and  C_21
REMARK   11  A    between atoms: C_30  and  C_31
REMARK   12  A    between atoms: N_33  and  C_34
REMARK   13  A    between atoms: C_34  and  C_35
REMARK   14  A    between atoms: C_35  and  O_36
REMARK   15  A    between atoms: O_36  and  C_37
REMARK                            x       y       z     vdW  Elec       q    Type
REMARK                         _______ _______ _______ _____ _____    ______ ____
ROOT
ATOM      1  C   UNL     1       1.180   1.349  -0.119  0.00  0.00    +0.075 A 
ATOM      2  C   UNL     1       2.542   1.167   0.123  0.00  0.00    +0.033 A 
ATOM      3  C   UNL     1       3.181   2.307  -0.227  0.00  0.00    +0.132 A 
ATOM      4  N   UNL     1       2.263   3.185  -0.672  0.00  0.00    -0.244 N 
ATOM      5  N   UNL     1       1.010   2.556  -0.601  0.00  0.00    -0.173 NA
ATOM      6  N   UNL     1       4.570   2.486  -0.128  0.00  0.00    -0.246 N 
ATOM      7  C   UNL     1       5.372   1.537  -0.621  0.00  0.00    +0.231 C 
ATOM      8  O   UNL     1       6.538   1.501  -0.292  0.00  0.00    -0.274 OA
ATOM      9  C   UNL     1       4.835   0.516  -1.578  0.00  0.00    +0.166 C 
ATOM     10  S   UNL     1       4.114  -0.897  -0.678  0.00  0.00    -0.138 S 
ATOM     11  C   UNL     1       3.215  -0.061   0.679  0.00  0.00    +0.112 C 
ENDROOT
BRANCH  11  12
ATOM     12  C   UNL     1       2.177  -0.994   1.248  0.00  0.00    -0.026 A 
ATOM     13  C   UNL     1       1.792  -2.114   0.536  0.00  0.00    +0.009 A 
ATOM     14  C   UNL     1       0.841  -2.973   1.054  0.00  0.00    +0.050 A 
ATOM     15  C   UNL     1       0.270  -2.712   2.289  0.00  0.00    +0.166 A 
ATOM     16  C   UNL     1       0.658  -1.583   3.006  0.00  0.00    +0.167 A 
ATOM     17  C   UNL     1       1.617  -0.730   2.483  0.00  0.00    +0.054 A 
ATOM     18  O   UNL     1      -0.041  -1.549   4.178  0.00  0.00    -0.453 OA
ATOM     19  C   UNL     1      -1.153  -2.443   3.989  0.00  0.00    +0.466 C 
ATOM     20  O   UNL     1      -0.672  -3.385   3.012  0.00  0.00    -0.453 OA
ENDBRANCH  11  12
BRANCH   1  22
ATOM     21  C   UNL     1      -1.160   0.728  -0.656  0.00  0.00    +0.017 C 
ATOM     22  C   UNL     1       0.095   0.332   0.125  0.00  0.00    +0.007 C 
ATOM     23  C   UNL     1      -0.230   0.281   1.620  0.00  0.00    +0.017 C 
ATOM     24  C   UNL     1       0.572  -1.045  -0.340  0.00  0.00    +0.017 C 
ENDBRANCH   1  22
BRANCH   4  25
ATOM     25  C   UNL     1       2.523   4.545  -1.148  0.00  0.00    +0.057 C 
ATOM     26  C   UNL     1       3.899   4.597  -1.816  0.00  0.00    +0.036 C 
ATOM     27  C   UNL     1       1.449   4.946  -2.161  0.00  0.00    +0.036 C 
ATOM     28  C   UNL     1       2.494   5.514   0.036  0.00  0.00    +0.036 C 
ENDBRANCH   4  25
BRANCH   6  29
ATOM     29  C   UNL     1       5.128   3.686   0.501  0.00  0.00    +0.210 C 
BRANCH  29  30
ATOM     30  C   UNL     1       5.442   3.395   1.946  0.00  0.00    +0.231 C 
ATOM     31  O   UNL     1       5.222   2.295   2.405  0.00  0.00    -0.274 OA
ATOM     32  N   UNL     1       5.968   4.359   2.728  0.00  0.00    -0.312 N 
ATOM     33  H   UNL     1       6.144   5.239   2.360  0.00  0.00    +0.149 HD
BRANCH  32  34
ATOM     34  C   UNL     1       6.274   4.077   4.132  0.00  0.00    +0.132 C 
BRANCH  34  35
ATOM     35  C   UNL     1       6.857   5.330   4.789  0.00  0.00    +0.178 C 
BRANCH  35  36
ATOM     36  O   UNL     1       5.865   6.358   4.817  0.00  0.00    -0.381 OA
ATOM     37  C   UNL     1       6.309   7.578   5.414  0.00  0.00    +0.194 C 
ENDBRANCH  35  36
ENDBRANCH  34  35
ENDBRANCH  32  34
ENDBRANCH  29  30
ENDBRANCH   6  29
TORSDOF 8
