REMARK  Name = ZINC64985383
REMARK  8 active torsions:
REMARK  status: ('A' for Active; 'I' for Inactive)
REMARK    1  A    between atoms: C_1  and  C_2
REMARK    2  A    between atoms: C_3  and  C_31
REMARK    3  A    between atoms: C_7  and  N_8
REMARK    4  A    between atoms: C_9  and  C_11
REMARK    5  A    between atoms: N_14  and  S_22
REMARK    6  A    between atoms: S_22  and  C_25
REMARK    7  A    between atoms: C_31  and  O_33
REMARK    8  A    between atoms: O_33  and  C_34
REMARK                            x       y       z     vdW  Elec       q    Type
REMARK                         _______ _______ _______ _____ _____    ______ ____
ROOT
ATOM      1  C   UNL     1       0.305   0.147   4.931  0.00  0.00    +0.278 C 
ATOM      2  C   UNL     1       1.530   1.012   4.603  0.00  0.00    +0.186 C 
ATOM      3  N   UNL     1       1.929   1.705   5.840  0.00  0.00    -0.195 N 
ATOM      4  C   UNL     1       1.912   0.969   7.035  0.00  0.00    +0.093 A 
ATOM      5  C   UNL     1       2.540   1.467   8.166  0.00  0.00    +0.028 A 
ATOM      6  C   UNL     1       2.517   0.740   9.342  0.00  0.00    +0.002 A 
ATOM      7  C   UNL     1       1.870  -0.481   9.390  0.00  0.00    +0.004 A 
ATOM      8  C   UNL     1       1.244  -0.982   8.264  0.00  0.00    +0.047 A 
ATOM      9  C   UNL     1       1.262  -0.261   7.080  0.00  0.00    +0.144 A 
ATOM     10  O   UNL     1       0.648  -0.766   5.976  0.00  0.00    -0.476 OA
ENDROOT
BRANCH   1  12
ATOM     11  N   UNL     1      -0.572   0.032   2.620  0.00  0.00    -0.282 N 
ATOM     12  C   UNL     1      -0.112  -0.624   3.705  0.00  0.00    +0.260 C 
ATOM     13  O   UNL     1      -0.034  -1.834   3.693  0.00  0.00    -0.271 OA
ATOM     14  H   UNL     1      -0.703   0.992   2.654  0.00  0.00    +0.155 HD
BRANCH  11  21
ATOM     15  C   UNL     1      -2.409   1.182   0.781  0.00  0.00    +0.046 C 
ATOM     16  C   UNL     1      -1.749  -0.147   0.523  0.00  0.00    -0.015 A 
ATOM     17  C   UNL     1      -2.027  -0.852  -0.650  0.00  0.00    +0.064 A 
ATOM     18  C   UNL     1      -1.411  -2.083  -0.882  0.00  0.00    +0.015 A 
ATOM     19  C   UNL     1      -0.530  -2.600   0.047  0.00  0.00    +0.003 A 
ATOM     20  C   UNL     1      -0.255  -1.902   1.208  0.00  0.00    +0.023 A 
ATOM     21  C   UNL     1      -0.859  -0.673   1.446  0.00  0.00    +0.037 A 
BRANCH  17  22
ATOM     22  C   UNL     1      -2.971  -0.296  -1.641  0.00  0.00    +0.339 C 
ATOM     23  O   UNL     1      -3.412   0.827  -1.498  0.00  0.00    -0.245 OA
BRANCH  22  24
ATOM     24  O   UNL     1      -3.343  -1.035  -2.705  0.00  0.00    -0.464 OA
ATOM     25  C   UNL     1      -4.258  -0.435  -3.623  0.00  0.00    +0.280 C 
ENDBRANCH  22  24
ENDBRANCH  17  22
ENDBRANCH  11  21
ENDBRANCH   1  12
BRANCH   3  26
ATOM     26  S   UNL     1       2.384   3.297   5.820  0.00  0.00    +0.075 S 
ATOM     27  O   UNL     1       1.892   3.845   4.605  0.00  0.00    -0.150 OA
ATOM     28  O   UNL     1       2.040   3.833   7.091  0.00  0.00    -0.150 OA
BRANCH  26  29
ATOM     29  C   UNL     1       4.142   3.337   5.715  0.00  0.00    +0.109 A 
ATOM     30  C   UNL     1       4.903   3.341   6.869  0.00  0.00    +0.029 A 
ATOM     31  C   UNL     1       6.283   3.371   6.787  0.00  0.00    +0.002 A 
ATOM     32  C   UNL     1       6.901   3.398   5.551  0.00  0.00    +0.000 A 
ATOM     33  C   UNL     1       6.140   3.393   4.397  0.00  0.00    +0.002 A 
ATOM     34  C   UNL     1       4.760   3.358   4.479  0.00  0.00    +0.029 A 
ENDBRANCH  26  29
ENDBRANCH   3  26
TORSDOF 6
