REMARK  Name = ZINC08904155
REMARK  9 active torsions:
REMARK  status: ('A' for Active; 'I' for Inactive)
REMARK    1  A    between atoms: C_1  and  C_2
REMARK    2  A    between atoms: C_5  and  N_9
REMARK    3  A    between atoms: C_6  and  C_8
REMARK    4  A    between atoms: C_10  and  C_12
REMARK    5  A    between atoms: C_12  and  N_13
REMARK    6  A    between atoms: C_20  and  C_23
REMARK    7  A    between atoms: C_26  and  C_29
REMARK    8  A    between atoms: C_29  and  C_30
REMARK    9  A    between atoms: C_29  and  C_31
REMARK                            x       y       z     vdW  Elec       q    Type
REMARK                         _______ _______ _______ _____ _____    ______ ____
ROOT
ATOM      1  N   UNL     1      -1.131   4.671   2.799  0.00  0.00    -0.290 N 
ATOM      2  C   UNL     1      -2.373   5.195   2.639  0.00  0.00    +0.203 A 
ATOM      3  N   UNL     1      -3.178   4.753   1.710  0.00  0.00    -0.230 NA
ATOM      4  C   UNL     1      -2.805   3.775   0.889  0.00  0.00    +0.116 A 
ATOM      5  C   UNL     1      -1.539   3.172   0.979  0.00  0.00    +0.080 A 
ATOM      6  C   UNL     1      -0.683   3.680   2.007  0.00  0.00    +0.263 A 
ATOM      7  O   UNL     1       0.436   3.221   2.163  0.00  0.00    -0.267 OA
ATOM      8  C   UNL     1      -1.287   2.116   0.006  0.00  0.00    +0.004 A 
ATOM      9  C   UNL     1      -2.259   1.808  -0.887  0.00  0.00    +0.056 A 
ATOM     10  S   UNL     1      -3.582   2.922  -0.459  0.00  0.00    -0.076 S 
ENDROOT
BRANCH   8  11
ATOM     11  C   UNL     1       0.009   1.398  -0.011  0.00  0.00    -0.017 A 
ATOM     12  C   UNL     1       1.206   2.114  -0.018  0.00  0.00    +0.009 A 
ATOM     13  C   UNL     1       2.410   1.440  -0.039  0.00  0.00    +0.004 A 
ATOM     14  C   UNL     1       2.431   0.057  -0.053  0.00  0.00    -0.045 A 
ATOM     15  C   UNL     1       1.247  -0.659  -0.045  0.00  0.00    +0.004 A 
ATOM     16  C   UNL     1       0.037   0.004  -0.024  0.00  0.00    +0.009 A 
BRANCH  14  17
ATOM     17  C   UNL     1       3.749  -0.673  -0.076  0.00  0.00    +0.013 C 
ATOM     18  C   UNL     1       4.530  -0.278  -1.331  0.00  0.00    +0.012 C 
ATOM     19  C   UNL     1       4.560  -0.301   1.167  0.00  0.00    +0.012 C 
ENDBRANCH  14  17
ENDBRANCH   8  11
BRANCH   1  20
ATOM     20  C   UNL     1      -0.261   5.196   3.854  0.00  0.00    +0.222 C 
BRANCH  20  22
ATOM     21  N   UNL     1       1.436   6.978   4.106  0.00  0.00    -0.284 N 
ATOM     22  C   UNL     1       0.559   6.337   3.309  0.00  0.00    +0.237 C 
ATOM     23  O   UNL     1       0.430   6.678   2.152  0.00  0.00    -0.274 OA
ATOM     24  H   UNL     1       1.483   6.760   5.050  0.00  0.00    +0.155 HD
BRANCH  21  29
ATOM     25  C   UNL     1       4.856  10.954   1.941  0.00  0.00    +0.044 C 
ATOM     26  C   UNL     1       3.948   9.897   2.516  0.00  0.00    -0.050 A 
ATOM     27  C   UNL     1       3.439   8.905   1.698  0.00  0.00    +0.005 A 
ATOM     28  C   UNL     1       2.607   7.936   2.222  0.00  0.00    +0.024 A 
ATOM     29  C   UNL     1       2.280   7.958   3.572  0.00  0.00    +0.036 A 
ATOM     30  C   UNL     1       2.787   8.960   4.389  0.00  0.00    -0.029 A 
ATOM     31  C   UNL     1       3.624   9.923   3.860  0.00  0.00    +0.008 A 
ATOM     32  C   UNL     1       2.430   8.992   5.853  0.00  0.00    +0.045 C 
ENDBRANCH  21  29
ENDBRANCH  20  22
ENDBRANCH   1  20
TORSDOF 5
