REMARK  Name = ZINC33419486
REMARK  9 active torsions:
REMARK  status: ('A' for Active; 'I' for Inactive)
REMARK    1  A    between atoms: C_1  and  C_2
REMARK    2  A    between atoms: C_2  and  C_3
REMARK    3  A    between atoms: C_4  and  C_23
REMARK    4  A    between atoms: C_8  and  C_21
REMARK    5  A    between atoms: C_9  and  C_11
REMARK    6  A    between atoms: C_14  and  O_17
REMARK    7  A    between atoms: O_17  and  C_18
REMARK    8  A    between atoms: C_18  and  C_19
REMARK    9  A    between atoms: C_18  and  C_20
REMARK                            x       y       z     vdW  Elec       q    Type
REMARK                         _______ _______ _______ _____ _____    ______ ____
ROOT
ATOM      1  C   UNL     1       4.379   3.547   0.092  0.00  0.00    +0.036 A 
ATOM      2  C   UNL     1       4.707   4.837   0.017  0.00  0.00    +0.010 A 
ATOM      3  S   UNL     1       3.248   5.543  -0.734  0.00  0.00    -0.054 S 
ATOM      4  C   UNL     1       2.312   4.038  -0.884  0.00  0.00    +0.179 A 
ATOM      5  N   UNL     1       3.159   3.104  -0.360  0.00  0.00    -0.287 N 
ATOM      6  C   UNL     1       2.460   1.885  -0.457  0.00  0.00    +0.114 A 
ATOM      7  C   UNL     1       1.223   2.178  -1.040  0.00  0.00    +0.101 A 
ATOM      8  N   UNL     1       1.189   3.491  -1.277  0.00  0.00    -0.221 NA
ATOM      9  C   UNL     1       5.978   5.521   0.451  0.00  0.00    +0.053 C 
ENDROOT
BRANCH   7  10
ATOM     10  C   UNL     1       0.147   1.208  -1.341  0.00  0.00    +0.003 A 
ATOM     11  C   UNL     1       0.450   0.003  -1.978  0.00  0.00    +0.013 A 
ATOM     12  C   UNL     1      -0.554  -0.900  -2.252  0.00  0.00    +0.046 A 
ATOM     13  C   UNL     1      -1.867  -0.609  -1.904  0.00  0.00    +0.121 A 
ATOM     14  C   UNL     1      -2.172   0.591  -1.275  0.00  0.00    +0.046 A 
ATOM     15  C   UNL     1      -1.173   1.497  -0.993  0.00  0.00    +0.013 A 
BRANCH  13  16
ATOM     16  O   UNL     1      -2.854  -1.500  -2.180  0.00  0.00    -0.489 OA
BRANCH  16  17
ATOM     17  C   UNL     1      -4.185  -1.127  -1.815  0.00  0.00    +0.167 C 
ATOM     18  C   UNL     1      -4.796  -0.268  -2.923  0.00  0.00    +0.051 C 
ATOM     19  C   UNL     1      -5.032  -2.387  -1.620  0.00  0.00    +0.051 C 
ENDBRANCH  16  17
ENDBRANCH  13  16
ENDBRANCH   7  10
BRANCH   1  21
ATOM     20  C   UNL     1       6.204   1.954  -0.438  0.00  0.00    +0.010 C 
ATOM     21  C   UNL     1       5.356   2.563   0.681  0.00  0.00    +0.051 C 
ENDBRANCH   1  21
BRANCH   6  22
ATOM     22  C   UNL     1       2.914   0.626  -0.048  0.00  0.00    +0.279 C 
ATOM     23  O   UNL     1       2.166  -0.332  -0.086  0.00  0.00    -0.294 OA
ENDBRANCH   6  22
TORSDOF 5
