REMARK  Name = ZINC01364513
REMARK  10 active torsions:
REMARK  status: ('A' for Active; 'I' for Inactive)
REMARK    1  A    between atoms: C_1  and  C_2
REMARK    2  A    between atoms: C_2  and  N_3
REMARK    3  A    between atoms: C_4  and  C_21
REMARK    4  A    between atoms: C_7  and  S_8
REMARK    5  A    between atoms: S_8  and  C_9
REMARK    6  A    between atoms: C_9  and  C_10
REMARK    7  A    between atoms: N_12  and  C_13
REMARK    8  A    between atoms: C_17  and  C_20
REMARK    9  A    between atoms: C_18  and  C_19
REMARK   10  A    between atoms: C_26  and  N_27
REMARK                            x       y       z     vdW  Elec       q    Type
REMARK                         _______ _______ _______ _____ _____    ______ ____
ROOT
ATOM      1  N   UNL     1       2.453  -3.268   0.049  0.00  0.00    -0.302 N 
ATOM      2  C   UNL     1       1.398  -2.386   0.098  0.00  0.00    +0.167 A 
ATOM      3  N   UNL     1       0.298  -3.102   0.125  0.00  0.00    -0.128 NA
ATOM      4  N   UNL     1       0.589  -4.354   0.102  0.00  0.00    -0.122 NA
ATOM      5  C   UNL     1       1.892  -4.514   0.058  0.00  0.00    +0.192 A 
ENDROOT
BRANCH   2   6
ATOM      6  C   UNL     1       1.486  -0.911   0.111  0.00  0.00    +0.040 A 
ATOM      7  C   UNL     1       2.307  -0.249  -0.803  0.00  0.00    +0.013 A 
ATOM      8  C   UNL     1       2.386   1.128  -0.786  0.00  0.00    +0.001 A 
ATOM      9  C   UNL     1       1.654   1.858   0.135  0.00  0.00    +0.002 A 
ATOM     10  C   UNL     1       0.838   1.216   1.046  0.00  0.00    +0.023 A 
ATOM     11  C   UNL     1       0.747  -0.169   1.042  0.00  0.00    +0.035 A 
BRANCH  11  12
ATOM     12  N   UNL     1      -0.077  -0.819   1.961  0.00  0.00    -0.357 N 
ATOM     13  H   UNL     1      -0.587  -0.303   2.604  0.00  0.00    +0.142 HD
ATOM     14  H   UNL     1      -0.139  -1.787   1.956  0.00  0.00    +0.142 HD
ENDBRANCH  11  12
ENDBRANCH   2   6
BRANCH   1  16
ATOM     15  C   UNL     1       4.403  -2.727   1.421  0.00  0.00    +0.027 C 
ATOM     16  C   UNL     1       3.880  -2.940  -0.000  0.00  0.00    +0.122 C 
ENDBRANCH   1  16
BRANCH   5  17
ATOM     17  S   UNL     1       2.755  -6.049   0.013  0.00  0.00    -0.077 S 
BRANCH  17  18
ATOM     18  C   UNL     1       1.356  -7.197   0.045  0.00  0.00    +0.173 C 
BRANCH  18  19
ATOM     19  C   UNL     1       1.868  -8.614   0.012  0.00  0.00    +0.227 C 
ATOM     20  O   UNL     1       3.062  -8.827  -0.029  0.00  0.00    -0.275 OA
ATOM     21  N   UNL     1       1.000  -9.645   0.028  0.00  0.00    -0.285 N 
ATOM     22  H   UNL     1       0.046  -9.476  -0.008  0.00  0.00    +0.155 HD
BRANCH  21  23
ATOM     23  C   UNL     1       1.476 -10.959   0.096  0.00  0.00    +0.037 A 
ATOM     24  C   UNL     1       2.725 -11.275  -0.422  0.00  0.00    +0.023 A 
ATOM     25  C   UNL     1       3.192 -12.573  -0.354  0.00  0.00    +0.002 A 
ATOM     26  C   UNL     1       2.417 -13.558   0.231  0.00  0.00    +0.004 A 
ATOM     27  C   UNL     1       1.173 -13.247   0.748  0.00  0.00    -0.046 A 
ATOM     28  C   UNL     1       0.703 -11.949   0.688  0.00  0.00    -0.026 A 
ATOM     29  C   UNL     1      -0.651 -11.610   1.257  0.00  0.00    +0.046 C 
ATOM     30  C   UNL     1       0.331 -14.323   1.384  0.00  0.00    +0.044 C 
ENDBRANCH  21  23
ENDBRANCH  18  19
ENDBRANCH  17  18
ENDBRANCH   5  17
TORSDOF 7
