REMARK  Name = ZINC06221991
REMARK  4 active torsions:
REMARK  status: ('A' for Active; 'I' for Inactive)
REMARK    1  A    between atoms: C_3  and  C_6
REMARK    2  A    between atoms: C_6  and  C_8
REMARK    3  A    between atoms: C_9  and  C_13
REMARK    4  A    between atoms: C_13  and  C_15
REMARK                            x       y       z     vdW  Elec       q    Type
REMARK                         _______ _______ _______ _____ _____    ______ ____
ROOT
ATOM      1  C   UNL     1       4.228   2.163  -0.036  0.00  0.00    +0.167 A 
ATOM      2  C   UNL     1       5.682   2.433  -0.018  0.00  0.00    +0.092 A 
ATOM      3  C   UNL     1       5.737   3.804   0.026  0.00  0.00    +0.242 A 
ATOM      4  O   UNL     1       4.473   4.235   0.039  0.00  0.00    -0.362 OA
ATOM      5  N   UNL     1       3.662   3.342   0.006  0.00  0.00    -0.074 NA
ENDROOT
BRANCH   1   6
ATOM      6  C   UNL     1       3.557   0.842  -0.084  0.00  0.00    +0.250 C 
ATOM      7  O   UNL     1       4.221  -0.177  -0.119  0.00  0.00    -0.282 OA
BRANCH   6  10
ATOM      8  C   UNL     1       0.000   0.005  -0.119  0.00  0.00    +0.042 A 
ATOM      9  C   UNL     1       1.344  -0.393  -0.131  0.00  0.00    +0.053 A 
ATOM     10  C   UNL     1       2.096   0.763  -0.089  0.00  0.00    +0.176 A 
ATOM     11  O   UNL     1       1.244   1.809  -0.053  0.00  0.00    -0.460 OA
ATOM     12  C   UNL     1      -0.017   1.357  -0.072  0.00  0.00    +0.196 A 
ENDBRANCH   6  10
ENDBRANCH   1   6
BRANCH   2  13
ATOM     13  C   UNL     1       6.795   1.469  -0.043  0.00  0.00    +0.198 C 
ATOM     14  O   UNL     1       6.569   0.277   0.032  0.00  0.00    -0.286 OA
BRANCH  13  15
ATOM     15  C   UNL     1       8.187   1.951  -0.161  0.00  0.00    +0.023 A 
ATOM     16  C   UNL     1       9.240   1.182   0.340  0.00  0.00    +0.013 A 
ATOM     17  C   UNL     1      10.537   1.635   0.222  0.00  0.00    +0.021 A 
ATOM     18  C   UNL     1      10.796   2.855  -0.380  0.00  0.00    +0.041 A 
ATOM     19  C   UNL     1       9.755   3.625  -0.873  0.00  0.00    +0.021 A 
ATOM     20  C   UNL     1       8.454   3.181  -0.767  0.00  0.00    +0.013 A 
ATOM     21 CL   UNL     1      12.431   3.422  -0.518  0.00  0.00    -0.084 Cl
ENDBRANCH  13  15
ENDBRANCH   2  13
TORSDOF 4
