REMARK  Name = ZINC67390506
REMARK  10 active torsions:
REMARK  status: ('A' for Active; 'I' for Inactive)
REMARK    1  A    between atoms: C_1  and  C_2
REMARK    2  A    between atoms: C_5  and  C_28
REMARK    3  A    between atoms: N_8  and  C_10
REMARK    4  A    between atoms: C_10  and  C_11
REMARK    5  A    between atoms: C_11  and  C_12
REMARK    6  A    between atoms: C_12  and  C_13
REMARK    7  A    between atoms: C_13  and  N_14
REMARK    8  A    between atoms: N_17  and  N_18
REMARK    9  A    between atoms: C_19  and  C_21
REMARK   10  A    between atoms: C_21  and  C_22
REMARK                            x       y       z     vdW  Elec       q    Type
REMARK                         _______ _______ _______ _____ _____    ______ ____
ROOT
ATOM      1  N   UNL     1       2.861   0.005   7.382  0.00  0.00    -0.298 N 
ATOM      2  C   UNL     1       2.440   0.457   8.580  0.00  0.00    +0.316 C 
ATOM      3  O   UNL     1       1.492   1.216   8.645  0.00  0.00    -0.251 OA
ATOM      4  N   UNL     1       3.068   0.066   9.707  0.00  0.00    -0.218 N 
ATOM      5  H   UNL     1       3.617  -0.601   7.331  0.00  0.00    +0.150 HD
ATOM      6  H   UNL     1       2.765   0.391  10.569  0.00  0.00    +0.174 HD
ENDROOT
BRANCH   4   7
ATOM      7  N   UNL     1       4.160  -0.809   9.633  0.00  0.00    -0.233 N 
ATOM      8  C   UNL     1       4.789  -1.199  10.759  0.00  0.00    +0.229 C 
ATOM      9  O   UNL     1       4.409  -0.793  11.837  0.00  0.00    -0.274 OA
ATOM     10  H   UNL     1       4.463  -1.134   8.771  0.00  0.00    +0.173 HD
BRANCH   8  11
ATOM     11  C   UNL     1       5.963  -2.140  10.679  0.00  0.00    +0.101 C 
BRANCH  11  12
ATOM     12  C   UNL     1       6.488  -2.421  12.089  0.00  0.00    -0.002 C 
ATOM     13  C   UNL     1       7.045  -1.130  12.692  0.00  0.00    +0.004 C 
ATOM     14  C   UNL     1       7.570  -1.411  14.101  0.00  0.00    +0.000 C 
ATOM     15  C   UNL     1       8.680  -2.461  14.032  0.00  0.00    +0.000 C 
ATOM     16  C   UNL     1       8.124  -3.752  13.429  0.00  0.00    +0.000 C 
ATOM     17  C   UNL     1       7.598  -3.471  12.019  0.00  0.00    +0.004 C 
ENDBRANCH  11  12
ENDBRANCH   8  11
ENDBRANCH   4   7
BRANCH   1  18
ATOM     18  C   UNL     1       2.178   0.429   6.158  0.00  0.00    +0.106 C 
BRANCH  18  19
ATOM     19  C   UNL     1       2.850  -0.222   4.947  0.00  0.00    +0.017 C 
BRANCH  19  20
ATOM     20  C   UNL     1       2.136   0.221   3.668  0.00  0.00    -0.017 C 
BRANCH  20  21
ATOM     21  C   UNL     1       2.808  -0.431   2.458  0.00  0.00    -0.079 C 
BRANCH  21  27
ATOM     22  C   UNL     1      -0.019   1.526   0.010  0.00  0.00    +0.005 C 
ATOM     23  C   UNL     1       0.002  -0.004   0.002  0.00  0.00    -0.031 C 
ATOM     24  C   UNL     1       0.721  -0.499  -1.257  0.00  0.00    +0.003 C 
ATOM     25  C   UNL     1       2.177  -0.027  -1.220  0.00  0.00    -0.031 C 
ATOM     26  C   UNL     1       2.839  -0.534   0.063  0.00  0.00    -0.076 C 
ATOM     27  N   UNL     1       2.123  -0.005   1.230  0.00  0.00    +0.380 N 
ATOM     28  C   UNL     1       0.744  -0.512   1.240  0.00  0.00    -0.076 C 
ATOM     29  C   UNL     1       2.924  -0.581  -2.434  0.00  0.00    +0.005 C 
ATOM     30  H   UNL     1       2.109   1.003   1.187  0.00  0.00    -0.082 HD
ENDBRANCH  21  27
ENDBRANCH  20  21
ENDBRANCH  19  20
ENDBRANCH  18  19
ENDBRANCH   1  18
TORSDOF 8
