REMARK  Name = ZINC15150531
REMARK  7 active torsions:
REMARK  status: ('A' for Active; 'I' for Inactive)
REMARK    1  A    between atoms: C_1  and  C_2
REMARK    2  A    between atoms: C_4  and  C_25
REMARK    3  A    between atoms: C_5  and  N_9
REMARK    4  A    between atoms: N_9  and  C_10
REMARK    5  A    between atoms: C_10  and  N_12
REMARK    6  A    between atoms: N_12  and  N_13
REMARK    7  A    between atoms: C_14  and  C_16
REMARK                            x       y       z     vdW  Elec       q    Type
REMARK                         _______ _______ _______ _____ _____    ______ ____
ROOT
ATOM      1  N   UNL     1       0.476  -5.736   2.329  0.00  0.00    -0.245 N 
ATOM      2  H   UNL     1       0.684  -5.988   3.243  0.00  0.00    +0.172 HD
ENDROOT
BRANCH   1   3
ATOM      3  N   UNL     1       0.304  -6.725   1.351  0.00  0.00    -0.231 N 
ATOM      4  C   UNL     1       0.427  -8.026   1.680  0.00  0.00    +0.260 C 
ATOM      5  O   UNL     1       0.687  -8.342   2.825  0.00  0.00    -0.269 OA
ATOM      6  H   UNL     1       0.097  -6.473   0.438  0.00  0.00    +0.173 HD
BRANCH   4   7
ATOM      7  C   UNL     1       0.246  -9.068   0.650  0.00  0.00    +0.042 A 
ATOM      8  C   UNL     1      -0.047  -8.706  -0.667  0.00  0.00    +0.017 A 
ATOM      9  C   UNL     1      -0.216  -9.680  -1.627  0.00  0.00    +0.050 A 
ATOM     10  C   UNL     1      -0.096 -11.021  -1.291  0.00  0.00    +0.166 A 
ATOM     11  C   UNL     1       0.197 -11.389   0.023  0.00  0.00    +0.167 A 
ATOM     12  C   UNL     1       0.373 -10.417   0.989  0.00  0.00    +0.062 A 
ATOM     13  O   UNL     1       0.260 -12.751   0.090  0.00  0.00    -0.453 OA
ATOM     14  C   UNL     1      -0.398 -13.225  -1.100  0.00  0.00    +0.466 C 
ATOM     15  O   UNL     1      -0.214 -12.153  -2.043  0.00  0.00    -0.453 OA
ENDBRANCH   4   7
ENDBRANCH   1   3
BRANCH   1  16
ATOM     16  C   UNL     1       0.354  -4.435   2.001  0.00  0.00    +0.151 C 
ATOM     17  S   UNL     1       0.564  -3.227   3.196  0.00  0.00    -0.017 S 
BRANCH  16  18
ATOM     18  N   UNL     1       0.065  -4.085   0.732  0.00  0.00    -0.294 N 
ATOM     19  H   UNL     1      -0.119  -4.769   0.070  0.00  0.00    +0.154 HD
BRANCH  18  24
ATOM     20  C   UNL     1      -0.069   1.394  -0.739  0.00  0.00    +0.044 C 
ATOM     21  C   UNL     1      -0.034  -0.061  -0.349  0.00  0.00    -0.049 A 
ATOM     22  C   UNL     1       1.180  -0.690  -0.140  0.00  0.00    +0.008 A 
ATOM     23  C   UNL     1       1.216  -2.024   0.218  0.00  0.00    -0.028 A 
ATOM     24  C   UNL     1       0.032  -2.733   0.369  0.00  0.00    +0.054 A 
ATOM     25  C   UNL     1      -1.186  -2.099   0.159  0.00  0.00    +0.063 A 
ATOM     26  C   UNL     1      -1.215  -0.762  -0.194  0.00  0.00    +0.025 A 
ATOM     27 CL   UNL     1      -2.670  -2.981   0.346  0.00  0.00    -0.082 Cl
ATOM     28  C   UNL     1       2.539  -2.708   0.445  0.00  0.00    +0.046 C 
ENDBRANCH  18  24
ENDBRANCH  16  18
ENDBRANCH   1  16
TORSDOF 5
