REMARK  Name = ZINC21283764
REMARK  12 active torsions:
REMARK  status: ('A' for Active; 'I' for Inactive)
REMARK    1  A    between atoms: C_1  and  C_2
REMARK    2  A    between atoms: C_2  and  C_3
REMARK    3  A    between atoms: C_3  and  C_4
REMARK    4  A    between atoms: C_4  and  N_5
REMARK    5  A    between atoms: C_15  and  S_16
REMARK    6  A    between atoms: S_16  and  C_17
REMARK    7  A    between atoms: C_17  and  C_18
REMARK    8  A    between atoms: N_20  and  C_21
REMARK    9  A    between atoms: C_22  and  C_34
REMARK   10  A    between atoms: N_24  and  C_27
REMARK   11  A    between atoms: C_25  and  C_26
REMARK   12  A    between atoms: C_30  and  C_33
REMARK                            x       y       z     vdW  Elec       q    Type
REMARK                         _______ _______ _______ _____ _____    ______ ____
ROOT
ATOM      1  C   UNL     1      -5.219  -1.819  -0.074  0.00  0.00    +0.228 C 
ATOM      2  O   UNL     1      -5.374  -2.986   0.217  0.00  0.00    -0.275 OA
ATOM      3  N   UNL     1      -6.290  -1.014  -0.222  0.00  0.00    -0.282 N 
ATOM      4  H   UNL     1      -6.149   0.064  -0.389  0.00  0.00    +0.155 HD
ENDROOT
BRANCH   3   5
ATOM      5  C   UNL     1      -7.589  -1.552  -0.162  0.00  0.00    +0.078 A 
ATOM      6  C   UNL     1      -7.965  -2.846  -0.554  0.00  0.00    +0.082 A 
ATOM      7  N   UNL     1      -9.251  -2.981  -0.348  0.00  0.00    -0.170 NA
ATOM      8  N   UNL     1      -9.744  -1.778   0.172  0.00  0.00    -0.235 N 
ATOM      9  C   UNL     1      -8.701  -0.910   0.278  0.00  0.00    +0.063 A 
ATOM     10  C   UNL     1      -8.768   0.505   0.792  0.00  0.00    +0.068 C 
ATOM     11  C   UNL     1      -7.046  -3.901  -1.112  0.00  0.00    +0.069 C 
BRANCH   8  12
ATOM     12  C   UNL     1     -11.075  -1.514   0.522  0.00  0.00    +0.066 A 
ATOM     13  C   UNL     1     -11.822  -2.474   1.192  0.00  0.00    +0.028 A 
ATOM     14  C   UNL     1     -13.132  -2.209   1.541  0.00  0.00    +0.005 A 
ATOM     15  C   UNL     1     -13.703  -0.994   1.213  0.00  0.00    -0.050 A 
ATOM     16  C   UNL     1     -12.964  -0.038   0.541  0.00  0.00    +0.005 A 
ATOM     17  C   UNL     1     -11.652  -0.295   0.195  0.00  0.00    +0.028 A 
ATOM     18  C   UNL     1     -15.135  -0.710   1.589  0.00  0.00    +0.044 C 
ENDBRANCH   8  12
ENDBRANCH   3   5
BRANCH   1  19
ATOM     19  C   UNL     1      -3.830  -1.269  -0.270  0.00  0.00    +0.173 C 
BRANCH  19  20
ATOM     20  S   UNL     1      -2.617  -2.585  -0.004  0.00  0.00    -0.078 S 
BRANCH  20  31
ATOM     21  N   UNL     1       0.063  -2.353  -0.181  0.00  0.00    -0.287 N 
ATOM     22  C   UNL     1       1.232  -1.704  -0.391  0.00  0.00    +0.262 A 
ATOM     23  O   UNL     1       2.300  -2.281  -0.297  0.00  0.00    -0.267 OA
ATOM     24  C   UNL     1       1.164  -0.278  -0.735  0.00  0.00    +0.065 A 
ATOM     25  C   UNL     1       2.311   0.479  -0.969  0.00  0.00    +0.015 A 
ATOM     26  C   UNL     1       2.191   1.804  -1.286  0.00  0.00    +0.001 A 
ATOM     27  C   UNL     1       0.940   2.402  -1.376  0.00  0.00    +0.002 A 
ATOM     28  C   UNL     1      -0.200   1.684  -1.151  0.00  0.00    +0.028 A 
ATOM     29  C   UNL     1      -0.111   0.327  -0.825  0.00  0.00    +0.079 A 
ATOM     30  N   UNL     1      -1.210  -0.418  -0.595  0.00  0.00    -0.223 NA
ATOM     31  C   UNL     1      -1.126  -1.690  -0.289  0.00  0.00    +0.173 A 
BRANCH  21  32
ATOM     32  C   UNL     1       0.073  -3.777   0.165  0.00  0.00    +0.127 C 
BRANCH  32  33
ATOM     33  C   UNL     1       0.138  -3.932   1.686  0.00  0.00    +0.021 C 
BRANCH  33  35
ATOM     34  C   UNL     1       0.214  -5.573   3.568  0.00  0.00    +0.004 C 
ATOM     35  C   UNL     1       0.148  -5.418   2.047  0.00  0.00    -0.002 C 
ENDBRANCH  33  35
ENDBRANCH  32  33
ENDBRANCH  21  32
ENDBRANCH  20  31
ENDBRANCH  19  20
ENDBRANCH   1  19
TORSDOF 8
