REMARK  Name = ZINC08777714
REMARK  8 active torsions:
REMARK  status: ('A' for Active; 'I' for Inactive)
REMARK    1  A    between atoms: C_1  and  C_2
REMARK    2  A    between atoms: C_2  and  C_4
REMARK    3  A    between atoms: C_2  and  N_42
REMARK    4  A    between atoms: C_11  and  C_13
REMARK    5  A    between atoms: C_11  and  C_14
REMARK    6  A    between atoms: C_11  and  N_42
REMARK    7  A    between atoms: N_20  and  C_21
REMARK    8  A    between atoms: N_20  and  C_22
REMARK                            x       y       z     vdW  Elec       q    Type
REMARK                         _______ _______ _______ _____ _____    ______ ____
ROOT
ATOM      1  C   UNL     1      -0.006   1.559   0.157  0.00  0.00    -0.005 C 
ATOM      2  C   UNL     1      -0.047   0.038  -0.002  0.00  0.00    -0.006 C 
ENDROOT
BRANCH   1   3
ATOM      3  C   UNL     1      -0.507   1.934   1.528  0.00  0.00    +0.122 A 
ATOM      4  N   UNL     1       0.262   1.742   2.586  0.00  0.00    -0.201 NA
ATOM      5  C   UNL     1      -0.177   2.073   3.799  0.00  0.00    +0.217 A 
ATOM      6  N   UNL     1      -1.390   2.596   3.944  0.00  0.00    -0.181 NA
ATOM      7  C   UNL     1      -2.159   2.787   2.879  0.00  0.00    +0.222 A 
ATOM      8  N   UNL     1      -1.711   2.459   1.669  0.00  0.00    -0.201 NA
ATOM      9  N   UNL     1      -3.419   3.331   3.025  0.00  0.00    -0.306 N 
ATOM     10  C   UNL     1      -3.909   3.697   4.356  0.00  0.00    +0.132 C 
ATOM     11  C   UNL     1      -4.267   3.541   1.849  0.00  0.00    +0.132 C 
ATOM     12  N   UNL     1       0.626   1.872   4.903  0.00  0.00    -0.327 N 
ATOM     13  H   UNL     1       1.511   1.489   4.795  0.00  0.00    +0.145 HD
ATOM     14  H   UNL     1       0.305   2.113   5.786  0.00  0.00    +0.145 HD
ENDBRANCH   1   3
BRANCH   1  15
ATOM     15  N   UNL     1       1.384   2.025  -0.003  0.00  0.00    +0.390 N 
ATOM     16  H   UNL     1       1.870   1.960   0.899  0.00  0.00    -0.084 HD
ATOM     17  H   UNL     1       1.863   1.433  -0.693  0.00  0.00    -0.084 HD
BRANCH  15  19
ATOM     18  C   UNL     1       1.322   3.459  -1.994  0.00  0.00    -0.009 C 
ATOM     19  C   UNL     1       1.405   3.425  -0.467  0.00  0.00    -0.042 C 
BRANCH  19  20
ATOM     20  C   UNL     1       2.688   4.077  -0.018  0.00  0.00    -0.048 A 
ATOM     21  C   UNL     1       3.804   3.302   0.234  0.00  0.00    +0.003 A 
ATOM     22  C   UNL     1       4.981   3.899   0.645  0.00  0.00    +0.000 A 
ATOM     23  C   UNL     1       5.042   5.271   0.803  0.00  0.00    +0.001 A 
ATOM     24  C   UNL     1       3.926   6.046   0.551  0.00  0.00    +0.015 A 
ATOM     25  C   UNL     1       2.749   5.450   0.136  0.00  0.00    +0.019 A 
ATOM     26 BR   UNL     1       1.224   6.510  -0.216  0.00  0.00    -0.050 Br
ENDBRANCH  19  20
ENDBRANCH  15  19
ENDBRANCH   1  15
TORSDOF 4
