REMARK  Name = ZINC35427022
REMARK  5 active torsions:
REMARK  status: ('A' for Active; 'I' for Inactive)
REMARK    1  A    between atoms: C_1  and  C_2
REMARK    2  A    between atoms: C_2  and  C_3
REMARK    3  A    between atoms: C_3  and  N_4
REMARK    4  A    between atoms: C_19  and  C_21
REMARK    5  A    between atoms: N_29  and  C_32
REMARK                            x       y       z     vdW  Elec       q    Type
REMARK                         _______ _______ _______ _____ _____    ______ ____
ROOT
ATOM      1  N   UNL     1      -2.372  -1.412   0.026  0.00  0.00    -0.299 N 
ATOM      2  C   UNL     1      -3.267  -2.418   0.077  0.00  0.00    +0.303 C 
ATOM      3  O   UNL     1      -4.448  -2.175   0.228  0.00  0.00    -0.253 OA
ATOM      4  N   UNL     1      -2.852  -3.696  -0.039  0.00  0.00    -0.269 N 
ATOM      5  C   UNL     1      -1.428  -4.032  -0.217  0.00  0.00    +0.148 C 
ATOM      6  C   UNL     1      -1.212  -5.162  -1.199  0.00  0.00    +0.004 A 
ATOM      7  C   UNL     1      -0.623  -4.980  -2.464  0.00  0.00    -0.034 A 
ATOM      8  C   UNL     1      -0.465  -6.076  -3.255  0.00  0.00    -0.021 A 
ATOM      9  S   UNL     1      -1.125  -7.401  -2.278  0.00  0.00    -0.077 S 
ATOM     10  C   UNL     1      -1.593  -6.429  -0.878  0.00  0.00    +0.090 A 
ATOM     11  N   UNL     1      -2.228  -6.774   0.308  0.00  0.00    -0.312 N 
ATOM     12  C   UNL     1      -2.014  -7.790   1.177  0.00  0.00    +0.092 A 
ATOM     13  C   UNL     1      -2.863  -7.635   2.218  0.00  0.00    +0.020 A 
ATOM     14  C   UNL     1      -3.643  -6.486   1.964  0.00  0.00    +0.025 A 
ATOM     15  C   UNL     1      -3.255  -5.990   0.780  0.00  0.00    +0.049 A 
ATOM     16  C   UNL     1      -3.805  -4.830   0.013  0.00  0.00    +0.155 C 
ATOM     17  C   UNL     1       0.128  -6.115  -4.624  0.00  0.00    -0.036 C 
ATOM     18  N   UNL     1       0.181  -4.736  -5.145  0.00  0.00    +0.381 N 
ATOM     19  C   UNL     1       0.805  -3.860  -4.145  0.00  0.00    -0.074 C 
ATOM     20  C   UNL     1      -0.155  -3.620  -2.975  0.00  0.00    +0.018 C 
ATOM     21  C   UNL     1       0.975  -4.710  -6.381  0.00  0.00    -0.096 C 
ATOM     22  H   UNL     1      -1.429  -1.607  -0.094  0.00  0.00    +0.150 HD
ATOM     23  H   UNL     1      -0.754  -4.413  -5.339  0.00  0.00    -0.082 HD
ENDROOT
BRANCH  16  24
ATOM     24  C   UNL     1      -4.111  -5.278  -1.393  0.00  0.00    -0.021 A 
ATOM     25  C   UNL     1      -4.603  -6.550  -1.622  0.00  0.00    +0.007 A 
ATOM     26  C   UNL     1      -4.884  -6.961  -2.911  0.00  0.00    +0.020 A 
ATOM     27  C   UNL     1      -4.672  -6.101  -3.973  0.00  0.00    +0.041 A 
ATOM     28  C   UNL     1      -4.179  -4.828  -3.744  0.00  0.00    +0.020 A 
ATOM     29  C   UNL     1      -3.904  -4.416  -2.454  0.00  0.00    +0.007 A 
ATOM     30 CL   UNL     1      -5.023  -6.617  -5.593  0.00  0.00    -0.084 Cl
ENDBRANCH  16  24
BRANCH   1  31
ATOM     31  C   UNL     1      -2.823  -0.024   0.152  0.00  0.00    +0.105 C 
BRANCH  31  33
ATOM     32  C   UNL     1      -2.089   2.364   0.193  0.00  0.00    +0.005 C 
ATOM     33  C   UNL     1      -1.618   0.914   0.061  0.00  0.00    +0.015 C 
ENDBRANCH  31  33
ENDBRANCH   1  31
TORSDOF 3
