REMARK  Name = ZINC56485969
REMARK  6 active torsions:
REMARK  status: ('A' for Active; 'I' for Inactive)
REMARK    1  A    between atoms: C_1  and  C_2
REMARK    2  A    between atoms: C_7  and  C_10
REMARK    3  A    between atoms: N_13  and  C_14
REMARK    4  A    between atoms: C_14  and  C_15
REMARK    5  A    between atoms: C_15  and  O_16
REMARK    6  A    between atoms: O_16  and  C_17
REMARK                            x       y       z     vdW  Elec       q    Type
REMARK                         _______ _______ _______ _____ _____    ______ ____
ROOT
ATOM      1  C   UNL     1      -0.020  -2.182   3.718  0.00  0.00    +0.039 C 
ATOM      2  C   UNL     1      -0.973  -1.787   2.588  0.00  0.00    +0.133 C 
ATOM      3  C   UNL     1      -0.583  -2.530   1.305  0.00  0.00    +0.140 C 
ATOM      4  N   UNL     1      -1.389  -1.995   0.196  0.00  0.00    -0.281 N 
ATOM      5  C   UNL     1      -1.433  -0.536   0.013  0.00  0.00    +0.140 C 
ATOM      6  C   UNL     1      -1.781   0.110   1.359  0.00  0.00    +0.133 C 
ATOM      7  O   UNL     1      -0.887  -0.378   2.362  0.00  0.00    -0.371 OA
ATOM      8  C   UNL     1      -1.645   1.630   1.247  0.00  0.00    +0.039 C 
ATOM      9  C   UNL     1      -2.068  -2.818  -0.627  0.00  0.00    +0.302 C 
ATOM     10  O   UNL     1      -2.804  -2.356  -1.478  0.00  0.00    -0.253 OA
ATOM     11  N   UNL     1      -1.933  -4.154  -0.507  0.00  0.00    -0.296 N 
ATOM     12  H   UNL     1      -1.403  -4.525   0.216  0.00  0.00    +0.150 HD
ENDROOT
BRANCH  11  13
ATOM     13  C   UNL     1      -2.584  -5.046  -1.470  0.00  0.00    +0.146 C 
BRANCH  13  14
ATOM     14  C   UNL     1      -2.272  -6.500  -1.110  0.00  0.00    +0.247 C 
BRANCH  14  15
ATOM     15  O   UNL     1      -2.860  -6.814   0.154  0.00  0.00    -0.490 OA
BRANCH  15  16
ATOM     16  C   UNL     1      -2.676  -8.076   0.623  0.00  0.00    +0.121 A 
ATOM     17  C   UNL     1      -1.940  -8.992  -0.115  0.00  0.00    +0.046 A 
ATOM     18  C   UNL     1      -1.756 -10.273   0.366  0.00  0.00    +0.007 A 
ATOM     19  C   UNL     1      -2.304 -10.648   1.582  0.00  0.00    -0.044 A 
ATOM     20  C   UNL     1      -3.038  -9.737   2.319  0.00  0.00    -0.041 A 
ATOM     21  C   UNL     1      -3.219  -8.450   1.842  0.00  0.00    +0.049 A 
ATOM     22  C   UNL     1      -3.524 -10.386   3.597  0.00  0.00    +0.036 C 
ATOM     23  C   UNL     1      -3.382 -11.904   3.359  0.00  0.00    +0.009 C 
ATOM     24  C   UNL     1      -2.247 -11.971   2.316  0.00  0.00    +0.036 C 
ENDBRANCH  15  16
ENDBRANCH  14  15
ENDBRANCH  13  14
ENDBRANCH  11  13
TORSDOF 4
