REMARK  Name = ZINC40823948
REMARK  7 active torsions:
REMARK  status: ('A' for Active; 'I' for Inactive)
REMARK    1  A    between atoms: C_1  and  C_2
REMARK    2  A    between atoms: C_6  and  C_7
REMARK    3  A    between atoms: N_9  and  C_10
REMARK    4  A    between atoms: C_10  and  C_11
REMARK    5  A    between atoms: C_11  and  C_12
REMARK    6  A    between atoms: N_21  and  N_22
REMARK    7  A    between atoms: N_22  and  C_23
REMARK                            x       y       z     vdW  Elec       q    Type
REMARK                         _______ _______ _______ _____ _____    ______ ____
ROOT
ATOM      1  C   UNL     1      -0.018   1.503   0.010  0.00  0.00    +0.048 C 
ATOM      2  C   UNL     1       0.002  -0.004   0.002  0.00  0.00    +0.009 A 
ATOM      3  C   UNL     1       0.008  -0.838  -1.122  0.00  0.00    +0.042 A 
ATOM      4  C   UNL     1       0.026  -2.137  -0.673  0.00  0.00    +0.115 A 
ATOM      5  O   UNL     1       0.034  -2.112   0.658  0.00  0.00    -0.454 OA
ATOM      6  C   UNL     1       0.024  -0.830   1.091  0.00  0.00    +0.193 A 
ATOM      7  C   UNL     1       0.033  -3.326  -1.600  0.00  0.00    +0.075 C 
ATOM      8  C   UNL     1      -0.492  -2.902  -2.975  0.00  0.00    +0.014 C 
ATOM      9  C   UNL     1       0.279  -1.684  -3.495  0.00  0.00    +0.058 C 
ATOM     10  C   UNL     1       0.001  -0.511  -2.566  0.00  0.00    +0.070 C 
ATOM     11  N   UNL     1      -0.227   0.687  -3.008  0.00  0.00    -0.186 NA
ENDROOT
BRANCH   6  12
ATOM     12  C   UNL     1       0.032  -0.400   2.494  0.00  0.00    +0.280 C 
ATOM     13  O   UNL     1       0.019   0.786   2.766  0.00  0.00    -0.267 OA
ATOM     14  N   UNL     1       0.054  -1.317   3.480  0.00  0.00    -0.308 N 
ATOM     15  H   UNL     1       0.065  -2.263   3.263  0.00  0.00    +0.149 HD
BRANCH  14  16
ATOM     16  C   UNL     1       0.062  -0.887   4.881  0.00  0.00    +0.110 C 
BRANCH  16  17
ATOM     17  C   UNL     1       0.088  -2.116   5.792  0.00  0.00    +0.061 C 
BRANCH  17  18
ATOM     18  C   UNL     1       0.096  -1.674   7.232  0.00  0.00    -0.009 A 
ATOM     19  C   UNL     1      -0.952  -1.443   8.060  0.00  0.00    +0.011 A 
ATOM     20  C   UNL     1      -0.704  -1.039   9.359  0.00  0.00    +0.008 A 
ATOM     21  C   UNL     1       0.580  -0.887   9.766  0.00  0.00    +0.045 A 
ATOM     22  S   UNL     1       1.489  -1.325   8.293  0.00  0.00    -0.102 S 
ENDBRANCH  17  18
ENDBRANCH  16  17
ENDBRANCH  14  16
ENDBRANCH   6  12
BRANCH  11  23
ATOM     23  N   UNL     1      -0.222   0.939  -4.386  0.00  0.00    -0.238 N 
ATOM     24  H   UNL     1      -0.048   0.217  -5.010  0.00  0.00    +0.174 HD
BRANCH  23  25
ATOM     25  C   UNL     1      -0.467   2.229  -4.861  0.00  0.00    +0.048 A 
ATOM     26  C   UNL     1      -0.710   3.265  -3.967  0.00  0.00    +0.027 A 
ATOM     27  C   UNL     1      -0.952   4.540  -4.440  0.00  0.00    +0.040 A 
ATOM     28  C   UNL     1      -0.952   4.787  -5.803  0.00  0.00    +0.124 A 
ATOM     29  C   UNL     1      -0.710   3.756  -6.695  0.00  0.00    +0.040 A 
ATOM     30  C   UNL     1      -0.462   2.480  -6.228  0.00  0.00    +0.027 A 
ATOM     31  F   UNL     1      -1.188   6.035  -6.262  0.00  0.00    -0.205 F 
ENDBRANCH  23  25
ENDBRANCH  11  23
TORSDOF 6
