REMARK  Name = ZINC12408264
REMARK  7 active torsions:
REMARK  status: ('A' for Active; 'I' for Inactive)
REMARK    1  A    between atoms: C_1  and  C_2
REMARK    2  A    between atoms: N_8  and  C_9
REMARK    3  A    between atoms: C_9  and  C_10
REMARK    4  A    between atoms: C_10  and  C_11
REMARK    5  A    between atoms: C_18  and  O_21
REMARK    6  A    between atoms: O_21  and  C_22
REMARK    7  A    between atoms: N_25  and  C_28
REMARK                            x       y       z     vdW  Elec       q    Type
REMARK                         _______ _______ _______ _____ _____    ______ ____
ROOT
ATOM      1  C   UNL     1       2.780  -0.413   0.116  0.00  0.00    +0.064 C 
ATOM      2  C   UNL     1       2.021  -0.676  -1.160  0.00  0.00    +0.033 A 
ATOM      3  C   UNL     1       2.687  -1.118  -2.274  0.00  0.00    +0.085 A 
ATOM      4  C   UNL     1       1.930  -1.369  -3.509  0.00  0.00    +0.075 A 
ATOM      5  C   UNL     1       0.570  -1.149  -3.497  0.00  0.00    +0.098 A 
ATOM      6  C   UNL     1      -0.032  -0.702  -2.314  0.00  0.00    +0.254 A 
ATOM      7  O   UNL     1      -1.237  -0.509  -2.294  0.00  0.00    -0.268 OA
ATOM      8  N   UNL     1       0.688  -0.476  -1.203  0.00  0.00    -0.311 N 
ATOM      9  N   UNL     1       2.838  -1.795  -4.446  0.00  0.00    -0.289 N 
ATOM     10  H   UNL     1       2.624  -2.036  -5.361  0.00  0.00    +0.187 HD
ATOM     11  N   UNL     1       4.119  -1.830  -3.886  0.00  0.00    -0.219 N 
ATOM     12  C   UNL     1       4.085  -1.437  -2.597  0.00  0.00    +0.281 A 
ATOM     13  O   UNL     1       5.035  -1.360  -1.841  0.00  0.00    -0.265 OA
ENDROOT
BRANCH  11  14
ATOM     14  C   UNL     1       5.276  -2.220  -4.569  0.00  0.00    +0.067 A 
ATOM     15  C   UNL     1       6.503  -2.214  -3.918  0.00  0.00    +0.030 A 
ATOM     16  C   UNL     1       7.643  -2.605  -4.593  0.00  0.00    +0.040 A 
ATOM     17  C   UNL     1       7.566  -2.991  -5.920  0.00  0.00    +0.124 A 
ATOM     18  C   UNL     1       6.344  -2.993  -6.572  0.00  0.00    +0.040 A 
ATOM     19  C   UNL     1       5.200  -2.608  -5.900  0.00  0.00    +0.030 A 
ATOM     20  F   UNL     1       8.683  -3.368  -6.580  0.00  0.00    -0.205 F 
ENDBRANCH  11  14
BRANCH   8  21
ATOM     21  C   UNL     1       0.002  -0.004   0.002  0.00  0.00    +0.130 C 
BRANCH  21  22
ATOM     22  C   UNL     1      -0.019   1.526   0.010  0.00  0.00    +0.059 C 
BRANCH  22  23
ATOM     23  C   UNL     1      -0.724   2.012   1.250  0.00  0.00    -0.021 A 
ATOM     24  C   UNL     1      -2.020   2.348   1.352  0.00  0.00    +0.087 A 
ATOM     25  N   UNL     1      -2.301   2.743   2.631  0.00  0.00    -0.360 N 
ATOM     26  H   UNL     1      -3.171   3.032   2.947  0.00  0.00    +0.165 HD
ATOM     27  C   UNL     1      -1.162   2.668   3.405  0.00  0.00    +0.047 A 
ATOM     28  C   UNL     1      -0.127   2.201   2.575  0.00  0.00    +0.006 A 
ATOM     29  C   UNL     1       1.159   2.031   3.091  0.00  0.00    +0.056 A 
ATOM     30  C   UNL     1       1.403   2.313   4.420  0.00  0.00    +0.121 A 
ATOM     31  C   UNL     1       0.375   2.768   5.241  0.00  0.00    +0.047 A 
ATOM     32  C   UNL     1      -0.896   2.945   4.741  0.00  0.00    +0.030 A 
BRANCH  30  33
ATOM     33  O   UNL     1       2.653   2.144   4.930  0.00  0.00    -0.495 OA
ATOM     34  C   UNL     1       2.836   2.453   6.313  0.00  0.00    +0.277 C 
ENDBRANCH  30  33
ENDBRANCH  22  23
ENDBRANCH  21  22
ENDBRANCH   8  21
TORSDOF 5
