REMARK  Name = ZINC39387812
REMARK  7 active torsions:
REMARK  status: ('A' for Active; 'I' for Inactive)
REMARK    1  A    between atoms: C_1  and  C_2
REMARK    2  A    between atoms: C_5  and  N_8
REMARK    3  A    between atoms: C_11  and  C_29
REMARK    4  A    between atoms: C_11  and  C_30
REMARK    5  A    between atoms: C_13  and  N_17
REMARK    6  A    between atoms: N_17  and  C_18
REMARK    7  A    between atoms: C_18  and  C_19
REMARK                            x       y       z     vdW  Elec       q    Type
REMARK                         _______ _______ _______ _____ _____    ______ ____
ROOT
ATOM      1  N   UNL     1       0.057  -4.167  -0.021  0.00  0.00    -0.221 N 
ATOM      2  C   UNL     1       0.169  -5.062   1.119  0.00  0.00    +0.109 C 
ATOM      3  C   UNL     1      -0.360  -4.642   2.470  0.00  0.00    +0.031 C 
ATOM      4  C   UNL     1      -0.158  -5.838   3.418  0.00  0.00    -0.032 C 
ATOM      5  C   UNL     1      -0.833  -7.103   2.899  0.00  0.00    +0.025 C 
ATOM      6  C   UNL     1      -0.405  -7.430   1.454  0.00  0.00    +0.065 C 
ATOM      7  C   UNL     1      -0.753  -6.215   0.626  0.00  0.00    +0.071 C 
ATOM      8  C   UNL     1      -0.484  -6.202  -0.839  0.00  0.00    +0.110 C 
ATOM      9  N   UNL     1      -0.036  -5.030  -1.141  0.00  0.00    -0.191 NA
ATOM     10  C   UNL     1      -0.741  -5.490   4.789  0.00  0.00    +0.011 C 
ATOM     11  C   UNL     1       1.342  -6.103   3.572  0.00  0.00    +0.011 C 
ENDROOT
BRANCH   1  16
ATOM     12  C   UNL     1      -0.018   1.503   0.012  0.00  0.00    +0.044 C 
ATOM     13  C   UNL     1       0.003  -0.004   0.003  0.00  0.00    -0.050 A 
ATOM     14  C   UNL     1      -0.931  -0.702  -0.741  0.00  0.00    +0.005 A 
ATOM     15  C   UNL     1      -0.916  -2.083  -0.752  0.00  0.00    +0.025 A 
ATOM     16  C   UNL     1       0.039  -2.771  -0.013  0.00  0.00    +0.052 A 
ATOM     17  C   UNL     1       0.976  -2.066   0.733  0.00  0.00    +0.025 A 
ATOM     18  C   UNL     1       0.958  -0.686   0.735  0.00  0.00    +0.005 A 
ENDBRANCH   1  16
BRANCH   6  19
ATOM     19  N   UNL     1       1.042  -7.681   1.400  0.00  0.00    -0.306 NA
ATOM     20  H   UNL     1       1.418  -7.434   0.497  0.00  0.00    +0.123 HD
BRANCH  19  21
ATOM     21  C   UNL     1       1.346  -9.079   1.734  0.00  0.00    +0.156 C 
BRANCH  21  22
ATOM     22  C   UNL     1       2.836  -9.297   1.669  0.00  0.00    +0.122 A 
ATOM     23  N   UNL     1       3.681  -9.234   2.733  0.00  0.00    -0.341 N 
ATOM     24  H   UNL     1       3.434  -9.043   3.652  0.00  0.00    +0.167 HD
ATOM     25  C   UNL     1       4.953  -9.491   2.264  0.00  0.00    +0.066 A 
ATOM     26  C   UNL     1       6.206  -9.565   2.857  0.00  0.00    +0.028 A 
ATOM     27  C   UNL     1       7.312  -9.850   2.084  0.00  0.00    +0.002 A 
ATOM     28  C   UNL     1       7.180 -10.064   0.720  0.00  0.00    +0.002 A 
ATOM     29  C   UNL     1       5.955  -9.995   0.119  0.00  0.00    +0.030 A 
ATOM     30  C   UNL     1       4.820  -9.708   0.882  0.00  0.00    +0.089 A 
ATOM     31  N   UNL     1       3.501  -9.580   0.586  0.00  0.00    -0.231 NA
ENDBRANCH  21  22
ENDBRANCH  19  21
ENDBRANCH   6  19
TORSDOF 4
