REMARK  Name = ZINC56184833
REMARK  11 active torsions:
REMARK  status: ('A' for Active; 'I' for Inactive)
REMARK    1  A    between atoms: C_1  and  C_2
REMARK    2  A    between atoms: C_2  and  O_3
REMARK    3  A    between atoms: O_3  and  C_4
REMARK    4  A    between atoms: C_7  and  C_10
REMARK    5  A    between atoms: C_12  and  C_15
REMARK    6  A    between atoms: C_15  and  C_16
REMARK    7  A    between atoms: C_16  and  C_17
REMARK    8  A    between atoms: N_19  and  C_20
REMARK    9  A    between atoms: N_19  and  C_23
REMARK   10  A    between atoms: C_23  and  C_24
REMARK   11  A    between atoms: C_23  and  C_25
REMARK                            x       y       z     vdW  Elec       q    Type
REMARK                         _______ _______ _______ _____ _____    ______ ____
ROOT
ATOM      1  C   UNL     1       2.202  -9.092   3.488  0.00  0.00    +0.108 C 
ENDROOT
BRANCH   1   4
ATOM      2  C   UNL     1       1.186  -6.099   1.704  0.00  0.00    +0.202 A 
ATOM      3  N   UNL     1       1.796  -6.748   2.712  0.00  0.00    -0.191 NA
ATOM      4  C   UNL     1       1.658  -8.035   2.563  0.00  0.00    +0.228 A 
ATOM      5  O   UNL     1       0.951  -8.259   1.448  0.00  0.00    -0.338 OA
ATOM      6  N   UNL     1       0.646  -6.984   0.902  0.00  0.00    -0.056 NA
BRANCH   2  10
ATOM      7  C   UNL     1       1.021  -1.878   1.211  0.00  0.00    +0.121 A 
ATOM      8  C   UNL     1       0.405  -2.708   0.284  0.00  0.00    +0.046 A 
ATOM      9  C   UNL     1       0.457  -4.077   0.441  0.00  0.00    +0.015 A 
ATOM     10  C   UNL     1       1.129  -4.627   1.532  0.00  0.00    +0.023 A 
ATOM     11  C   UNL     1       1.747  -3.791   2.460  0.00  0.00    +0.015 A 
ATOM     12  C   UNL     1       1.696  -2.423   2.295  0.00  0.00    +0.046 A 
BRANCH   7  13
ATOM     13  O   UNL     1       0.969  -0.529   1.053  0.00  0.00    -0.492 OA
BRANCH  13  15
ATOM     14  C   UNL     1       0.308   1.493  -0.094  0.00  0.00    +0.048 C 
ATOM     15  C   UNL     1       0.259  -0.036  -0.085  0.00  0.00    +0.225 C 
ENDBRANCH  13  15
ENDBRANCH   7  13
ENDBRANCH   2  10
ENDBRANCH   1   4
BRANCH   1  16
ATOM     16  C   UNL     1       1.165  -9.408   4.568  0.00  0.00    +0.105 C 
BRANCH  16  17
ATOM     17  C   UNL     1       1.710 -10.466   5.493  0.00  0.00    +0.217 C 
ATOM     18  O   UNL     1       2.779 -10.987   5.256  0.00  0.00    -0.276 OA
ATOM     19  N   UNL     1       1.008 -10.832   6.584  0.00  0.00    -0.289 N 
BRANCH  19  20
ATOM     20  C   UNL     1       1.593 -11.763   7.553  0.00  0.00    +0.077 C 
ATOM     21  C   UNL     1       3.106 -11.984   7.494  0.00  0.00    +0.024 C 
ATOM     22  C   UNL     1       2.154 -13.081   7.016  0.00  0.00    +0.024 C 
ENDBRANCH  19  20
BRANCH  19  23
ATOM     23  C   UNL     1      -0.339 -10.300   6.802  0.00  0.00    +0.139 C 
ATOM     24  C   UNL     1      -0.376  -9.529   8.123  0.00  0.00    +0.036 C 
BRANCH  23  25
ATOM     25  C   UNL     1      -1.326 -11.437   6.856  0.00  0.00    +0.125 A 
ATOM     26  C   UNL     1      -2.554 -11.440   6.307  0.00  0.00    +0.046 A 
ATOM     27  C   UNL     1      -3.130 -12.698   6.598  0.00  0.00    +0.041 A 
ATOM     28  C   UNL     1      -2.219 -13.389   7.307  0.00  0.00    +0.195 A 
ATOM     29  O   UNL     1      -1.126 -12.622   7.455  0.00  0.00    -0.466 OA
ENDBRANCH  23  25
ENDBRANCH  19  23
ENDBRANCH  16  17
ENDBRANCH   1  16
TORSDOF 9
