REMARK  Name = ZINC09433599
REMARK  13 active torsions:
REMARK  status: ('A' for Active; 'I' for Inactive)
REMARK    1  A    between atoms: C_1  and  C_2
REMARK    2  A    between atoms: C_2  and  C_3
REMARK    3  A    between atoms: C_3  and  C_4
REMARK    4  A    between atoms: C_4  and  N_73
REMARK    5  A    between atoms: C_5  and  C_6
REMARK    6  A    between atoms: C_5  and  N_73
REMARK    7  A    between atoms: C_7  and  C_8
REMARK    8  A    between atoms: C_7  and  N_73
REMARK    9  A    between atoms: C_8  and  C_9
REMARK   10  A    between atoms: C_9  and  N_10
REMARK   11  A    between atoms: C_11  and  C_13
REMARK   12  A    between atoms: N_23  and  C_31
REMARK   13  A    between atoms: C_24  and  C_26
REMARK                            x       y       z     vdW  Elec       q    Type
REMARK                         _______ _______ _______ _____ _____    ______ ____
ROOT
ATOM      1  C   UNL     1      -2.333   2.881   6.038  0.00  0.00    +0.131 C 
ATOM      2  C   UNL     1      -3.732   2.356   5.848  0.00  0.00    -0.021 A 
ATOM      3  C   UNL     1      -4.623   3.009   5.024  0.00  0.00    +0.005 A 
ATOM      4  C   UNL     1      -5.901   2.506   4.849  0.00  0.00    +0.000 A 
ATOM      5  C   UNL     1      -6.292   1.347   5.497  0.00  0.00    +0.001 A 
ATOM      6  C   UNL     1      -5.410   0.687   6.330  0.00  0.00    +0.013 A 
ATOM      7  C   UNL     1      -4.126   1.194   6.514  0.00  0.00    +0.041 A 
ATOM      8  C   UNL     1      -3.171   0.531   7.427  0.00  0.00    +0.248 C 
ATOM      9  O   UNL     1      -3.393  -0.591   7.839  0.00  0.00    -0.270 OA
ATOM     10  N   UNL     1      -2.053   1.183   7.799  0.00  0.00    -0.286 N 
ATOM     11  C   UNL     1      -1.851   2.589   7.456  0.00  0.00    +0.130 C 
ENDROOT
BRANCH  11  12
ATOM     12  C   UNL     1      -2.617   3.450   8.427  0.00  0.00    +0.011 A 
ATOM     13  C   UNL     1      -2.238   4.604   9.028  0.00  0.00    +0.013 A 
ATOM     14  C   UNL     1      -3.118   5.231   9.890  0.00  0.00    +0.008 A 
ATOM     15  C   UNL     1      -4.330   4.668  10.117  0.00  0.00    +0.045 A 
ATOM     16  S   UNL     1      -4.258   3.211   9.089  0.00  0.00    -0.100 S 
ENDBRANCH  11  12
BRANCH  10  17
ATOM     17  C   UNL     1      -1.022   0.471   8.559  0.00  0.00    +0.077 C 
ATOM     18  C   UNL     1      -0.535  -0.759   7.765  0.00  0.00    +0.022 C 
ATOM     19  C   UNL     1      -0.298  -1.840   8.850  0.00  0.00    +0.002 C 
ATOM     20  C   UNL     1      -1.464  -1.595   9.839  0.00  0.00    +0.002 C 
ATOM     21  C   UNL     1      -1.612  -0.060   9.877  0.00  0.00    +0.022 C 
ENDBRANCH  10  17
BRANCH   1  23
ATOM     22  N   UNL     1      -1.634   2.345   3.726  0.00  0.00    -0.315 N 
ATOM     23  C   UNL     1      -1.411   2.215   5.049  0.00  0.00    +0.223 C 
ATOM     24  O   UNL     1      -0.470   1.560   5.444  0.00  0.00    -0.275 OA
ATOM     25  H   UNL     1      -2.387   2.869   3.411  0.00  0.00    +0.149 HD
BRANCH  22  26
ATOM     26  C   UNL     1      -0.737   1.698   2.765  0.00  0.00    +0.102 C 
BRANCH  26  27
ATOM     27  C   UNL     1      -1.209   2.002   1.342  0.00  0.00    +0.000 C 
BRANCH  27  28
ATOM     28  C   UNL     1      -0.273   1.326   0.339  0.00  0.00    -0.077 C 
BRANCH  28  29
ATOM     29  N   UNL     1      -0.730   1.647  -1.030  0.00  0.00    +0.380 N 
ATOM     30  H   UNL     1      -0.841   2.664  -1.115  0.00  0.00    -0.082 HD
BRANCH  29  31
ATOM     31  C   UNL     1      -2.031   0.998  -1.294  0.00  0.00    -0.082 C 
ATOM     32  C   UNL     1      -2.652   1.631  -2.540  0.00  0.00    -0.017 C 
ENDBRANCH  29  31
BRANCH  29  33
ATOM     33  C   UNL     1       0.272   1.190  -2.016  0.00  0.00    -0.079 C 
BRANCH  33  34
ATOM     34  C   UNL     1       1.436   2.182  -2.030  0.00  0.00    -0.019 C 
BRANCH  34  36
ATOM     35  C   UNL     1       3.579   2.799  -3.156  0.00  0.00    +0.004 C 
ATOM     36  C   UNL     1       2.415   1.806  -3.143  0.00  0.00    -0.005 C 
ENDBRANCH  34  36
ENDBRANCH  33  34
ENDBRANCH  29  33
ENDBRANCH  28  29
ENDBRANCH  27  28
ENDBRANCH  26  27
ENDBRANCH  22  26
ENDBRANCH   1  23
TORSDOF 11
