REMARK  Name = ZINC00751075
REMARK  13 active torsions:
REMARK  status: ('A' for Active; 'I' for Inactive)
REMARK    1  A    between atoms: C_1  and  C_2
REMARK    2  A    between atoms: C_2  and  C_3
REMARK    3  A    between atoms: C_3  and  N_4
REMARK    4  A    between atoms: N_4  and  C_5
REMARK    5  A    between atoms: C_5  and  C_6
REMARK    6  A    between atoms: N_8  and  C_9
REMARK    7  A    between atoms: C_11  and  C_22
REMARK    8  A    between atoms: N_13  and  C_14
REMARK    9  A    between atoms: C_17  and  C_21
REMARK   10  A    between atoms: C_19  and  C_20
REMARK   11  A    between atoms: N_30  and  C_31
REMARK   12  A    between atoms: C_36  and  O_37
REMARK   13  A    between atoms: O_37  and  C_38
REMARK                            x       y       z     vdW  Elec       q    Type
REMARK                         _______ _______ _______ _____ _____    ______ ____
ROOT
ATOM      1  C   UNL     1      -3.420  -1.381   0.447  0.00  0.00    +0.236 C 
ATOM      2  O   UNL     1      -3.154  -2.561   0.541  0.00  0.00    -0.274 OA
ATOM      3  N   UNL     1      -2.433  -0.480   0.272  0.00  0.00    -0.269 N 
ATOM      4  H   UNL     1      -2.646   0.463   0.197  0.00  0.00    +0.156 HD
ENDROOT
BRANCH   3   5
ATOM      5  C   UNL     1      -1.107  -0.904   0.199  0.00  0.00    +0.129 A 
ATOM      6  C   UNL     1      -0.677  -2.193   0.177  0.00  0.00    +0.074 A 
ATOM      7  C   UNL     1       0.729  -2.177   0.104  0.00  0.00    +0.095 A 
ATOM      8  N   UNL     1       1.125  -0.921   0.078  0.00  0.00    -0.165 NA
ATOM      9  N   UNL     1      -0.009  -0.101   0.133  0.00  0.00    -0.218 N 
BRANCH   9  10
ATOM     10  C   UNL     1      -0.012   1.300   0.127  0.00  0.00    +0.070 A 
ATOM     11  C   UNL     1      -0.837   1.990  -0.752  0.00  0.00    +0.028 A 
ATOM     12  C   UNL     1      -0.841   3.371  -0.753  0.00  0.00    +0.005 A 
ATOM     13  C   UNL     1      -0.019   4.067   0.115  0.00  0.00    -0.050 A 
ATOM     14  C   UNL     1       0.807   3.383   0.987  0.00  0.00    +0.008 A 
ATOM     15  C   UNL     1       0.812   2.002   0.996  0.00  0.00    -0.025 A 
ATOM     16  C   UNL     1       1.713   1.257   1.948  0.00  0.00    +0.046 C 
ATOM     17  C   UNL     1      -0.023   5.574   0.108  0.00  0.00    +0.044 C 
ENDBRANCH   9  10
BRANCH   7  18
ATOM     18  C   UNL     1       1.612  -3.369   0.064  0.00  0.00    +0.002 A 
ATOM     19  C   UNL     1       1.062  -4.648   0.104  0.00  0.00    +0.010 A 
ATOM     20  C   UNL     1       1.887  -5.753   0.061  0.00  0.00    +0.001 A 
ATOM     21  C   UNL     1       3.259  -5.593  -0.011  0.00  0.00    +0.000 A 
ATOM     22  C   UNL     1       3.811  -4.325  -0.045  0.00  0.00    +0.001 A 
ATOM     23  C   UNL     1       2.995  -3.213  -0.008  0.00  0.00    +0.010 A 
ENDBRANCH   7  18
ENDBRANCH   3   5
BRANCH   1  24
ATOM     24  C   UNL     1      -4.853  -0.923   0.526  0.00  0.00    +0.205 C 
BRANCH  24  25
ATOM     25  N   UNL     1      -5.727  -2.084   0.717  0.00  0.00    -0.277 N 
ATOM     26  C   UNL     1      -6.028  -2.503   1.962  0.00  0.00    +0.307 C 
ATOM     27  O   UNL     1      -5.575  -1.918   2.927  0.00  0.00    -0.252 OA
ATOM     28  N   UNL     1      -6.832  -3.570   2.138  0.00  0.00    -0.266 N 
ATOM     29  H   UNL     1      -7.144  -4.074   1.370  0.00  0.00    +0.156 HD
BRANCH  28  30
ATOM     30  C   UNL     1      -7.217  -3.953   3.430  0.00  0.00    +0.077 A 
ATOM     31  C   UNL     1      -6.340  -3.794   4.493  0.00  0.00    +0.027 A 
ATOM     32  C   UNL     1      -6.723  -4.168   5.767  0.00  0.00    +0.002 A 
ATOM     33  C   UNL     1      -7.977  -4.709   5.985  0.00  0.00    +0.004 A 
ATOM     34  C   UNL     1      -8.855  -4.874   4.930  0.00  0.00    +0.047 A 
ATOM     35  C   UNL     1      -8.480  -4.497   3.650  0.00  0.00    +0.141 A 
BRANCH  35  36
ATOM     36  O   UNL     1      -9.342  -4.660   2.611  0.00  0.00    -0.493 OA
ATOM     37  C   UNL     1     -10.620  -5.225   2.912  0.00  0.00    +0.277 C 
ENDBRANCH  35  36
ENDBRANCH  28  30
BRANCH  25  38
ATOM     38  C   UNL     1      -6.273  -2.789  -0.445  0.00  0.00    +0.109 C 
BRANCH  38  40
ATOM     39  C   UNL     1      -5.882  -4.639  -2.077  0.00  0.00    +0.005 C 
ATOM     40  C   UNL     1      -5.312  -3.903  -0.864  0.00  0.00    +0.016 C 
ENDBRANCH  38  40
ENDBRANCH  25  38
ENDBRANCH  24  25
ENDBRANCH   1  24
TORSDOF 9
