REMARK  Name = ZINC19758251
REMARK  8 active torsions:
REMARK  status: ('A' for Active; 'I' for Inactive)
REMARK    1  A    between atoms: C_1  and  C_2
REMARK    2  A    between atoms: N_5  and  C_14
REMARK    3  A    between atoms: C_9  and  N_13
REMARK    4  A    between atoms: C_14  and  C_15
REMARK    5  A    between atoms: N_17  and  C_18
REMARK    6  A    between atoms: C_18  and  C_19
REMARK    7  A    between atoms: C_19  and  C_20
REMARK    8  A    between atoms: C_19  and  C_21
REMARK                            x       y       z     vdW  Elec       q    Type
REMARK                         _______ _______ _______ _____ _____    ______ ____
ROOT
ATOM      1  C   UNL     1      -0.019   1.526   0.010  0.00  0.00    +0.053 C 
ATOM      2  C   UNL     1       0.002  -0.004   0.002  0.00  0.00    +0.188 C 
ATOM      3  C   UNL     1       0.726  -0.502  -1.257  0.00  0.00    +0.150 C 
ATOM      4  N   UNL     1       0.763  -1.973  -1.197  0.00  0.00    -0.315 N 
ATOM      5  C   UNL     1       1.056  -2.569   0.044  0.00  0.00    +0.073 A 
ATOM      6  C   UNL     1       1.385  -3.914   0.107  0.00  0.00    +0.028 A 
ATOM      7  C   UNL     1       1.669  -4.499   1.327  0.00  0.00    +0.025 A 
ATOM      8  C   UNL     1       1.625  -3.740   2.488  0.00  0.00    +0.028 A 
ATOM      9  C   UNL     1       1.297  -2.392   2.427  0.00  0.00    +0.070 A 
ATOM     10  C   UNL     1       1.013  -1.802   1.205  0.00  0.00    +0.144 A 
ATOM     11  O   UNL     1       0.698  -0.480   1.156  0.00  0.00    -0.486 OA
ENDROOT
BRANCH   8  12
ATOM     12  N   UNL     1       1.911  -4.334   3.723  0.00  0.00    -0.358 N 
ATOM     13  H   UNL     1       2.140  -5.276   3.766  0.00  0.00    +0.142 HD
ATOM     14  H   UNL     1       1.880  -3.804   4.535  0.00  0.00    +0.142 HD
ENDBRANCH   8  12
BRANCH   4  15
ATOM     15  C   UNL     1       0.503  -2.788  -2.386  0.00  0.00    +0.201 C 
BRANCH  15  16
ATOM     16  C   UNL     1       1.799  -3.045  -3.111  0.00  0.00    +0.230 C 
ATOM     17  O   UNL     1       2.837  -2.593  -2.677  0.00  0.00    -0.274 OA
ATOM     18  N   UNL     1       1.804  -3.778  -4.243  0.00  0.00    -0.314 N 
ATOM     19  H   UNL     1       0.974  -4.139  -4.590  0.00  0.00    +0.149 HD
BRANCH  18  20
ATOM     20  C   UNL     1       3.064  -4.028  -4.948  0.00  0.00    +0.107 C 
BRANCH  20  21
ATOM     21  C   UNL     1       2.793  -4.879  -6.190  0.00  0.00    -0.000 C 
ATOM     22  C   UNL     1       4.086  -5.035  -6.993  0.00  0.00    +0.009 C 
ATOM     23  C   UNL     1       2.287  -6.258  -5.763  0.00  0.00    +0.009 C 
ENDBRANCH  20  21
ENDBRANCH  18  20
ENDBRANCH  15  16
ENDBRANCH   4  15
TORSDOF 5
