REMARK  Name = ZINC39666088
REMARK  11 active torsions:
REMARK  status: ('A' for Active; 'I' for Inactive)
REMARK    1  A    between atoms: C_1  and  C_2
REMARK    2  A    between atoms: C_2  and  O_3
REMARK    3  A    between atoms: O_3  and  C_4
REMARK    4  A    between atoms: C_9  and  C_10
REMARK    5  A    between atoms: C_14  and  C_23
REMARK    6  A    between atoms: N_25  and  C_26
REMARK    7  A    between atoms: C_26  and  C_27
REMARK    8  A    between atoms: C_27  and  C_29
REMARK    9  A    between atoms: C_27  and  O_30
REMARK   10  A    between atoms: O_30  and  C_31
REMARK   11  A    between atoms: C_34  and  C_37
REMARK                            x       y       z     vdW  Elec       q    Type
REMARK                         _______ _______ _______ _____ _____    ______ ____
ROOT
ATOM      1  C   UNL     1       0.999  -2.687   3.440  0.00  0.00    +0.250 C 
ATOM      2  O   UNL     1       0.755  -1.522   3.194  0.00  0.00    -0.270 OA
ATOM      3  N   UNL     1       1.681  -3.012   4.556  0.00  0.00    -0.296 N 
ATOM      4  C   UNL     1       2.162  -4.351   4.970  0.00  0.00    +0.121 C 
ATOM      5  C   UNL     1       3.555  -4.093   5.586  0.00  0.00    +0.100 C 
ATOM      6  C   UNL     1       3.522  -2.621   6.030  0.00  0.00    -0.004 C 
ATOM      7  C   UNL     1       2.127  -2.108   5.644  0.00  0.00    +0.115 C 
ATOM      8  C   UNL     1       4.593  -1.823   5.293  0.00  0.00    -0.010 C 
ATOM      9  C   UNL     1       4.578  -0.376   5.793  0.00  0.00    -0.082 C 
ATOM     10  N   UNL     1       4.829  -0.353   7.239  0.00  0.00    +0.379 N 
ATOM     11  C   UNL     1       3.745  -1.044   7.947  0.00  0.00    -0.082 C 
ATOM     12  C   UNL     1       3.725  -2.519   7.538  0.00  0.00    -0.010 C 
ATOM     13  H   UNL     1       5.705  -0.815   7.434  0.00  0.00    -0.086 HD
ATOM     14  H   UNL     1       4.880   0.604   7.555  0.00  0.00    -0.086 HD
ENDROOT
BRANCH   1  20
ATOM     15  C   UNL     1       0.513  -3.509   1.136  0.00  0.00    +0.133 A 
ATOM     16  C   UNL     1       0.093  -4.514   0.277  0.00  0.00    +0.046 A 
ATOM     17  C   UNL     1      -0.294  -5.739   0.782  0.00  0.00    +0.004 A 
ATOM     18  C   UNL     1      -0.266  -5.975   2.147  0.00  0.00    +0.001 A 
ATOM     19  C   UNL     1       0.149  -4.989   3.014  0.00  0.00    +0.017 A 
ATOM     20  C   UNL     1       0.548  -3.746   2.517  0.00  0.00    +0.078 A 
BRANCH  15  21
ATOM     21  O   UNL     1       0.893  -2.304   0.642  0.00  0.00    -0.491 OA
BRANCH  21  23
ATOM     22  C   UNL     1       1.294  -0.725  -1.143  0.00  0.00    +0.048 C 
ATOM     23  C   UNL     1       0.831  -2.136  -0.776  0.00  0.00    +0.226 C 
ENDBRANCH  21  23
ENDBRANCH  15  21
ENDBRANCH   1  20
BRANCH   5  24
ATOM     24  C   UNL     1       3.780  -4.996   6.771  0.00  0.00    +0.218 C 
ATOM     25  O   UNL     1       2.835  -5.397   7.416  0.00  0.00    -0.275 OA
ATOM     26  N   UNL     1       5.032  -5.358   7.114  0.00  0.00    -0.312 N 
ATOM     27  H   UNL     1       5.788  -5.037   6.598  0.00  0.00    +0.149 HD
BRANCH  26  28
ATOM     28  C   UNL     1       5.251  -6.236   8.267  0.00  0.00    +0.148 C 
BRANCH  28  29
ATOM     29  C   UNL     1       6.750  -6.489   8.437  0.00  0.00    +0.187 C 
ATOM     30  C   UNL     1       6.979  -7.406   9.640  0.00  0.00    +0.053 C 
BRANCH  29  31
ATOM     31  O   UNL     1       7.265  -7.113   7.259  0.00  0.00    -0.488 OA
BRANCH  31  32
ATOM     32  C   UNL     1       8.590  -6.951   7.003  0.00  0.00    +0.121 A 
ATOM     33  C   UNL     1       9.132  -7.425   5.817  0.00  0.00    +0.046 A 
ATOM     34  C   UNL     1      10.479  -7.258   5.560  0.00  0.00    +0.007 A 
ATOM     35  C   UNL     1      11.287  -6.621   6.483  0.00  0.00    -0.050 A 
ATOM     36  C   UNL     1      10.749  -6.148   7.666  0.00  0.00    +0.007 A 
ATOM     37  C   UNL     1       9.402  -6.307   7.926  0.00  0.00    +0.046 A 
ATOM     38  C   UNL     1      12.756  -6.441   6.200  0.00  0.00    +0.044 C 
ENDBRANCH  31  32
ENDBRANCH  29  31
ENDBRANCH  28  29
ENDBRANCH  26  28
ENDBRANCH   5  24
TORSDOF 8
