REMARK  Name = ZINC40310023
REMARK  9 active torsions:
REMARK  status: ('A' for Active; 'I' for Inactive)
REMARK    1  A    between atoms: C_1  and  C_2
REMARK    2  A    between atoms: C_2  and  O_3
REMARK    3  A    between atoms: O_3  and  C_4
REMARK    4  A    between atoms: C_4  and  C_6
REMARK    5  A    between atoms: C_6  and  C_7
REMARK    6  A    between atoms: C_13  and  C_15
REMARK    7  A    between atoms: C_15  and  C_16
REMARK    8  A    between atoms: C_17  and  C_31
REMARK    9  A    between atoms: C_21  and  C_30
REMARK                            x       y       z     vdW  Elec       q    Type
REMARK                         _______ _______ _______ _____ _____    ______ ____
ROOT
ATOM      1  C   UNL     1       2.931  -9.075   0.947  0.00  0.00    +0.138 C 
ENDROOT
BRANCH   1   2
ATOM      2  C   UNL     1       2.601 -10.422   0.359  0.00  0.00    +0.049 A 
ATOM      3  C   UNL     1       3.471 -11.025  -0.491  0.00  0.00    -0.029 A 
ATOM      4  C   UNL     1       3.108 -12.336  -1.038  0.00  0.00    +0.022 A 
ATOM      5  C   UNL     1       3.962 -13.004  -1.916  0.00  0.00    +0.023 A 
ATOM      6  C   UNL     1       3.589 -14.244  -2.415  0.00  0.00    +0.024 A 
ATOM      7  C   UNL     1       4.215 -15.207  -3.332  0.00  0.00    -0.005 A 
ATOM      8  C   UNL     1       3.363 -16.235  -3.432  0.00  0.00    +0.199 A 
ATOM      9  O   UNL     1       2.274 -16.012  -2.675  0.00  0.00    -0.463 OA
ATOM     10  C   UNL     1       2.361 -14.825  -2.041  0.00  0.00    +0.139 A 
ATOM     11  C   UNL     1       1.517 -14.155  -1.168  0.00  0.00    +0.093 A 
ATOM     12  C   UNL     1       1.879 -12.918  -0.664  0.00  0.00    +0.143 A 
ATOM     13  O   UNL     1       1.060 -12.261   0.188  0.00  0.00    -0.422 OA
ATOM     14  C   UNL     1       1.390 -11.063   0.695  0.00  0.00    +0.341 A 
ATOM     15  O   UNL     1       0.622 -10.513   1.463  0.00  0.00    -0.245 OA
ATOM     16  C   UNL     1       5.549 -15.067  -4.020  0.00  0.00    +0.047 C 
ATOM     17  C   UNL     1       4.773 -10.365  -0.863  0.00  0.00    +0.045 C 
ENDBRANCH   1   2
BRANCH   1  24
ATOM     18  C   UNL     1       1.425  -3.569  -1.055  0.00  0.00    +0.061 A 
ATOM     19  C   UNL     1       0.767  -4.126  -2.101  0.00  0.00    +0.072 A 
ATOM     20  S   UNL     1       1.041  -5.861  -1.781  0.00  0.00    -0.060 S 
ATOM     21  C   UNL     1       1.948  -5.697  -0.373  0.00  0.00    +0.165 A 
ATOM     22  N   UNL     1       2.012  -4.394  -0.208  0.00  0.00    -0.229 NA
ATOM     23  N   UNL     1       2.500  -6.696   0.421  0.00  0.00    -0.264 N 
ATOM     24  C   UNL     1       2.333  -7.991   0.087  0.00  0.00    +0.223 C 
ATOM     25  O   UNL     1       1.700  -8.285  -0.906  0.00  0.00    -0.275 OA
ATOM     26  H   UNL     1       3.006  -6.462   1.214  0.00  0.00    +0.157 HD
BRANCH  18  27
ATOM     27  C   UNL     1       1.488  -2.075  -0.871  0.00  0.00    +0.176 C 
BRANCH  27  28
ATOM     28  C   UNL     1       0.982  -1.716   0.502  0.00  0.00    +0.313 C 
ATOM     29  O   UNL     1       0.608  -2.584   1.254  0.00  0.00    -0.250 OA
BRANCH  28  30
ATOM     30  O   UNL     1       0.946  -0.431   0.890  0.00  0.00    -0.465 OA
BRANCH  30  32
ATOM     31  C   UNL     1       0.489   1.344   2.465  0.00  0.00    +0.048 C 
ATOM     32  C   UNL     1       0.455  -0.164   2.205  0.00  0.00    +0.229 C 
ENDBRANCH  30  32
ENDBRANCH  28  30
ENDBRANCH  27  28
ENDBRANCH  18  27
ENDBRANCH   1  24
TORSDOF 6
