REMARK  Name = ZINC14268221
REMARK  6 active torsions:
REMARK  status: ('A' for Active; 'I' for Inactive)
REMARK    1  A    between atoms: C_1  and  C_2
REMARK    2  A    between atoms: N_11  and  C_15
REMARK    3  A    between atoms: C_15  and  C_16
REMARK    4  A    between atoms: N_18  and  C_19
REMARK    5  A    between atoms: C_19  and  C_21
REMARK    6  A    between atoms: C_19  and  C_22
REMARK                            x       y       z     vdW  Elec       q    Type
REMARK                         _______ _______ _______ _____ _____    ______ ____
ROOT
ATOM      1  C   UNL     1      -1.536   3.561   2.539  0.00  0.00    +0.010 C 
ATOM      2  C   UNL     1      -0.790   3.101   1.286  0.00  0.00    +0.018 C 
ATOM      3  C   UNL     1      -1.527   3.600   0.040  0.00  0.00    +0.006 C 
ATOM      4  C   UNL     1      -0.790   3.122  -1.213  0.00  0.00    +0.000 C 
ATOM      5  C   UNL     1      -0.753   1.593  -1.233  0.00  0.00    +0.003 C 
ATOM      6  C   UNL     1      -0.013   1.086   0.008  0.00  0.00    +0.035 C 
ATOM      7  C   UNL     1      -0.726   1.577   1.263  0.00  0.00    +0.115 C 
ATOM      8  C   UNL     1      -2.117   0.991   1.342  0.00  0.00    +0.247 C 
ATOM      9  O   UNL     1      -3.023   1.142   0.552  0.00  0.00    -0.273 OA
ATOM     10  N   UNL     1      -2.136   0.263   2.478  0.00  0.00    -0.215 N 
ATOM     11  C   UNL     1      -0.960   0.312   3.115  0.00  0.00    +0.310 C 
ATOM     12  O   UNL     1      -0.734  -0.264   4.161  0.00  0.00    -0.252 OA
ATOM     13  N   UNL     1      -0.056   1.072   2.468  0.00  0.00    -0.285 N 
ATOM     14  H   UNL     1       0.857   1.250   2.743  0.00  0.00    +0.151 HD
ENDROOT
BRANCH  10  15
ATOM     15  C   UNL     1      -3.301  -0.488   2.955  0.00  0.00    +0.213 C 
BRANCH  15  16
ATOM     16  C   UNL     1      -3.260  -1.886   2.395  0.00  0.00    +0.231 C 
ATOM     17  O   UNL     1      -2.349  -2.223   1.669  0.00  0.00    -0.274 OA
ATOM     18  N   UNL     1      -4.237  -2.763   2.700  0.00  0.00    -0.307 N 
ATOM     19  H   UNL     1      -4.966  -2.494   3.281  0.00  0.00    +0.149 HD
BRANCH  18  20
ATOM     20  C   UNL     1      -4.198  -4.123   2.156  0.00  0.00    +0.100 C 
ATOM     21  C   UNL     1      -3.326  -5.006   3.051  0.00  0.00    +0.033 C 
BRANCH  20  22
ATOM     22  C   UNL     1      -5.595  -4.684   2.104  0.00  0.00    -0.027 A 
ATOM     23  C   UNL     1      -6.474  -4.446   3.145  0.00  0.00    +0.006 A 
ATOM     24  C   UNL     1      -7.758  -4.956   3.096  0.00  0.00    +0.015 A 
ATOM     25  C   UNL     1      -8.159  -5.714   2.011  0.00  0.00    +0.018 A 
ATOM     26  C   UNL     1      -7.278  -5.956   0.972  0.00  0.00    +0.015 A 
ATOM     27  C   UNL     1      -5.997  -5.441   1.020  0.00  0.00    +0.006 A 
ATOM     28 BR   UNL     1      -9.913  -6.419   1.947  0.00  0.00    -0.050 Br
ENDBRANCH  20  22
ENDBRANCH  18  20
ENDBRANCH  15  16
ENDBRANCH  10  15
TORSDOF 4
