REMARK  Name = ZINC37332138
REMARK  3 active torsions:
REMARK  status: ('A' for Active; 'I' for Inactive)
REMARK    1  A    between atoms: C_4  and  C_8
REMARK    2  A    between atoms: C_8  and  C_10
REMARK    3  A    between atoms: C_8  and  N_21
REMARK                            x       y       z     vdW  Elec       q    Type
REMARK                         _______ _______ _______ _____ _____    ______ ____
ROOT
ATOM      1  C   UNL     1       3.715  -0.707  -0.038  0.00  0.00    -0.006 C 
ENDROOT
BRANCH   1   2
ATOM      2  C   UNL     1       3.960  -1.266  -1.417  0.00  0.00    -0.035 A 
ATOM      3  C   UNL     1       3.598  -2.568  -1.708  0.00  0.00    +0.053 A 
ATOM      4  C   UNL     1       3.821  -3.085  -2.975  0.00  0.00    +0.162 A 
ATOM      5  C   UNL     1       4.408  -2.289  -3.953  0.00  0.00    +0.163 A 
ATOM      6  C   UNL     1       4.770  -0.985  -3.655  0.00  0.00    +0.069 A 
ATOM      7  C   UNL     1       4.541  -0.473  -2.390  0.00  0.00    +0.047 A 
ATOM      8 CL   UNL     1       4.988   1.163  -2.022  0.00  0.00    -0.083 Cl
ATOM      9  O   UNL     1       4.628  -2.774  -5.205  0.00  0.00    -0.485 OA
ATOM     10  C   UNL     1       4.595  -4.197  -5.359  0.00  0.00    +0.270 C 
ATOM     11  C   UNL     1       3.357  -4.731  -4.626  0.00  0.00    +0.270 C 
ATOM     12  O   UNL     1       3.463  -4.370  -3.245  0.00  0.00    -0.485 OA
ENDBRANCH   1   2
BRANCH   1  16
ATOM     13  C   UNL     1      -0.017   1.378   0.010  0.00  0.00    +0.006 A 
ATOM     14  C   UNL     1       1.170   2.086   0.002  0.00  0.00    +0.039 A 
ATOM     15  C   UNL     1       2.379   1.412  -0.013  0.00  0.00    +0.128 A 
ATOM     16  C   UNL     1       2.399   0.028  -0.021  0.00  0.00    +0.013 A 
ATOM     17  C   UNL     1       1.210  -0.681  -0.013  0.00  0.00    +0.128 A 
ATOM     18  C   UNL     1       0.002  -0.004   0.002  0.00  0.00    +0.039 A 
ATOM     19  F   UNL     1       1.228  -2.031  -0.020  0.00  0.00    -0.205 F 
ATOM     20  F   UNL     1       3.539   2.104  -0.022  0.00  0.00    -0.205 F 
ENDBRANCH   1  16
BRANCH   1  21
ATOM     21  N   UNL     1       3.675  -1.806   0.935  0.00  0.00    +0.385 N 
ATOM     22  H   UNL     1       2.930  -2.443   0.694  0.00  0.00    -0.089 HD
ATOM     23  H   UNL     1       4.555  -2.298   0.924  0.00  0.00    -0.089 HD
ATOM     24  H   UNL     1       3.511  -1.432   1.858  0.00  0.00    -0.089 HD
ENDBRANCH   1  21
TORSDOF 3
