REMARK  Name = ZINC32692800
REMARK  8 active torsions:
REMARK  status: ('A' for Active; 'I' for Inactive)
REMARK    1  A    between atoms: C_1  and  C_2
REMARK    2  A    between atoms: C_2  and  C_3
REMARK    3  A    between atoms: C_2  and  C_4
REMARK    4  A    between atoms: C_2  and  C_5
REMARK    5  A    between atoms: C_11  and  C_13
REMARK    6  A    between atoms: C_13  and  S_14
REMARK    7  A    between atoms: S_14  and  C_15
REMARK    8  A    between atoms: C_18  and  C_20
REMARK                            x       y       z     vdW  Elec       q    Type
REMARK                         _______ _______ _______ _____ _____    ______ ____
ROOT
ATOM      1  S   UNL     1       2.650  10.970   0.030  0.00  0.00    -0.056 S 
ENDROOT
BRANCH   1   2
ATOM      2  C   UNL     1       1.684   9.496   0.033  0.00  0.00    +0.278 A 
ATOM      3  N   UNL     1       0.372   9.427   0.046  0.00  0.00    -0.101 NA
ATOM      4  N   UNL     1       0.009   8.193   0.043  0.00  0.00    -0.106 NA
ATOM      5  C   UNL     1       1.072   7.425   0.029  0.00  0.00    +0.249 A 
ATOM      6  O   UNL     1       2.155   8.235   0.028  0.00  0.00    -0.411 OA
BRANCH   5   7
ATOM      7  C   UNL     1       1.084   5.949   0.021  0.00  0.00    +0.039 A 
ATOM      8  C   UNL     1       2.311   5.261   0.006  0.00  0.00    +0.014 A 
ATOM      9  C   UNL     1       2.348   3.904  -0.000  0.00  0.00    +0.009 A 
ATOM     10  C   UNL     1       1.150   3.167   0.008  0.00  0.00    -0.018 A 
ATOM     11  C   UNL     1       1.163   1.762   0.000  0.00  0.00    +0.008 A 
ATOM     12  C   UNL     1      -0.013   1.076   0.008  0.00  0.00    +0.001 A 
ATOM     13  C   UNL     1      -1.235   1.745   0.017  0.00  0.00    +0.001 A 
ATOM     14  C   UNL     1      -1.288   3.105   0.030  0.00  0.00    +0.008 A 
ATOM     15  C   UNL     1      -0.094   3.849   0.023  0.00  0.00    -0.017 A 
ATOM     16  C   UNL     1      -0.113   5.251   0.029  0.00  0.00    +0.021 A 
ENDBRANCH   5   7
ENDBRANCH   1   2
BRANCH   1  17
ATOM     17  C   UNL     1       1.332  12.210   0.051  0.00  0.00    +0.175 C 
BRANCH  17  24
ATOM     18  C   UNL     1       1.789  18.244   0.078  0.00  0.00    +0.056 A 
ATOM     19  C   UNL     1       3.142  18.173   0.063  0.00  0.00    +0.072 A 
ATOM     20  S   UNL     1       3.380  16.402   0.051  0.00  0.00    -0.060 S 
ATOM     21  C   UNL     1       1.704  15.948   0.067  0.00  0.00    +0.165 A 
ATOM     22  N   UNL     1       1.099  17.120   0.074  0.00  0.00    -0.229 NA
ATOM     23  N   UNL     1       1.144  14.676   0.066  0.00  0.00    -0.264 N 
ATOM     24  C   UNL     1       1.940  13.589   0.052  0.00  0.00    +0.229 C 
ATOM     25  O   UNL     1       3.145  13.720   0.040  0.00  0.00    -0.275 OA
ATOM     26  H   UNL     1       0.050  14.557   0.077  0.00  0.00    +0.157 HD
BRANCH  18  28
ATOM     27  C   UNL     1       1.165  20.211  -1.298  0.00  0.00    +0.017 C 
ATOM     28  C   UNL     1       1.087  19.578   0.093  0.00  0.00    +0.005 C 
ATOM     29  C   UNL     1      -0.379  19.379   0.481  0.00  0.00    +0.017 C 
ATOM     30  C   UNL     1       1.764  20.499   1.111  0.00  0.00    +0.017 C 
ENDBRANCH  18  28
ENDBRANCH  17  24
ENDBRANCH   1  17
TORSDOF 5
