REMARK  Name = ZINC12465685
REMARK  7 active torsions:
REMARK  status: ('A' for Active; 'I' for Inactive)
REMARK    1  A    between atoms: C_1  and  C_2
REMARK    2  A    between atoms: C_2  and  N_54
REMARK    3  A    between atoms: C_8  and  N_13
REMARK    4  A    between atoms: C_9  and  C_10
REMARK    5  A    between atoms: C_14  and  C_16
REMARK    6  A    between atoms: N_21  and  S_22
REMARK    7  A    between atoms: S_22  and  C_25
REMARK                            x       y       z     vdW  Elec       q    Type
REMARK                         _______ _______ _______ _____ _____    ______ ____
ROOT
ATOM      1  N   UNL     1       2.038  -1.772  -2.531  0.00  0.00    -0.278 N 
ATOM      2  C   UNL     1       1.009  -1.257  -1.830  0.00  0.00    +0.236 C 
ATOM      3  O   UNL     1      -0.131  -1.439  -2.203  0.00  0.00    -0.274 OA
ATOM      4  H   UNL     1       2.950  -1.626  -2.233  0.00  0.00    +0.155 HD
ENDROOT
BRANCH   1  10
ATOM      5  C   UNL     1       2.153  -5.538  -7.469  0.00  0.00    -0.074 C 
ATOM      6  C   UNL     1       3.050  -4.560  -6.704  0.00  0.00    +0.018 C 
ATOM      7  C   UNL     1       2.192  -3.836  -5.673  0.00  0.00    -0.027 A 
ATOM      8  C   UNL     1       0.844  -3.838  -5.790  0.00  0.00    -0.021 A 
ATOM      9  S   UNL     1       0.269  -2.907  -4.401  0.00  0.00    -0.079 S 
ATOM     10  C   UNL     1       1.794  -2.510  -3.680  0.00  0.00    +0.084 A 
ATOM     11  C   UNL     1       2.713  -3.114  -4.528  0.00  0.00    +0.068 A 
ATOM     12  C   UNL     1       0.047  -4.499  -6.871  0.00  0.00    -0.035 C 
ATOM     13  N   UNL     1       0.972  -4.817  -7.986  0.00  0.00    +0.383 N 
ATOM     14  H   UNL     1       1.280  -3.941  -8.425  0.00  0.00    -0.081 HD
BRANCH  11  15
ATOM     15  C   UNL     1       4.155  -3.027  -4.275  0.00  0.00    +0.244 C 
ATOM     16  O   UNL     1       4.706  -3.872  -3.594  0.00  0.00    -0.270 OA
ATOM     17  N   UNL     1       4.870  -2.010  -4.798  0.00  0.00    -0.325 N 
ATOM     18  H   UNL     1       4.431  -1.337  -5.340  0.00  0.00    +0.145 HD
ATOM     19  H   UNL     1       5.823  -1.952  -4.630  0.00  0.00    +0.145 HD
ENDBRANCH  11  15
BRANCH  13  21
ATOM     20  C   UNL     1      -0.798  -4.793  -9.677  0.00  0.00    -0.017 C 
ATOM     21  C   UNL     1       0.278  -5.643  -8.998  0.00  0.00    -0.082 C 
ENDBRANCH  13  21
ENDBRANCH   1  10
BRANCH   2  22
ATOM     22  C   UNL     1       1.274  -0.455  -0.582  0.00  0.00    +0.166 C 
ATOM     23  C   UNL     1       2.092   0.807  -0.929  0.00  0.00    +0.031 C 
ATOM     24  C   UNL     1       1.474   1.887  -0.002  0.00  0.00    +0.019 C 
ATOM     25  C   UNL     1      -0.018   1.470   0.010  0.00  0.00    +0.110 C 
ATOM     26  N   UNL     1       0.002  -0.004   0.002  0.00  0.00    -0.164 NA
BRANCH  26  27
ATOM     27  S   UNL     1      -1.208  -0.989   0.558  0.00  0.00    +0.068 S 
ATOM     28  O   UNL     1      -0.602  -2.231   0.886  0.00  0.00    -0.152 OA
ATOM     29  O   UNL     1      -1.948  -0.229   1.504  0.00  0.00    -0.152 OA
BRANCH  27  30
ATOM     30  C   UNL     1      -2.291  -1.299  -0.797  0.00  0.00    +0.144 A 
ATOM     31  C   UNL     1      -2.243  -2.293  -1.717  0.00  0.00    +0.038 A 
ATOM     32  C   UNL     1      -3.213  -2.343  -2.701  0.00  0.00    +0.030 A 
ATOM     33  C   UNL     1      -4.177  -1.389  -2.722  0.00  0.00    +0.080 A 
ATOM     34  S   UNL     1      -3.731  -0.382  -1.317  0.00  0.00    -0.057 S 
ATOM     35 CL   UNL     1      -5.502  -1.197  -3.828  0.00  0.00    -0.076 Cl
ENDBRANCH  27  30
ENDBRANCH  26  27
ENDBRANCH   2  22
TORSDOF 6
