REMARK  Name = ZINC39595487
REMARK  11 active torsions:
REMARK  status: ('A' for Active; 'I' for Inactive)
REMARK    1  A    between atoms: C_1  and  C_2
REMARK    2  A    between atoms: C_2  and  C_4
REMARK    3  A    between atoms: C_2  and  O_31
REMARK    4  A    between atoms: C_4  and  N_5
REMARK    5  A    between atoms: C_6  and  C_8
REMARK    6  A    between atoms: C_19  and  C_21
REMARK    7  A    between atoms: C_23  and  O_29
REMARK    8  A    between atoms: C_25  and  O_27
REMARK    9  A    between atoms: O_27  and  C_28
REMARK   10  A    between atoms: O_29  and  C_30
REMARK   11  A    between atoms: O_31  and  C_32
REMARK                            x       y       z     vdW  Elec       q    Type
REMARK                         _______ _______ _______ _____ _____    ______ ____
ROOT
ATOM      1  C   UNL     1       2.246  -3.037   2.656  0.00  0.00    +0.100 C 
ATOM      2  C   UNL     1       0.842  -3.684   2.667  0.00  0.00    +0.121 C 
ATOM      3  N   UNL     1       0.944  -4.782   3.657  0.00  0.00    -0.296 N 
ATOM      4  C   UNL     1       1.776  -4.219   4.748  0.00  0.00    +0.115 C 
ATOM      5  C   UNL     1       2.854  -3.390   4.023  0.00  0.00    -0.004 C 
ATOM      6  C   UNL     1       3.159  -2.119   4.810  0.00  0.00    -0.010 C 
ATOM      7  C   UNL     1       3.817  -2.493   6.141  0.00  0.00    -0.082 C 
ATOM      8  N   UNL     1       5.053  -3.242   5.884  0.00  0.00    +0.379 N 
ATOM      9  C   UNL     1       4.741  -4.508   5.210  0.00  0.00    -0.082 C 
ATOM     10  C   UNL     1       4.122  -4.219   3.839  0.00  0.00    -0.010 C 
ATOM     11  C   UNL     1       0.404  -6.014   3.582  0.00  0.00    +0.247 C 
ATOM     12  O   UNL     1      -0.166  -6.367   2.568  0.00  0.00    -0.270 OA
ATOM     13  H   UNL     1       5.663  -2.692   5.298  0.00  0.00    -0.086 HD
ATOM     14  H   UNL     1       5.516  -3.435   6.760  0.00  0.00    -0.086 HD
ENDROOT
BRANCH  11  15
ATOM     15  C   UNL     1       0.503  -6.937   4.733  0.00  0.00    +0.044 A 
ATOM     16  C   UNL     1       0.699  -6.432   6.019  0.00  0.00    +0.059 A 
ATOM     17  C   UNL     1       0.792  -7.300   7.095  0.00  0.00    +0.124 A 
ATOM     18  C   UNL     1       0.690  -8.669   6.895  0.00  0.00    +0.091 A 
ATOM     19  C   UNL     1       0.495  -9.175   5.618  0.00  0.00    +0.124 A 
ATOM     20  C   UNL     1       0.396  -8.314   4.537  0.00  0.00    +0.059 A 
BRANCH  19  21
ATOM     21  O   UNL     1       0.397 -10.517   5.428  0.00  0.00    -0.495 OA
ATOM     22  C   UNL     1       0.502 -11.346   6.587  0.00  0.00    +0.277 C 
ENDBRANCH  19  21
BRANCH  17  23
ATOM     23  O   UNL     1       0.983  -6.809   8.348  0.00  0.00    -0.495 OA
ATOM     24  C   UNL     1       1.069  -7.760   9.411  0.00  0.00    +0.277 C 
ENDBRANCH  17  23
ENDBRANCH  11  15
BRANCH   1  26
ATOM     25  N   UNL     1       3.111  -0.854   1.878  0.00  0.00    -0.312 N 
ATOM     26  C   UNL     1       2.134  -1.542   2.501  0.00  0.00    +0.218 C 
ATOM     27  O   UNL     1       1.164  -0.959   2.938  0.00  0.00    -0.275 OA
ATOM     28  H   UNL     1       3.886  -1.321   1.529  0.00  0.00    +0.149 HD
BRANCH  25  29
ATOM     29  C   UNL     1       3.002   0.599   1.728  0.00  0.00    +0.148 C 
BRANCH  29  31
ATOM     30  C   UNL     1       4.119   2.647   0.835  0.00  0.00    +0.053 C 
ATOM     31  C   UNL     1       4.233   1.130   0.991  0.00  0.00    +0.187 C 
BRANCH  31  32
ATOM     32  O   UNL     1       5.409   0.815   1.740  0.00  0.00    -0.488 OA
BRANCH  32  33
ATOM     33  C   UNL     1       6.541   0.558   1.033  0.00  0.00    +0.121 A 
ATOM     34  C   UNL     1       7.680   0.110   1.685  0.00  0.00    +0.048 A 
ATOM     35  C   UNL     1       8.830  -0.151   0.965  0.00  0.00    +0.042 A 
ATOM     36  C   UNL     1       8.845   0.036  -0.407  0.00  0.00    +0.124 A 
ATOM     37  C   UNL     1       7.709   0.484  -1.059  0.00  0.00    +0.042 A 
ATOM     38  C   UNL     1       6.556   0.739  -0.342  0.00  0.00    +0.048 A 
ATOM     39  F   UNL     1       9.971  -0.219  -1.110  0.00  0.00    -0.205 F 
ENDBRANCH  32  33
ENDBRANCH  31  32
ENDBRANCH  29  31
ENDBRANCH  25  29
ENDBRANCH   1  26
TORSDOF 8
