REMARK  Name = ZINC21343495
REMARK  9 active torsions:
REMARK  status: ('A' for Active; 'I' for Inactive)
REMARK    1  A    between atoms: C_1  and  C_2
REMARK    2  A    between atoms: C_5  and  C_9
REMARK    3  A    between atoms: C_6  and  C_8
REMARK    4  A    between atoms: C_9  and  N_10
REMARK    5  A    between atoms: C_17  and  C_20
REMARK    6  A    between atoms: C_17  and  O_32
REMARK    7  A    between atoms: C_20  and  C_21
REMARK    8  A    between atoms: C_21  and  C_23
REMARK    9  A    between atoms: C_26  and  N_29
REMARK                            x       y       z     vdW  Elec       q    Type
REMARK                         _______ _______ _______ _____ _____    ______ ____
ROOT
ATOM      1  N   UNL     1      -0.322   1.339  -0.995  0.00  0.00    -0.264 N 
ATOM      2  C   UNL     1      -1.298   0.692  -1.753  0.00  0.00    +0.043 A 
ATOM      3  C   UNL     1      -1.928  -0.538  -1.569  0.00  0.00    +0.024 A 
ATOM      4  C   UNL     1      -2.877  -0.972  -2.470  0.00  0.00    +0.002 A 
ATOM      5  C   UNL     1      -3.212  -0.192  -3.563  0.00  0.00    +0.000 A 
ATOM      6  C   UNL     1      -2.598   1.034  -3.748  0.00  0.00    +0.009 A 
ATOM      7  C   UNL     1      -1.646   1.467  -2.852  0.00  0.00    +0.015 A 
ATOM      8  C   UNL     1      -0.798   2.716  -2.777  0.00  0.00    +0.175 C 
ATOM      9  C   UNL     1       0.029   2.524  -1.523  0.00  0.00    +0.257 C 
ATOM     10  O   UNL     1       0.853   3.295  -1.079  0.00  0.00    -0.272 OA
ENDROOT
BRANCH   8  11
ATOM     11  O   UNL     1       0.048   2.819  -3.924  0.00  0.00    -0.374 OA
ATOM     12  H   UNL     1       0.733   3.674  -4.027  0.00  0.00    +0.211 HD
ENDBRANCH   8  11
BRANCH   1  13
ATOM     13  C   UNL     1       0.257   0.789   0.232  0.00  0.00    +0.149 C 
BRANCH  13  18
ATOM     14  C   UNL     1      -1.681   3.774   4.785  0.00  0.00    +0.044 C 
ATOM     15  C   UNL     1      -1.175   2.995   3.598  0.00  0.00    -0.050 A 
ATOM     16  C   UNL     1       0.060   3.292   3.052  0.00  0.00    +0.004 A 
ATOM     17  C   UNL     1       0.523   2.578   1.963  0.00  0.00    +0.006 A 
ATOM     18  C   UNL     1      -0.248   1.567   1.420  0.00  0.00    -0.027 A 
ATOM     19  C   UNL     1      -1.485   1.274   1.963  0.00  0.00    -0.046 A 
ATOM     20  C   UNL     1      -1.946   1.985   3.054  0.00  0.00    +0.007 A 
ATOM     21  C   UNL     1      -2.328   0.176   1.367  0.00  0.00    +0.044 C 
ENDBRANCH  13  18
ENDBRANCH   1  13
BRANCH   8  22
ATOM     22  C   UNL     1      -1.683   3.958  -2.651  0.00  0.00    +0.129 C 
BRANCH  22  23
ATOM     23  C   UNL     1      -0.815   5.178  -2.482  0.00  0.00    +0.167 C 
ATOM     24  O   UNL     1       0.392   5.065  -2.464  0.00  0.00    -0.292 OA
BRANCH  23  25
ATOM     25  C   UNL     1      -1.432   6.506  -2.339  0.00  0.00    +0.018 A 
ATOM     26  C   UNL     1      -2.824   6.641  -2.365  0.00  0.00    +0.013 A 
ATOM     27  C   UNL     1      -3.395   7.888  -2.225  0.00  0.00    +0.033 A 
ATOM     28  C   UNL     1      -2.594   9.006  -2.070  0.00  0.00    +0.126 A 
ATOM     29  C   UNL     1      -1.216   8.882  -2.049  0.00  0.00    +0.033 A 
ATOM     30  C   UNL     1      -0.630   7.641  -2.182  0.00  0.00    +0.013 A 
BRANCH  28  31
ATOM     31  N   UNL     1      -3.215  10.342  -1.926  0.00  0.00    +0.056 N 
ATOM     32  O   UNL     1      -2.514  11.328  -1.790  0.00  0.00    -0.126 OA
ATOM     33  O   UNL     1      -4.428  10.455  -1.945  0.00  0.00    -0.126 OA
ENDBRANCH  28  31
ENDBRANCH  23  25
ENDBRANCH  22  23
ENDBRANCH   8  22
TORSDOF 7
