REMARK  Name = ZINC13356976
REMARK  10 active torsions:
REMARK  status: ('A' for Active; 'I' for Inactive)
REMARK    1  A    between atoms: C_1  and  C_2
REMARK    2  A    between atoms: C_2  and  C_3
REMARK    3  A    between atoms: C_2  and  C_4
REMARK    4  A    between atoms: C_4  and  C_5
REMARK    5  A    between atoms: C_5  and  N_6
REMARK    6  A    between atoms: C_7  and  C_9
REMARK    7  A    between atoms: C_15  and  C_17
REMARK    8  A    between atoms: C_21  and  N_23
REMARK    9  A    between atoms: N_23  and  S_24
REMARK   10  A    between atoms: S_24  and  C_27
REMARK                            x       y       z     vdW  Elec       q    Type
REMARK                         _______ _______ _______ _____ _____    ______ ____
ROOT
ATOM      1  C   UNL     1      -1.232   1.759  -0.001  0.00  0.00    +0.039 A 
ATOM      2  C   UNL     1      -1.038   2.827   0.876  0.00  0.00    +0.013 A 
ATOM      3  C   UNL     1       0.151   3.527   0.859  0.00  0.00    +0.003 A 
ATOM      4  C   UNL     1       1.151   3.178  -0.029  0.00  0.00    +0.024 A 
ATOM      5  C   UNL     1       0.966   2.120  -0.910  0.00  0.00    +0.049 A 
ATOM      6  C   UNL     1      -0.225   1.410  -0.901  0.00  0.00    +0.037 A 
ENDROOT
BRANCH   1  13
ATOM      7  C   UNL     1      -2.505  -3.037   0.764  0.00  0.00    +0.078 C 
ATOM      8  C   UNL     1      -3.766  -2.178   0.883  0.00  0.00    +0.032 C 
ATOM      9  C   UNL     1      -3.746  -1.095  -0.199  0.00  0.00    +0.109 C 
ATOM     10  N   UNL     1      -2.490  -0.340  -0.090  0.00  0.00    -0.297 N 
ATOM     11  C   UNL     1      -1.219  -1.077  -0.108  0.00  0.00    +0.109 C 
ATOM     12  C   UNL     1      -1.268  -2.162   0.980  0.00  0.00    +0.032 C 
ATOM     13  C   UNL     1      -2.503   1.003   0.019  0.00  0.00    +0.247 C 
ATOM     14  O   UNL     1      -3.559   1.593   0.135  0.00  0.00    -0.270 OA
BRANCH   7  16
ATOM     15  N   UNL     1      -1.524  -5.008   1.891  0.00  0.00    -0.315 N 
ATOM     16  C   UNL     1      -2.538  -4.125   1.806  0.00  0.00    +0.216 C 
ATOM     17  O   UNL     1      -3.478  -4.206   2.569  0.00  0.00    -0.276 OA
ATOM     18  H   UNL     1      -0.772  -4.943   1.281  0.00  0.00    +0.149 HD
BRANCH  15  19
ATOM     19  C   UNL     1      -1.556  -6.066   2.904  0.00  0.00    +0.104 C 
BRANCH  19  20
ATOM     20  C   UNL     1      -0.295  -6.924   2.785  0.00  0.00    +0.022 C 
BRANCH  20  22
ATOM     21  C   UNL     1       0.868  -8.962   3.644  0.00  0.00    +0.007 C 
ATOM     22  C   UNL     1      -0.328  -8.029   3.842  0.00  0.00    -0.016 C 
ATOM     23  C   UNL     1      -0.261  -7.402   5.237  0.00  0.00    +0.007 C 
ENDBRANCH  20  22
ENDBRANCH  19  20
ENDBRANCH  15  19
ENDBRANCH   7  16
ENDBRANCH   1  13
BRANCH   5  24
ATOM     24  N   UNL     1       1.981   1.770  -1.805  0.00  0.00    -0.216 N 
ATOM     25  H   UNL     1       1.767   1.587  -2.733  0.00  0.00    +0.174 HD
BRANCH  24  26
ATOM     26  S   UNL     1       3.548   1.669  -1.281  0.00  0.00    +0.072 S 
ATOM     27  O   UNL     1       4.327   1.273  -2.402  0.00  0.00    -0.150 OA
ATOM     28  O   UNL     1       3.811   2.862  -0.554  0.00  0.00    -0.150 OA
BRANCH  26  29
ATOM     29  C   UNL     1       3.626   0.346  -0.121  0.00  0.00    +0.109 A 
ATOM     30  C   UNL     1       3.414   0.591   1.223  0.00  0.00    +0.030 A 
ATOM     31  C   UNL     1       3.470  -0.448   2.133  0.00  0.00    +0.022 A 
ATOM     32  C   UNL     1       3.748  -1.732   1.700  0.00  0.00    +0.041 A 
ATOM     33  C   UNL     1       3.965  -1.976   0.355  0.00  0.00    +0.022 A 
ATOM     34  C   UNL     1       3.904  -0.937  -0.554  0.00  0.00    +0.030 A 
ATOM     35 CL   UNL     1       3.824  -3.037   2.842  0.00  0.00    -0.084 Cl
ENDBRANCH  26  29
ENDBRANCH  24  26
ENDBRANCH   5  24
TORSDOF 8
