REMARK  Name = ZINC47098865
REMARK  5 active torsions:
REMARK  status: ('A' for Active; 'I' for Inactive)
REMARK    1  A    between atoms: C_1  and  C_2
REMARK    2  A    between atoms: C_5  and  C_7
REMARK    3  A    between atoms: C_7  and  N_8
REMARK    4  A    between atoms: N_11  and  N_12
REMARK    5  A    between atoms: C_13  and  C_15
REMARK                            x       y       z     vdW  Elec       q    Type
REMARK                         _______ _______ _______ _____ _____    ______ ____
ROOT
ATOM      1  N   UNL     1       2.142  -2.465   2.069  0.00  0.00    -0.298 N 
ATOM      2  C   UNL     1       2.869  -3.599   2.038  0.00  0.00    +0.316 C 
ATOM      3  O   UNL     1       2.948  -4.243   1.010  0.00  0.00    -0.251 OA
ATOM      4  N   UNL     1       3.510  -4.019   3.147  0.00  0.00    -0.218 N 
ATOM      5  H   UNL     1       2.079  -1.951   2.890  0.00  0.00    +0.150 HD
ATOM      6  H   UNL     1       4.034  -4.836   3.125  0.00  0.00    +0.174 HD
ENDROOT
BRANCH   4   7
ATOM      7  N   UNL     1       3.420  -3.277   4.332  0.00  0.00    -0.229 N 
ATOM      8  C   UNL     1       4.060  -3.698   5.441  0.00  0.00    +0.263 C 
ATOM      9  O   UNL     1       4.717  -4.721   5.413  0.00  0.00    -0.269 OA
ATOM     10  H   UNL     1       2.896  -2.461   4.354  0.00  0.00    +0.173 HD
BRANCH   8  11
ATOM     11  C   UNL     1       3.965  -2.915   6.690  0.00  0.00    +0.073 A 
ATOM     12  C   UNL     1       3.207  -1.743   6.727  0.00  0.00    +0.016 A 
ATOM     13  C   UNL     1       3.122  -1.017   7.897  0.00  0.00    +0.001 A 
ATOM     14  C   UNL     1       3.785  -1.448   9.034  0.00  0.00    +0.003 A 
ATOM     15  C   UNL     1       4.538  -2.606   9.006  0.00  0.00    +0.039 A 
ATOM     16  C   UNL     1       4.628  -3.348   7.842  0.00  0.00    +0.136 A 
ATOM     17  F   UNL     1       5.359  -4.484   7.817  0.00  0.00    -0.205 F 
ENDBRANCH   8  11
ENDBRANCH   4   7
BRANCH   1  18
ATOM     18  C   UNL     1       1.445  -2.008   0.864  0.00  0.00    +0.109 C 
BRANCH  18  22
ATOM     19  C   UNL     1      -0.019   1.526   0.010  0.00  0.00    +0.008 C 
ATOM     20  C   UNL     1       0.002  -0.004   0.002  0.00  0.00    -0.009 C 
ATOM     21  C   UNL     1      -0.828  -0.728   1.065  0.00  0.00    +0.009 C 
ATOM     22  C   UNL     1       0.700  -0.708   1.168  0.00  0.00    +0.009 C 
ENDBRANCH  18  22
ENDBRANCH   1  18
TORSDOF 4
