REMARK  Name = ZINC63021129
REMARK  3 active torsions:
REMARK  status: ('A' for Active; 'I' for Inactive)
REMARK    1  A    between atoms: C_1  and  C_2
REMARK    2  A    between atoms: C_5  and  C_9
REMARK    3  A    between atoms: C_9  and  C_11
REMARK                            x       y       z     vdW  Elec       q    Type
REMARK                         _______ _______ _______ _____ _____    ______ ____
ROOT
ATOM      1  C   UNL     1       0.172  -5.043   1.216  0.00  0.00    +0.023 A 
ATOM      2  C   UNL     1       0.159  -4.407   2.462  0.00  0.00    +0.013 A 
ATOM      3  C   UNL     1       0.263  -5.146   3.617  0.00  0.00    +0.024 A 
ATOM      4  C   UNL     1       0.383  -6.537   3.557  0.00  0.00    +0.037 A 
ATOM      5  C   UNL     1       0.396  -7.164   2.313  0.00  0.00    -0.017 A 
ATOM      6  C   UNL     1       0.287  -6.437   1.155  0.00  0.00    +0.017 A 
ATOM      7  C   UNL     1       0.535  -8.644   2.587  0.00  0.00    +0.133 C 
ATOM      8  C   UNL     1       0.594  -8.733   4.097  0.00  0.00    +0.222 C 
ATOM      9  O   UNL     1       0.706  -9.746   4.755  0.00  0.00    -0.275 OA
ATOM     10  N   UNL     1       0.500  -7.480   4.571  0.00  0.00    -0.285 N 
ATOM     11  H   UNL     1       0.513  -7.258   5.516  0.00  0.00    +0.155 HD
ENDROOT
BRANCH   1  12
ATOM     12  C   UNL     1       0.060  -4.252  -0.023  0.00  0.00    +0.193 C 
ATOM     13  O   UNL     1      -0.527  -4.708  -0.985  0.00  0.00    -0.287 OA
BRANCH  12  18
ATOM     14  C   UNL     1       2.396   1.000  -0.306  0.00  0.00    +0.045 C 
ATOM     15  C   UNL     1       1.784  -0.375  -0.232  0.00  0.00    -0.032 A 
ATOM     16  C   UNL     1       0.987  -0.831  -1.267  0.00  0.00    +0.005 A 
ATOM     17  C   UNL     1       0.424  -2.089  -1.205  0.00  0.00    +0.012 A 
ATOM     18  C   UNL     1       0.660  -2.903  -0.095  0.00  0.00    +0.024 A 
ATOM     19  C   UNL     1       1.466  -2.438   0.946  0.00  0.00    +0.032 A 
ATOM     20  C   UNL     1       2.028  -1.179   0.869  0.00  0.00    +0.045 A 
ATOM     21 CL   UNL     1       3.035  -0.600   2.159  0.00  0.00    -0.083 Cl
ENDBRANCH  12  18
ENDBRANCH   1  12
TORSDOF 2
