REMARK  Name = ZINC65422628
REMARK  4 active torsions:
REMARK  status: ('A' for Active; 'I' for Inactive)
REMARK    1  A    between atoms: C_4  and  C_7
REMARK    2  A    between atoms: C_17  and  C_19
REMARK    3  A    between atoms: C_19  and  C_20
REMARK    4  A    between atoms: C_20  and  C_21
REMARK                            x       y       z     vdW  Elec       q    Type
REMARK                         _______ _______ _______ _____ _____    ______ ____
ROOT
ATOM      1  C   UNL     1       3.698  -0.688  -0.037  0.00  0.00    +0.081 A 
ATOM      2  C   UNL     1       3.845  -1.901   0.639  0.00  0.00    +0.019 A 
ATOM      3  C   UNL     1       5.068  -2.540   0.598  0.00  0.00    +0.069 A 
ATOM      4  N   UNL     1       6.064  -1.987  -0.080  0.00  0.00    -0.218 NA
ATOM      5  C   UNL     1       5.898  -0.836  -0.714  0.00  0.00    +0.213 A 
ATOM      6  N   UNL     1       4.740  -0.194  -0.703  0.00  0.00    -0.214 NA
ATOM      7  N   UNL     1       6.963  -0.291  -1.411  0.00  0.00    -0.327 N 
ATOM      8  C   UNL     1       4.978  -3.815   1.395  0.00  0.00    +0.164 C 
ATOM      9  N   UNL     1       3.614  -3.912   1.927  0.00  0.00    -0.291 N 
ATOM     10  C   UNL     1       2.891  -2.722   1.464  0.00  0.00    +0.147 C 
ATOM     11  C   UNL     1       3.120  -4.904   2.694  0.00  0.00    +0.216 C 
ATOM     12  O   UNL     1       1.967  -4.864   3.069  0.00  0.00    -0.276 OA
ATOM     13  H   UNL     1       7.816  -0.752  -1.430  0.00  0.00    +0.145 HD
ATOM     14  H   UNL     1       6.856   0.551  -1.880  0.00  0.00    +0.145 HD
ENDROOT
BRANCH   1  18
ATOM     15  C   UNL     1      -0.017   1.379   0.010  0.00  0.00    +0.000 A 
ATOM     16  C   UNL     1       1.169   2.092   0.002  0.00  0.00    +0.001 A 
ATOM     17  C   UNL     1       2.377   1.427  -0.013  0.00  0.00    +0.010 A 
ATOM     18  C   UNL     1       2.402   0.033  -0.021  0.00  0.00    +0.001 A 
ATOM     19  C   UNL     1       1.205  -0.680  -0.013  0.00  0.00    +0.010 A 
ATOM     20  C   UNL     1       0.002  -0.004   0.002  0.00  0.00    +0.001 A 
ENDBRANCH   1  18
BRANCH  11  21
ATOM     21  C   UNL     1       3.999  -6.064   3.084  0.00  0.00    +0.100 C 
BRANCH  21  22
ATOM     22  C   UNL     1       3.200  -7.041   3.948  0.00  0.00    +0.042 C 
BRANCH  22  23
ATOM     23  C   UNL     1       4.080  -8.201   4.339  0.00  0.00    -0.041 C 
ATOM     24  C   UNL     1       4.785  -8.337   5.485  0.00  0.00    -0.001 A 
ATOM     25  C   UNL     1       4.941  -7.477   6.665  0.00  0.00    +0.010 A 
ATOM     26  C   UNL     1       5.734  -7.892   7.678  0.00  0.00    +0.001 A 
ATOM     27  C   UNL     1       6.412  -9.118   7.630  0.00  0.00    +0.002 A 
ATOM     28  C   UNL     1       6.319  -9.961   6.580  0.00  0.00    +0.026 A 
ATOM     29  C   UNL     1       5.511  -9.627   5.459  0.00  0.00    +0.043 A 
ATOM     30  N   UNL     1       5.263 -10.264   4.340  0.00  0.00    -0.380 N 
ATOM     31  C   UNL     1       4.347  -9.452   3.532  0.00  0.00    +0.144 C 
ATOM     32  H   UNL     1       5.622 -11.130   4.090  0.00  0.00    +0.160 HD
ENDBRANCH  22  23
ENDBRANCH  21  22
ENDBRANCH  11  21
TORSDOF 4
