REMARK  Name = ZINC04239845
REMARK  3 active torsions:
REMARK  status: ('A' for Active; 'I' for Inactive)
REMARK    1  A    between atoms: C_1  and  N_2
REMARK    2  A    between atoms: C_5  and  C_10
REMARK    3  A    between atoms: N_19  and  C_21
REMARK                            x       y       z     vdW  Elec       q    Type
REMARK                         _______ _______ _______ _____ _____    ______ ____
ROOT
ATOM      1  C   UNL     1      -1.279  -0.714   0.010  0.00  0.00    +0.139 C 
ATOM      2  N   UNL     1       0.002  -0.004   0.002  0.00  0.00    -0.260 N 
ATOM      3  C   UNL     1      -0.016   1.361   0.009  0.00  0.00    +0.042 C 
ATOM      4  C   UNL     1       1.127   2.076   0.002  0.00  0.00    +0.058 C 
ATOM      5  C   UNL     1       2.435   1.312  -0.014  0.00  0.00    +0.142 C 
ATOM      6  N   UNL     1       2.348  -0.159  -0.021  0.00  0.00    -0.288 N 
ATOM      7  C   UNL     1       1.128  -0.730  -0.013  0.00  0.00    +0.307 C 
ATOM      8  O   UNL     1       1.046  -1.942  -0.019  0.00  0.00    -0.252 OA
ATOM      9  C   UNL     1       0.843   3.457   0.013  0.00  0.00    +0.247 C 
ATOM     10  O   UNL     1       1.687   4.334   0.010  0.00  0.00    -0.270 OA
ATOM     11  N   UNL     1      -0.484   3.680   0.027  0.00  0.00    -0.289 N 
ATOM     12  C   UNL     1      -1.146   2.367   0.032  0.00  0.00    +0.159 C 
ATOM     13  H   UNL     1       3.151  -0.703  -0.032  0.00  0.00    +0.151 HD
ENDROOT
BRANCH   5  14
ATOM     14  C   UNL     1       3.207   1.737  -1.237  0.00  0.00    -0.022 A 
ATOM     15  C   UNL     1       3.003   1.091  -2.442  0.00  0.00    +0.008 A 
ATOM     16  C   UNL     1       3.706   1.484  -3.565  0.00  0.00    +0.038 A 
ATOM     17  C   UNL     1       4.623   2.518  -3.480  0.00  0.00    +0.123 A 
ATOM     18  C   UNL     1       4.830   3.161  -2.271  0.00  0.00    +0.038 A 
ATOM     19  C   UNL     1       4.122   2.770  -1.151  0.00  0.00    +0.008 A 
ATOM     20  F   UNL     1       5.315   2.900  -4.576  0.00  0.00    -0.205 F 
ENDBRANCH   5  14
BRANCH  11  21
ATOM     21  C   UNL     1      -1.146   4.987   0.040  0.00  0.00    +0.077 C 
ATOM     22  C   UNL     1      -0.745   5.774  -1.209  0.00  0.00    +0.022 C 
ATOM     23  C   UNL     1      -1.436   7.139  -1.195  0.00  0.00    +0.002 C 
ATOM     24  C   UNL     1      -1.011   7.913   0.054  0.00  0.00    +0.000 C 
ATOM     25  C   UNL     1      -1.412   7.126   1.303  0.00  0.00    +0.002 C 
ATOM     26  C   UNL     1      -0.721   5.761   1.290  0.00  0.00    +0.022 C 
ENDBRANCH  11  21
TORSDOF 2
