REMARK  Name = ZINC02480043
REMARK  10 active torsions:
REMARK  status: ('A' for Active; 'I' for Inactive)
REMARK    1  A    between atoms: C_1  and  C_2
REMARK    2  A    between atoms: C_2  and  S_3
REMARK    3  A    between atoms: S_3  and  C_4
REMARK    4  A    between atoms: C_8  and  C_9
REMARK    5  A    between atoms: C_11  and  C_33
REMARK    6  A    between atoms: C_12  and  N_32
REMARK    7  A    between atoms: N_13  and  C_23
REMARK    8  A    between atoms: C_19  and  C_21
REMARK    9  A    between atoms: C_19  and  C_22
REMARK   10  A    between atoms: C_27  and  N_29
REMARK                            x       y       z     vdW  Elec       q    Type
REMARK                         _______ _______ _______ _____ _____    ______ ____
ROOT
ATOM      1  C   UNL     1      -0.035   7.949  -0.780  0.00  0.00    +0.105 C 
ATOM      2  C   UNL     1      -1.296   7.216  -0.430  0.00  0.00    +0.077 C 
ATOM      3  C   UNL     1      -1.270   5.910  -0.061  0.00  0.00    +0.107 C 
ATOM      4  N   UNL     1      -0.071   5.236   0.008  0.00  0.00    -0.260 N 
ATOM      5  C   UNL     1       1.109   5.925   0.110  0.00  0.00    +0.025 C 
ATOM      6  C   UNL     1       1.180   7.223  -0.260  0.00  0.00    +0.026 C 
ATOM      7  C   UNL     1       2.388   7.936  -0.167  0.00  0.00    +0.162 C 
ATOM      8  O   UNL     1       2.414   9.108  -0.489  0.00  0.00    -0.292 OA
ATOM      9  C   UNL     1       3.647   7.277   0.325  0.00  0.00    +0.086 C 
ATOM     10  C   UNL     1       3.587   5.781  -0.002  0.00  0.00    -0.023 C 
ATOM     11  C   UNL     1       2.322   5.198   0.632  0.00  0.00    +0.058 C 
ATOM     12  C   UNL     1       3.538   5.587  -1.519  0.00  0.00    +0.011 C 
ATOM     13  C   UNL     1       4.822   5.080   0.567  0.00  0.00    +0.011 C 
ENDROOT
BRANCH   4  14
ATOM     14  C   UNL     1      -0.058   3.836  -0.022  0.00  0.00    +0.042 A 
ATOM     15  C   UNL     1      -0.143   3.114   1.162  0.00  0.00    +0.024 A 
ATOM     16  C   UNL     1      -0.131   1.734   1.129  0.00  0.00    +0.004 A 
ATOM     17  C   UNL     1      -0.033   1.070  -0.080  0.00  0.00    +0.033 A 
ATOM     18  C   UNL     1       0.057   1.786  -1.260  0.00  0.00    +0.128 A 
ATOM     19  C   UNL     1       0.039   3.167  -1.234  0.00  0.00    +0.056 A 
BRANCH  18  20
ATOM     20  N   UNL     1       0.168   1.072  -2.551  0.00  0.00    +0.056 N 
ATOM     21  O   UNL     1       0.179  -0.146  -2.575  0.00  0.00    -0.126 OA
ATOM     22  O   UNL     1       0.247   1.702  -3.591  0.00  0.00    -0.126 OA
ENDBRANCH  18  20
ENDBRANCH   4  14
BRANCH   1  27
ATOM     23  C   UNL     1       0.130   9.192  -3.044  0.00  0.00    +0.019 A 
ATOM     24  C   UNL     1       0.221   9.057  -4.421  0.00  0.00    +0.022 A 
ATOM     25  C   UNL     1       0.244   7.813  -4.959  0.00  0.00    +0.046 A 
ATOM     26  S   UNL     1       0.143   6.778  -3.508  0.00  0.00    -0.100 S 
ATOM     27  C   UNL     1       0.067   8.070  -2.279  0.00  0.00    +0.016 A 
BRANCH  23  28
ATOM     28  S   UNL     1       0.096  10.788  -2.300  0.00  0.00    -0.125 S 
BRANCH  28  30
ATOM     29  C   UNL     1       0.183  13.372  -3.194  0.00  0.00    +0.015 C 
ATOM     30  C   UNL     1       0.203  11.930  -3.706  0.00  0.00    +0.071 C 
ENDBRANCH  28  30
ENDBRANCH  23  28
ENDBRANCH   1  27
BRANCH   3  31
ATOM     31  N   UNL     1      -2.441   5.259   0.246  0.00  0.00    -0.345 N 
ATOM     32  H   UNL     1      -2.416   4.354   0.595  0.00  0.00    +0.144 HD
ATOM     33  H   UNL     1      -3.292   5.705   0.114  0.00  0.00    +0.144 HD
ENDBRANCH   3  31
BRANCH   2  34
ATOM     34  C   UNL     1      -2.550   7.906  -0.487  0.00  0.00    +0.099 C 
ATOM     35  N   UNL     1      -3.544   8.454  -0.532  0.00  0.00    -0.191 NA
ENDBRANCH   2  34
TORSDOF 7
