REMARK  Name = ZINC28421908
REMARK  11 active torsions:
REMARK  status: ('A' for Active; 'I' for Inactive)
REMARK    1  A    between atoms: C_1  and  C_2
REMARK    2  A    between atoms: C_2  and  C_4
REMARK    3  A    between atoms: C_2  and  S_22
REMARK    4  A    between atoms: N_6  and  C_7
REMARK    5  A    between atoms: C_8  and  C_16
REMARK    6  A    between atoms: C_16  and  O_18
REMARK    7  A    between atoms: O_18  and  C_19
REMARK    8  A    between atoms: C_19  and  C_20
REMARK    9  A    between atoms: C_19  and  C_21
REMARK   10  A    between atoms: S_22  and  C_23
REMARK   11  A    between atoms: N_32  and  C_33
REMARK                            x       y       z     vdW  Elec       q    Type
REMARK                         _______ _______ _______ _____ _____    ______ ____
ROOT
ATOM      1  C   UNL     1       0.731  -0.503   1.223  0.00  0.00    +0.231 C 
ATOM      2  O   UNL     1       0.105  -0.891   2.187  0.00  0.00    -0.274 OA
ATOM      3  N   UNL     1       2.079  -0.519   1.244  0.00  0.00    -0.278 N 
ATOM      4  H   UNL     1       2.579  -0.208   0.473  0.00  0.00    +0.155 HD
ENDROOT
BRANCH   3   5
ATOM      5  C   UNL     1       2.749  -0.978   2.367  0.00  0.00    +0.086 A 
ATOM      6  C   UNL     1       4.119  -1.060   2.568  0.00  0.00    +0.091 A 
ATOM      7  C   UNL     1       4.572  -1.583   3.846  0.00  0.00    -0.021 A 
ATOM      8  C   UNL     1       3.573  -1.926   4.687  0.00  0.00    -0.004 A 
ATOM      9  S   UNL     1       2.089  -1.555   3.799  0.00  0.00    -0.077 S 
ATOM     10  C   UNL     1       3.714  -2.492   6.067  0.00  0.00    +0.043 C 
ATOM     11  C   UNL     1       5.160  -2.977   6.244  0.00  0.00    +0.005 C 
ATOM     12  C   UNL     1       6.113  -1.878   5.766  0.00  0.00    +0.005 C 
ATOM     13  C   UNL     1       6.031  -1.744   4.244  0.00  0.00    +0.037 C 
BRANCH   6  14
ATOM     14  C   UNL     1       5.068  -0.639   1.536  0.00  0.00    +0.342 C 
ATOM     15  O   UNL     1       5.463   0.511   1.506  0.00  0.00    -0.245 OA
BRANCH  14  16
ATOM     16  O   UNL     1       5.505  -1.527   0.619  0.00  0.00    -0.458 OA
BRANCH  16  17
ATOM     17  C   UNL     1       6.431  -1.048  -0.359  0.00  0.00    +0.171 C 
ATOM     18  C   UNL     1       7.859  -1.231   0.158  0.00  0.00    +0.052 C 
ATOM     19  C   UNL     1       6.253  -1.835  -1.658  0.00  0.00    +0.052 C 
ENDBRANCH  16  17
ENDBRANCH  14  16
ENDBRANCH   6  14
ENDBRANCH   3   5
BRANCH   1  21
ATOM     20  C   UNL     1      -0.019   1.526   0.010  0.00  0.00    +0.029 C 
ATOM     21  C   UNL     1       0.002  -0.004   0.002  0.00  0.00    +0.137 C 
BRANCH  21  22
ATOM     22  S   UNL     1      -1.700  -0.632   0.015  0.00  0.00    -0.075 S 
BRANCH  22  23
ATOM     23  C   UNL     1      -2.365  -0.093  -1.525  0.00  0.00    +0.173 A 
ATOM     24  N   UNL     1      -1.597   0.590  -2.332  0.00  0.00    -0.222 NA
ATOM     25  C   UNL     1      -2.041   1.041  -3.543  0.00  0.00    +0.086 A 
ATOM     26  C   UNL     1      -1.340   1.779  -4.507  0.00  0.00    +0.036 A 
ATOM     27  C   UNL     1      -1.947   2.141  -5.658  0.00  0.00    +0.048 A 
ATOM     28  S   UNL     1      -3.586   1.458  -5.472  0.00  0.00    -0.090 S 
ATOM     29  C   UNL     1      -3.372   0.727  -3.870  0.00  0.00    +0.102 A 
ATOM     30  C   UNL     1      -4.184  -0.001  -3.004  0.00  0.00    +0.269 A 
ATOM     31  O   UNL     1      -5.337  -0.266  -3.301  0.00  0.00    -0.266 OA
ATOM     32  N   UNL     1      -3.658  -0.413  -1.826  0.00  0.00    -0.290 N 
ATOM     33  C   UNL     1      -4.468  -1.188  -0.882  0.00  0.00    +0.154 C 
ENDBRANCH  22  23
ENDBRANCH  21  22
ENDBRANCH   1  21
TORSDOF 7
