REMARK  Name = ZINC09665176
REMARK  8 active torsions:
REMARK  status: ('A' for Active; 'I' for Inactive)
REMARK    1  A    between atoms: C_7  and  C_11
REMARK    2  A    between atoms: C_11  and  C_12
REMARK    3  A    between atoms: C_12  and  N_13
REMARK    4  A    between atoms: C_26  and  S_27
REMARK    5  A    between atoms: S_27  and  C_28
REMARK    6  A    between atoms: C_28  and  C_29
REMARK    7  A    between atoms: N_31  and  C_32
REMARK    8  A    between atoms: C_32  and  C_33
REMARK                            x       y       z     vdW  Elec       q    Type
REMARK                         _______ _______ _______ _____ _____    ______ ____
ROOT
ATOM      1  N   UNL     1      -3.461   5.357   9.095  0.00  0.00    -0.287 N 
ATOM      2  C   UNL     1      -2.776   5.708  10.209  0.00  0.00    +0.269 A 
ATOM      3  O   UNL     1      -3.363   6.023  11.231  0.00  0.00    -0.266 OA
ATOM      4  C   UNL     1      -1.379   5.706  10.155  0.00  0.00    +0.103 A 
ATOM      5  C   UNL     1      -0.698   5.348   8.993  0.00  0.00    +0.094 A 
ATOM      6  C   UNL     1       0.774   5.386   9.066  0.00  0.00    +0.015 A 
ATOM      7  C   UNL     1       1.694   5.072   8.040  0.00  0.00    +0.011 A 
ATOM      8  C   UNL     1       3.034   5.154   8.258  0.00  0.00    +0.001 A 
ATOM      9  C   UNL     1       3.545   5.545   9.489  0.00  0.00    +0.001 A 
ATOM     10  C   UNL     1       2.678   5.859  10.516  0.00  0.00    +0.016 A 
ATOM     11  C   UNL     1       1.315   5.779  10.303  0.00  0.00    +0.022 A 
ATOM     12  S   UNL     1      -0.103   6.085  11.326  0.00  0.00    -0.081 S 
ATOM     13  N   UNL     1      -1.463   5.003   7.920  0.00  0.00    -0.222 NA
ATOM     14  C   UNL     1      -2.769   5.006   7.972  0.00  0.00    +0.173 A 
ENDROOT
BRANCH   1  15
ATOM     15  C   UNL     1      -4.926   5.348   9.097  0.00  0.00    +0.132 C 
BRANCH  15  16
ATOM     16  C   UNL     1      -5.427   3.970   9.532  0.00  0.00    +0.059 C 
BRANCH  16  23
ATOM     17  C   UNL     1      -8.633   3.208   6.199  0.00  0.00    +0.001 A 
ATOM     18  C   UNL     1      -9.936   3.304   6.670  0.00  0.00    +0.002 A 
ATOM     19  C   UNL     1     -10.185   3.596   7.992  0.00  0.00    +0.026 A 
ATOM     20  C   UNL     1      -9.123   3.798   8.868  0.00  0.00    +0.047 A 
ATOM     21  C   UNL     1      -7.805   3.699   8.386  0.00  0.00    +0.003 A 
ATOM     22  C   UNL     1      -7.575   3.402   7.041  0.00  0.00    +0.010 A 
ATOM     23  C   UNL     1      -6.934   3.961   9.534  0.00  0.00    -0.021 A 
ATOM     24  C   UNL     1      -7.732   4.184  10.590  0.00  0.00    +0.087 A 
ATOM     25  N   UNL     1      -9.044   4.097  10.209  0.00  0.00    -0.360 N 
ATOM     26  H   UNL     1      -9.804   4.223  10.798  0.00  0.00    +0.165 HD
ENDBRANCH  16  23
ENDBRANCH  15  16
ENDBRANCH   1  15
BRANCH  14  27
ATOM     27  S   UNL     1      -3.674   4.546   6.532  0.00  0.00    -0.078 S 
BRANCH  27  28
ATOM     28  C   UNL     1      -2.305   4.204   5.397  0.00  0.00    +0.173 C 
BRANCH  28  29
ATOM     29  C   UNL     1      -2.856   3.780   4.060  0.00  0.00    +0.223 C 
ATOM     30  O   UNL     1      -4.055   3.714   3.891  0.00  0.00    -0.275 OA
ATOM     31  N   UNL     1      -2.015   3.472   3.052  0.00  0.00    -0.312 N 
ATOM     32  H   UNL     1      -1.056   3.525   3.188  0.00  0.00    +0.149 HD
BRANCH  31  33
ATOM     33  C   UNL     1      -2.550   3.059   1.752  0.00  0.00    +0.135 C 
BRANCH  33  34
ATOM     34  C   UNL     1      -1.394   2.771   0.793  0.00  0.00    +0.135 C 
ATOM     35  C   UNL     1      -1.928   2.453  -0.626  0.00  0.00    +0.035 C 
ATOM     36  C   UNL     1      -0.778   1.606  -1.224  0.00  0.00    +0.031 C 
ATOM     37  C   UNL     1      -0.013   1.086   0.008  0.00  0.00    +0.160 C 
ATOM     38  O   UNL     1      -0.705   1.559   1.176  0.00  0.00    -0.375 OA
ENDBRANCH  33  34
ENDBRANCH  31  33
ENDBRANCH  28  29
ENDBRANCH  27  28
ENDBRANCH  14  27
TORSDOF 8
