REMARK  Name = ZINC32577585
REMARK  12 active torsions:
REMARK  status: ('A' for Active; 'I' for Inactive)
REMARK    1  A    between atoms: C_1  and  C_2
REMARK    2  A    between atoms: C_2  and  C_3
REMARK    3  A    between atoms: C_2  and  N_4
REMARK    4  A    between atoms: C_6  and  N_23
REMARK    5  A    between atoms: C_9  and  C_11
REMARK    6  A    between atoms: N_13  and  C_14
REMARK    7  A    between atoms: C_14  and  C_15
REMARK    8  A    between atoms: C_15  and  C_16
REMARK    9  A    between atoms: N_23  and  C_24
REMARK   10  A    between atoms: C_24  and  C_25
REMARK   11  A    between atoms: C_28  and  S_31
REMARK   12  A    between atoms: S_31  and  C_32
REMARK                            x       y       z     vdW  Elec       q    Type
REMARK                         _______ _______ _______ _____ _____    ______ ____
ROOT
ATOM      1  N   UNL     1       0.692  -0.340   1.254  0.00  0.00    -0.291 NA
ATOM      2  C   UNL     1       2.042   0.262   1.294  0.00  0.00    +0.070 C 
ATOM      3  C   UNL     1       2.908  -0.758   2.074  0.00  0.00    -0.055 C 
ATOM      4  C   UNL     1       2.329  -2.108   1.575  0.00  0.00    +0.014 C 
ATOM      5  C   UNL     1       0.825  -1.801   1.409  0.00  0.00    +0.142 C 
ENDROOT
BRANCH   5   6
ATOM      6  C   UNL     1       0.070  -2.258   2.630  0.00  0.00    +0.230 C 
ATOM      7  O   UNL     1      -0.524  -1.451   3.313  0.00  0.00    -0.274 OA
ATOM      8  N   UNL     1       0.056  -3.564   2.964  0.00  0.00    -0.314 N 
ATOM      9  H   UNL     1       0.532  -4.209   2.418  0.00  0.00    +0.149 HD
BRANCH   8  10
ATOM     10  C   UNL     1      -0.677  -4.008   4.151  0.00  0.00    +0.109 C 
BRANCH  10  11
ATOM     11  C   UNL     1      -0.533  -5.524   4.302  0.00  0.00    +0.056 C 
BRANCH  11  12
ATOM     12  C   UNL     1      -1.288  -5.981   5.524  0.00  0.00    -0.011 A 
ATOM     13  C   UNL     1      -0.629  -6.125   6.730  0.00  0.00    +0.006 A 
ATOM     14  C   UNL     1      -1.321  -6.544   7.851  0.00  0.00    +0.000 A 
ATOM     15  C   UNL     1      -2.673  -6.821   7.766  0.00  0.00    +0.003 A 
ATOM     16  C   UNL     1      -3.334  -6.678   6.561  0.00  0.00    +0.038 A 
ATOM     17  C   UNL     1      -2.643  -6.252   5.439  0.00  0.00    +0.127 A 
ATOM     18  F   UNL     1      -3.289  -6.107   4.262  0.00  0.00    -0.205 F 
ENDBRANCH  11  12
ENDBRANCH  10  11
ENDBRANCH   8  10
ENDBRANCH   5   6
BRANCH   1  20
ATOM     19  C   UNL     1      -1.412  -0.588   0.026  0.00  0.00    +0.024 C 
ATOM     20  C   UNL     1       0.002  -0.004   0.002  0.00  0.00    +0.051 C 
ATOM     21  C   UNL     1      -0.076   1.517  -0.144  0.00  0.00    +0.024 C 
ENDBRANCH   1  20
BRANCH   3  22
ATOM     22  N   UNL     1       4.326  -0.628   1.715  0.00  0.00    +0.384 N 
ATOM     23  H   UNL     1       4.854  -1.369   2.153  0.00  0.00    -0.085 HD
ATOM     24  H   UNL     1       4.426  -0.692   0.713  0.00  0.00    -0.085 HD
BRANCH  22  25
ATOM     25  C   UNL     1       4.831   0.672   2.176  0.00  0.00    -0.046 C 
BRANCH  25  26
ATOM     26  C   UNL     1       6.287   0.805   1.807  0.00  0.00    -0.064 A 
ATOM     27  C   UNL     1       7.263   0.368   2.684  0.00  0.00    +0.003 A 
ATOM     28  C   UNL     1       8.597   0.489   2.350  0.00  0.00    +0.015 A 
ATOM     29  C   UNL     1       8.958   1.050   1.130  0.00  0.00    +0.008 A 
ATOM     30  C   UNL     1       7.974   1.487   0.252  0.00  0.00    +0.015 A 
ATOM     31  C   UNL     1       6.642   1.359   0.591  0.00  0.00    +0.003 A 
BRANCH  29  32
ATOM     32  S   UNL     1      10.660   1.207   0.700  0.00  0.00    -0.129 S 
ATOM     33  C   UNL     1      10.627   1.976  -0.943  0.00  0.00    +0.090 C 
ENDBRANCH  29  32
ENDBRANCH  25  26
ENDBRANCH  22  25
ENDBRANCH   3  22
TORSDOF 9
