REMARK  Name = ZINC02804086
REMARK  9 active torsions:
REMARK  status: ('A' for Active; 'I' for Inactive)
REMARK    1  A    between atoms: C_1  and  C_2
REMARK    2  A    between atoms: C_2  and  N_3
REMARK    3  A    between atoms: C_4  and  C_25
REMARK    4  A    between atoms: C_5  and  N_8
REMARK    5  A    between atoms: C_9  and  C_11
REMARK    6  A    between atoms: C_18  and  C_21
REMARK    7  A    between atoms: C_21  and  C_22
REMARK    8  A    between atoms: C_21  and  C_23
REMARK    9  A    between atoms: C_21  and  C_24
REMARK                            x       y       z     vdW  Elec       q    Type
REMARK                         _______ _______ _______ _____ _____    ______ ____
ROOT
ATOM      1  C   UNL     1       4.168  -0.262  -0.037  0.00  0.00    +0.171 A 
ATOM      2  C   UNL     1       4.647  -1.588  -0.049  0.00  0.00    +0.027 A 
ATOM      3  C   UNL     1       5.995  -1.463  -0.059  0.00  0.00    +0.141 A 
ATOM      4  O   UNL     1       6.258  -0.158  -0.056  0.00  0.00    -0.359 OA
ATOM      5  N   UNL     1       5.238   0.503  -0.049  0.00  0.00    -0.073 NA
ATOM      6  C   UNL     1       6.943  -2.633  -0.072  0.00  0.00    +0.078 C 
ATOM      7  C   UNL     1       6.167  -3.888   0.349  0.00  0.00    +0.012 C 
ATOM      8  C   UNL     1       4.880  -4.000  -0.473  0.00  0.00    -0.001 C 
ATOM      9  C   UNL     1       3.904  -2.892  -0.052  0.00  0.00    +0.045 C 
ENDROOT
BRANCH   1  11
ATOM     10  N   UNL     1       2.456   1.494  -0.013  0.00  0.00    -0.277 N 
ATOM     11  C   UNL     1       2.752   0.179  -0.022  0.00  0.00    +0.270 C 
ATOM     12  O   UNL     1       1.859  -0.645  -0.019  0.00  0.00    -0.268 OA
ATOM     13  H   UNL     1       3.169   2.152  -0.016  0.00  0.00    +0.155 HD
BRANCH  10  16
ATOM     14  N   UNL     1      -0.681   3.169   0.026  0.00  0.00    -0.267 N 
ATOM     15  C   UNL     1       0.676   3.198   0.013  0.00  0.00    +0.057 A 
ATOM     16  C   UNL     1       1.113   1.912   0.002  0.00  0.00    +0.075 A 
ATOM     17  C   UNL     1      -0.013   1.076   0.008  0.00  0.00    +0.158 A 
ATOM     18  N   UNL     1      -1.083   1.827   0.017  0.00  0.00    -0.178 NA
ATOM     19  C   UNL     1       1.541   4.432   0.011  0.00  0.00    +0.067 C 
BRANCH  14  21
ATOM     20  C   UNL     1      -1.891   4.747  -1.398  0.00  0.00    +0.029 C 
ATOM     21  C   UNL     1      -1.569   4.335   0.040  0.00  0.00    +0.140 C 
ENDBRANCH  14  21
ENDBRANCH  10  16
ENDBRANCH   1  11
BRANCH   8  22
ATOM     22  C   UNL     1       4.237  -5.366  -0.230  0.00  0.00    -0.035 C 
ATOM     23  C   UNL     1       2.952  -5.478  -1.052  0.00  0.00    +0.011 C 
ATOM     24  C   UNL     1       5.209  -6.470  -0.650  0.00  0.00    +0.011 C 
ATOM     25  C   UNL     1       3.906  -5.516   1.256  0.00  0.00    +0.011 C 
ENDBRANCH   8  22
TORSDOF 4
