REMARK  Name = ZINC60360703
REMARK  10 active torsions:
REMARK  status: ('A' for Active; 'I' for Inactive)
REMARK    1  A    between atoms: C_1  and  C_2
REMARK    2  A    between atoms: C_2  and  C_3
REMARK    3  A    between atoms: C_3  and  C_4
REMARK    4  A    between atoms: N_6  and  C_7
REMARK    5  A    between atoms: C_7  and  C_8
REMARK    6  A    between atoms: C_15  and  C_17
REMARK    7  A    between atoms: C_18  and  C_30
REMARK    8  A    between atoms: C_20  and  C_22
REMARK    9  A    between atoms: C_25  and  C_29
REMARK   10  A    between atoms: C_27  and  C_28
REMARK                            x       y       z     vdW  Elec       q    Type
REMARK                         _______ _______ _______ _____ _____    ______ ____
ROOT
ATOM      1  C   UNL     1       1.593  -3.562  -4.480  0.00  0.00    +0.024 C 
ATOM      2  C   UNL     1       0.913  -4.737  -5.185  0.00  0.00    +0.008 C 
ATOM      3  C   UNL     1       1.728  -5.138  -6.417  0.00  0.00    +0.019 C 
ATOM      4  C   UNL     1       3.126  -5.582  -5.976  0.00  0.00    +0.108 C 
ATOM      5  N   UNL     1       3.732  -4.511  -5.173  0.00  0.00    -0.297 N 
ATOM      6  C   UNL     1       2.990  -3.988  -4.018  0.00  0.00    +0.113 C 
ATOM      7  C   UNL     1       4.945  -4.017  -5.490  0.00  0.00    +0.255 C 
ATOM      8  O   UNL     1       5.391  -3.061  -4.884  0.00  0.00    -0.269 OA
ENDROOT
BRANCH   7   9
ATOM      9  C   UNL     1       5.728  -4.632  -6.566  0.00  0.00    +0.097 A 
ATOM     10  C   UNL     1       6.604  -4.048  -7.473  0.00  0.00    +0.058 A 
ATOM     11  N   UNL     1       7.170  -4.851  -8.334  0.00  0.00    -0.243 NA
ATOM     12  C   UNL     1       6.919  -6.149  -8.337  0.00  0.00    +0.109 A 
ATOM     13  S   UNL     1       5.828  -6.343  -7.070  0.00  0.00    -0.062 S 
ATOM     14  C   UNL     1       6.885  -2.567  -7.463  0.00  0.00    +0.067 C 
BRANCH  12  15
ATOM     15  C   UNL     1       7.470  -7.186  -9.235  0.00  0.00    +0.010 A 
ATOM     16  C   UNL     1       7.080  -8.518  -9.091  0.00  0.00    +0.011 A 
ATOM     17  C   UNL     1       7.599  -9.480  -9.932  0.00  0.00    +0.004 A 
ATOM     18  C   UNL     1       8.504  -9.127 -10.918  0.00  0.00    -0.050 A 
ATOM     19  C   UNL     1       8.895  -7.808 -11.066  0.00  0.00    +0.007 A 
ATOM     20  C   UNL     1       8.379  -6.835 -10.235  0.00  0.00    -0.041 A 
ATOM     21  C   UNL     1       8.801  -5.398 -10.402  0.00  0.00    +0.044 C 
ATOM     22  C   UNL     1       9.067 -10.184 -11.833  0.00  0.00    +0.044 C 
ENDBRANCH  12  15
ENDBRANCH   7   9
BRANCH   1  23
ATOM     23  C   UNL     1       0.760  -3.141  -3.268  0.00  0.00    +0.109 C 
BRANCH  23  26
ATOM     24  C   UNL     1       0.779  -1.390  -1.574  0.00  0.00    +0.213 C 
ATOM     25  O   UNL     1      -0.220  -1.883  -1.095  0.00  0.00    -0.276 OA
ATOM     26  N   UNL     1       1.348  -1.944  -2.663  0.00  0.00    -0.315 N 
ATOM     27  H   UNL     1       2.147  -1.549  -3.046  0.00  0.00    +0.149 HD
BRANCH  24  28
ATOM     28  C   UNL     1       1.384  -0.158  -0.952  0.00  0.00    +0.095 C 
BRANCH  28  30
ATOM     29  C   UNL     1       1.165   1.514   0.892  0.00  0.00    +0.004 C 
ATOM     30  C   UNL     1       0.550   0.263   0.261  0.00  0.00    +0.006 C 
ENDBRANCH  28  30
ENDBRANCH  24  28
ENDBRANCH  23  26
ENDBRANCH   1  23
TORSDOF 6
