REMARK  Name = ZINC43826520
REMARK  7 active torsions:
REMARK  status: ('A' for Active; 'I' for Inactive)
REMARK    1  A    between atoms: C_3  and  O_24
REMARK    2  A    between atoms: C_6  and  C_7
REMARK    3  A    between atoms: C_8  and  C_9
REMARK    4  A    between atoms: N_11  and  C_12
REMARK    5  A    between atoms: C_17  and  C_20
REMARK    6  A    between atoms: O_24  and  C_25
REMARK    7  A    between atoms: C_25  and  C_26
REMARK                            x       y       z     vdW  Elec       q    Type
REMARK                         _______ _______ _______ _____ _____    ______ ____
ROOT
ATOM      1  C   UNL     1      -1.259  -0.759   0.011  0.00  0.00    +0.013 C 
ATOM      2  C   UNL     1      -1.238  -2.108   0.003  0.00  0.00    +0.068 C 
ENDROOT
BRANCH   1   8
ATOM      3  C   UNL     1      -0.017   1.395   0.010  0.00  0.00    +0.011 A 
ATOM      4  C   UNL     1       1.167   2.098   0.002  0.00  0.00    +0.046 A 
ATOM      5  C   UNL     1       2.380   1.419  -0.013  0.00  0.00    +0.121 A 
ATOM      6  C   UNL     1       2.405   0.029  -0.021  0.00  0.00    +0.046 A 
ATOM      7  C   UNL     1       1.226  -0.682  -0.014  0.00  0.00    +0.011 A 
ATOM      8  C   UNL     1       0.002  -0.004   0.002  0.00  0.00    -0.025 A 
BRANCH   5   9
ATOM      9  O   UNL     1       3.545   2.116  -0.020  0.00  0.00    -0.483 OA
BRANCH   9  10
ATOM     10  C   UNL     1       4.755   1.356  -0.036  0.00  0.00    +0.324 C 
BRANCH  10  11
ATOM     11  C   UNL     1       5.936   2.293  -0.042  0.00  0.00    +0.248 C 
ATOM     12  O   UNL     1       5.759   3.493  -0.034  0.00  0.00    -0.272 OA
ATOM     13  N   UNL     1       7.189   1.797  -0.057  0.00  0.00    -0.327 N 
ATOM     14  H   UNL     1       7.331   0.838  -0.063  0.00  0.00    +0.145 HD
ATOM     15  H   UNL     1       7.949   2.400  -0.061  0.00  0.00    +0.145 HD
ENDBRANCH  10  11
ENDBRANCH   9  10
ENDBRANCH   5   9
ENDBRANCH   1   8
BRANCH   2  16
ATOM     16  C   UNL     1      -2.494  -2.859   0.011  0.00  0.00    +0.237 C 
ATOM     17  O   UNL     1      -3.557  -2.267   0.025  0.00  0.00    -0.271 OA
ATOM     18  N   UNL     1      -2.473  -4.207   0.004  0.00  0.00    -0.309 N 
ATOM     19  H   UNL     1      -1.625  -4.679  -0.007  0.00  0.00    +0.149 HD
BRANCH  18  20
ATOM     20  C   UNL     1      -3.730  -4.959   0.013  0.00  0.00    +0.074 C 
ATOM     21  C   UNL     1      -4.246  -5.105  -1.420  0.00  0.00    +0.022 C 
ATOM     22  C   UNL     1      -3.210  -5.853  -2.262  0.00  0.00    +0.002 C 
ATOM     23  C   UNL     1      -2.971  -7.240  -1.662  0.00  0.00    +0.012 C 
ATOM     24  C   UNL     1      -2.454  -7.094  -0.229  0.00  0.00    +0.095 C 
ATOM     25  C   UNL     1      -3.490  -6.346   0.612  0.00  0.00    +0.034 C 
BRANCH  24  26
ATOM     26  C   UNL     1      -2.215  -8.481   0.370  0.00  0.00    +0.393 C 
ATOM     27  F   UNL     1      -1.267  -9.164  -0.399  0.00  0.00    -0.170 F 
ATOM     28  F   UNL     1      -1.742  -8.347   1.681  0.00  0.00    -0.170 F 
ATOM     29  F   UNL     1      -3.415  -9.199   0.379  0.00  0.00    -0.170 F 
ENDBRANCH  24  26
ENDBRANCH  18  20
ENDBRANCH   2  16
TORSDOF 7
