REMARK  Name = ZINC32937138
REMARK  6 active torsions:
REMARK  status: ('A' for Active; 'I' for Inactive)
REMARK    1  A    between atoms: C_1  and  C_2
REMARK    2  A    between atoms: C_2  and  C_4
REMARK    3  A    between atoms: C_2  and  N_16
REMARK    4  A    between atoms: C_17  and  C_19
REMARK    5  A    between atoms: C_21  and  C_31
REMARK    6  A    between atoms: N_22  and  C_24
REMARK                            x       y       z     vdW  Elec       q    Type
REMARK                         _______ _______ _______ _____ _____    ______ ____
ROOT
ATOM      1  N   UNL     1       3.897  -2.305   1.911  0.00  0.00    -0.303 N 
ATOM      2  C   UNL     1       4.585  -1.490   1.087  0.00  0.00    +0.265 C 
ATOM      3  O   UNL     1       5.760  -1.705   0.863  0.00  0.00    -0.268 OA
ATOM      4  H   UNL     1       2.833  -2.112   2.114  0.00  0.00    +0.150 HD
ENDROOT
BRANCH   2   5
ATOM      5  C   UNL     1       3.911  -0.337   0.457  0.00  0.00    +0.148 A 
ATOM      6  C   UNL     1       4.500   0.597  -0.422  0.00  0.00    +0.066 A 
ATOM      7  C   UNL     1       3.499   1.473  -0.748  0.00  0.00    +0.110 A 
ATOM      8  N   UNL     1       2.381   1.062  -0.074  0.00  0.00    -0.228 N 
ATOM      9  N   UNL     1       2.647   0.010   0.613  0.00  0.00    -0.161 NA
BRANCH   8  10
ATOM     10  C   UNL     1       1.131   1.691  -0.130  0.00  0.00    +0.066 A 
ATOM     11  C   UNL     1       0.405   1.899   1.035  0.00  0.00    +0.029 A 
ATOM     12  C   UNL     1      -0.830   2.514   0.976  0.00  0.00    +0.022 A 
ATOM     13  C   UNL     1      -1.339   2.932  -0.241  0.00  0.00    +0.041 A 
ATOM     14  C   UNL     1      -0.617   2.726  -1.404  0.00  0.00    +0.022 A 
ATOM     15  C   UNL     1       0.616   2.106  -1.351  0.00  0.00    +0.029 A 
ATOM     16 CL   UNL     1      -2.889   3.711  -0.311  0.00  0.00    -0.084 Cl
ENDBRANCH   8  10
BRANCH   7  17
ATOM     17  C   UNL     1       3.605   2.635  -1.647  0.00  0.00    +0.153 A 
ATOM     18  C   UNL     1       4.626   2.885  -2.512  0.00  0.00    +0.051 A 
ATOM     19  C   UNL     1       4.317   4.094  -3.166  0.00  0.00    +0.042 A 
ATOM     20  C   UNL     1       3.137   4.519  -2.673  0.00  0.00    +0.196 A 
ATOM     21  O   UNL     1       2.707   3.632  -1.760  0.00  0.00    -0.461 OA
ENDBRANCH   7  17
ENDBRANCH   2   5
BRANCH   1  23
ATOM     22  C   UNL     1       4.541  -4.641   1.577  0.00  0.00    +0.033 C 
ATOM     23  C   UNL     1       4.565  -3.449   2.536  0.00  0.00    +0.101 C 
BRANCH  23  24
ATOM     24  C   UNL     1       3.848  -3.816   3.810  0.00  0.00    -0.025 A 
ATOM     25  C   UNL     1       2.465  -3.777   3.858  0.00  0.00    +0.007 A 
ATOM     26  C   UNL     1       1.799  -4.115   5.020  0.00  0.00    +0.028 A 
ATOM     27  C   UNL     1       2.519  -4.486   6.145  0.00  0.00    +0.067 A 
ATOM     28  C   UNL     1       3.914  -4.520   6.098  0.00  0.00    +0.067 A 
ATOM     29  C   UNL     1       4.574  -4.183   4.926  0.00  0.00    +0.033 A 
ATOM     30  N   UNL     1       4.349  -4.922   7.359  0.00  0.00    -0.306 N 
ATOM     31  H   UNL     1       5.426  -5.022   7.563  0.00  0.00    +0.170 HD
ATOM     32  C   UNL     1       3.269  -5.123   8.137  0.00  0.00    +0.325 A 
ATOM     33  O   UNL     1       3.300  -5.481   9.299  0.00  0.00    -0.247 OA
ATOM     34  N   UNL     1       2.150  -4.868   7.433  0.00  0.00    -0.306 N 
ATOM     35  H   UNL     1       1.086  -4.916   7.709  0.00  0.00    +0.170 HD
ENDBRANCH  23  24
ENDBRANCH   1  23
TORSDOF 5
