REMARK  Name = ZINC06173096
REMARK  8 active torsions:
REMARK  status: ('A' for Active; 'I' for Inactive)
REMARK    1  A    between atoms: C_1  and  C_2
REMARK    2  A    between atoms: C_5  and  C_8
REMARK    3  A    between atoms: C_8  and  N_9
REMARK    4  A    between atoms: C_14  and  C_16
REMARK    5  A    between atoms: N_21  and  S_23
REMARK    6  A    between atoms: S_23  and  C_26
REMARK    7  A    between atoms: C_29  and  O_32
REMARK    8  A    between atoms: O_32  and  C_33
REMARK                            x       y       z     vdW  Elec       q    Type
REMARK                         _______ _______ _______ _____ _____    ______ ____
ROOT
ATOM      1  C   UNL     1      -1.346   2.019   0.019  0.00  0.00    +0.071 C 
ATOM      2  C   UNL     1      -1.463   2.905  -1.222  0.00  0.00    +0.014 C 
ATOM      3  C   UNL     1      -2.827   3.599  -1.230  0.00  0.00    +0.018 C 
ATOM      4  C   UNL     1      -2.950   4.488   0.012  0.00  0.00    +0.109 C 
ATOM      5  N   UNL     1      -2.696   3.670   1.206  0.00  0.00    -0.176 NA
ATOM      6  C   UNL     1      -1.453   2.889   1.275  0.00  0.00    +0.120 C 
ENDROOT
BRANCH   1  12
ATOM      7  N   UNL     1       1.508  -1.986  -0.005  0.00  0.00    -0.224 N 
ATOM      8  C   UNL     1       1.155  -0.666  -0.001  0.00  0.00    +0.164 A 
ATOM      9  C   UNL     1       2.361   0.059  -0.009  0.00  0.00    +0.195 A 
ATOM     10  C   UNL     1       2.286   1.465  -0.011  0.00  0.00    +0.303 A 
ATOM     11  N   UNL     1       1.090   2.035   0.003  0.00  0.00    -0.194 NA
ATOM     12  C   UNL     1      -0.016   1.311   0.009  0.00  0.00    +0.117 A 
ATOM     13  N   UNL     1       0.002  -0.004   0.008  0.00  0.00    -0.326 N 
ATOM     14  O   UNL     1       3.412   2.217  -0.019  0.00  0.00    -0.263 OA
ATOM     15  N   UNL     1       3.373  -0.826  -0.016  0.00  0.00    -0.122 NA
ATOM     16  N   UNL     1       2.911  -2.027  -0.015  0.00  0.00    -0.063 NA
ATOM     17  H   UNL     1      -0.860  -0.511   0.013  0.00  0.00    +0.169 HD
BRANCH   7  18
ATOM     18  C   UNL     1       0.600  -3.135   0.000  0.00  0.00    +0.182 C 
BRANCH  18  23
ATOM     19  C   UNL     1      -0.634  -4.639  -5.441  0.00  0.00    +0.044 C 
ATOM     20  C   UNL     1      -0.313  -4.248  -4.022  0.00  0.00    -0.050 A 
ATOM     21  C   UNL     1       0.774  -4.810  -3.379  0.00  0.00    +0.004 A 
ATOM     22  C   UNL     1       1.069  -4.450  -2.077  0.00  0.00    +0.006 A 
ATOM     23  C   UNL     1       0.278  -3.528  -1.419  0.00  0.00    -0.026 A 
ATOM     24  C   UNL     1      -0.812  -2.969  -2.060  0.00  0.00    +0.006 A 
ATOM     25  C   UNL     1      -1.105  -3.326  -3.363  0.00  0.00    +0.004 A 
ENDBRANCH  18  23
ENDBRANCH   7  18
ENDBRANCH   1  12
BRANCH   5  26
ATOM     26  S   UNL     1      -3.788   3.629   2.449  0.00  0.00    +0.061 S 
ATOM     27  O   UNL     1      -5.049   3.980   1.894  0.00  0.00    -0.153 OA
ATOM     28  O   UNL     1      -3.573   2.406   3.139  0.00  0.00    -0.153 OA
BRANCH  26  29
ATOM     29  C   UNL     1      -3.354   4.920   3.567  0.00  0.00    +0.106 A 
ATOM     30  C   UNL     1      -2.479   4.668   4.607  0.00  0.00    +0.032 A 
ATOM     31  C   UNL     1      -2.132   5.680   5.481  0.00  0.00    +0.048 A 
ATOM     32  C   UNL     1      -2.672   6.947   5.322  0.00  0.00    +0.130 A 
ATOM     33  C   UNL     1      -3.555   7.197   4.281  0.00  0.00    +0.048 A 
ATOM     34  C   UNL     1      -3.894   6.183   3.406  0.00  0.00    +0.032 A 
BRANCH  32  35
ATOM     35  O   UNL     1      -2.337   7.943   6.183  0.00  0.00    -0.406 OA
BRANCH  35  36
ATOM     36  C   UNL     1      -1.423   7.614   7.231  0.00  0.00    +0.575 C 
ATOM     37  F   UNL     1      -0.216   7.175   6.676  0.00  0.00    -0.133 F 
ATOM     38  F   UNL     1      -1.189   8.746   8.019  0.00  0.00    -0.133 F 
ATOM     39  F   UNL     1      -1.968   6.599   8.024  0.00  0.00    -0.133 F 
ENDBRANCH  35  36
ENDBRANCH  32  35
ENDBRANCH  26  29
ENDBRANCH   5  26
TORSDOF 7
