REMARK  Name = ZINC23531077
REMARK  8 active torsions:
REMARK  status: ('A' for Active; 'I' for Inactive)
REMARK    1  A    between atoms: C_1  and  C_2
REMARK    2  A    between atoms: C_2  and  C_4
REMARK    3  A    between atoms: C_9  and  N_10
REMARK    4  A    between atoms: C_11  and  C_13
REMARK    5  A    between atoms: C_13  and  O_14
REMARK    6  A    between atoms: O_14  and  C_15
REMARK    7  A    between atoms: C_15  and  C_17
REMARK    8  A    between atoms: C_17  and  C_22
REMARK                            x       y       z     vdW  Elec       q    Type
REMARK                         _______ _______ _______ _____ _____    ______ ____
ROOT
ATOM      1  N   UNL     1      -0.964   4.866  -5.881  0.00  0.00    -0.282 N 
ATOM      2  C   UNL     1      -1.347   4.375  -4.686  0.00  0.00    +0.255 C 
ATOM      3  O   UNL     1      -2.514   4.114  -4.484  0.00  0.00    -0.272 OA
ATOM      4  H   UNL     1       0.104   5.014  -6.098  0.00  0.00    +0.155 HD
ENDROOT
BRANCH   1  10
ATOM      5  C   UNL     1      -1.792   6.364  -7.601  0.00  0.00    +0.042 A 
ATOM      6  C   UNL     1      -2.756   6.674  -8.570  0.00  0.00    +0.062 A 
ATOM      7  C   UNL     1      -3.831   5.833  -8.765  0.00  0.00    +0.167 A 
ATOM      8  C   UNL     1      -3.958   4.667  -8.004  0.00  0.00    +0.168 A 
ATOM      9  C   UNL     1      -3.005   4.350  -7.049  0.00  0.00    +0.073 A 
ATOM     10  C   UNL     1      -1.921   5.187  -6.842  0.00  0.00    +0.048 A 
ATOM     11  O   UNL     1      -5.095   4.020  -8.389  0.00  0.00    -0.453 OA
ATOM     12  C   UNL     1      -5.444   4.580  -9.668  0.00  0.00    +0.466 C 
ATOM     13  O   UNL     1      -4.891   5.909  -9.624  0.00  0.00    -0.453 OA
BRANCH   5  15
ATOM     14  C   UNL     1      -0.477   8.479  -8.250  0.00  0.00    +0.091 C 
ATOM     15  C   UNL     1      -0.652   7.258  -7.385  0.00  0.00    +0.162 C 
ATOM     16  O   UNL     1       0.152   7.015  -6.508  0.00  0.00    -0.292 OA
ENDBRANCH   5  15
ENDBRANCH   1  10
BRANCH   2  17
ATOM     17  C   UNL     1      -0.326   4.150  -3.601  0.00  0.00    +0.328 C 
BRANCH  17  18
ATOM     18  O   UNL     1      -0.983   3.619  -2.420  0.00  0.00    -0.455 OA
BRANCH  18  19
ATOM     19  C   UNL     1      -0.208   3.362  -1.355  0.00  0.00    +0.318 C 
ATOM     20  O   UNL     1       0.981   3.572  -1.408  0.00  0.00    -0.250 OA
BRANCH  19  21
ATOM     21  C   UNL     1      -0.820   2.809  -0.094  0.00  0.00    +0.093 C 
ATOM     22  C   UNL     1       0.269   2.602   0.973  0.00  0.00    +0.023 C 
ATOM     23  C   UNL     1      -0.110   3.496   2.172  0.00  0.00    +0.001 C 
ATOM     24  C   UNL     1      -1.005   4.599   1.553  0.00  0.00    +0.001 C 
ATOM     25  C   UNL     1      -1.825   3.822   0.494  0.00  0.00    +0.023 C 
BRANCH  21  26
ATOM     26  C   UNL     1      -1.514   1.504  -0.384  0.00  0.00    -0.031 A 
ATOM     27  C   UNL     1      -2.278   0.895   0.594  0.00  0.00    +0.006 A 
ATOM     28  C   UNL     1      -2.919  -0.300   0.326  0.00  0.00    +0.020 A 
ATOM     29  C   UNL     1      -2.786  -0.893  -0.917  0.00  0.00    +0.041 A 
ATOM     30  C   UNL     1      -2.017  -0.286  -1.894  0.00  0.00    +0.020 A 
ATOM     31  C   UNL     1      -1.381   0.912  -1.627  0.00  0.00    +0.006 A 
ATOM     32 CL   UNL     1      -3.586  -2.397  -1.252  0.00  0.00    -0.084 Cl
ENDBRANCH  21  26
ENDBRANCH  19  21
ENDBRANCH  18  19
ENDBRANCH  17  18
ENDBRANCH   2  17
TORSDOF 7
