REMARK  Name = ZINC58142397
REMARK  6 active torsions:
REMARK  status: ('A' for Active; 'I' for Inactive)
REMARK    1  A    between atoms: C_1  and  C_2
REMARK    2  A    between atoms: C_2  and  C_3
REMARK    3  A    between atoms: C_2  and  C_4
REMARK    4  A    between atoms: C_12  and  C_16
REMARK    5  A    between atoms: C_16  and  C_18
REMARK    6  A    between atoms: C_16  and  N_24
REMARK                            x       y       z     vdW  Elec       q    Type
REMARK                         _______ _______ _______ _____ _____    ______ ____
ROOT
ATOM      1  C   UNL     1      -1.384  -0.584   0.118  0.00  0.00    +0.218 C 
ATOM      2  O   UNL     1      -1.693  -1.223   1.102  0.00  0.00    -0.275 OA
ATOM      3  N   UNL     1      -2.284  -0.381  -0.864  0.00  0.00    -0.297 N 
ATOM      4  C   UNL     1      -3.678  -0.835  -0.731  0.00  0.00    +0.113 C 
ATOM      5  C   UNL     1      -4.576   0.401  -0.729  0.00  0.00    +0.054 C 
ATOM      6  C   UNL     1      -4.206   1.334  -1.851  0.00  0.00    -0.041 A 
ATOM      7  C   UNL     1      -5.157   2.264  -2.257  0.00  0.00    +0.004 A 
ATOM      8  C   UNL     1      -4.879   3.154  -3.273  0.00  0.00    +0.002 A 
ATOM      9  C   UNL     1      -3.644   3.125  -3.894  0.00  0.00    -0.059 A 
ATOM     10  C   UNL     1      -2.700   2.201  -3.496  0.00  0.00    +0.007 A 
ATOM     11  C   UNL     1      -2.980   1.300  -2.477  0.00  0.00    -0.027 A 
ATOM     12  C   UNL     1      -1.915   0.305  -2.107  0.00  0.00    +0.143 C 
ENDROOT
BRANCH   1  14
ATOM     13  C   UNL     1       0.067   1.343   0.695  0.00  0.00    +0.017 C 
ATOM     14  C   UNL     1       0.007  -0.016  -0.005  0.00  0.00    +0.069 C 
ATOM     15  C   UNL     1       1.007  -0.972   0.649  0.00  0.00    +0.017 C 
ENDBRANCH   1  14
BRANCH   9  16
ATOM     16  C   UNL     1      -3.331   4.098  -5.002  0.00  0.00    -0.015 C 
BRANCH  16  17
ATOM     17  C   UNL     1      -3.955   3.602  -6.308  0.00  0.00    +0.108 C 
ATOM     18  C   UNL     1      -3.643   4.595  -7.447  0.00  0.00    +0.032 C 
ATOM     19  C   UNL     1      -4.976   4.611  -8.245  0.00  0.00    +0.030 C 
ATOM     20  C   UNL     1      -6.005   4.431  -7.101  0.00  0.00    +0.160 C 
ATOM     21  O   UNL     1      -5.379   3.532  -6.169  0.00  0.00    -0.378 OA
ENDBRANCH  16  17
BRANCH  16  22
ATOM     22  N   UNL     1      -3.882   5.417  -4.665  0.00  0.00    +0.384 N 
ATOM     23  H   UNL     1      -3.470   5.744  -3.804  0.00  0.00    -0.089 HD
ATOM     24  H   UNL     1      -3.673   6.068  -5.407  0.00  0.00    -0.089 HD
ATOM     25  H   UNL     1      -4.883   5.345  -4.553  0.00  0.00    -0.089 HD
ENDBRANCH  16  22
ENDBRANCH   9  16
TORSDOF 4
