REMARK  Name = ZINC64481906
REMARK  6 active torsions:
REMARK  status: ('A' for Active; 'I' for Inactive)
REMARK    1  A    between atoms: C_1  and  C_2
REMARK    2  A    between atoms: C_2  and  C_3
REMARK    3  A    between atoms: C_3  and  O_4
REMARK    4  A    between atoms: O_4  and  C_5
REMARK    5  A    between atoms: C_10  and  C_11
REMARK    6  A    between atoms: C_20  and  C_23
REMARK                            x       y       z     vdW  Elec       q    Type
REMARK                         _______ _______ _______ _____ _____    ______ ____
ROOT
ATOM      1  C   UNL     1      -1.398  -4.787  -0.010  0.00  0.00    +0.063 C 
ATOM      2  C   UNL     1      -1.344  -5.718   1.213  0.00  0.00    +0.108 C 
ATOM      3  C   UNL     1      -2.103  -6.985   0.987  0.00  0.00    +0.216 C 
ATOM      4  O   UNL     1      -2.396  -7.614   1.982  0.00  0.00    -0.276 OA
ATOM      5  N   UNL     1      -2.498  -7.511  -0.175  0.00  0.00    -0.289 N 
ATOM      6  C   UNL     1      -2.429  -6.764  -1.423  0.00  0.00    +0.243 C 
ATOM      7  C   UNL     1      -1.367  -5.684  -1.215  0.00  0.00    +0.005 C 
ATOM      8  C   UNL     1      -0.561  -5.806  -2.243  0.00  0.00    +0.064 C 
ATOM      9  N   UNL     1      -0.893  -6.901  -2.973  0.00  0.00    -0.157 NA
ATOM     10  N   UNL     1      -1.909  -7.517  -2.561  0.00  0.00    -0.160 NA
ATOM     11  C   UNL     1       0.570  -4.864  -2.567  0.00  0.00    +0.067 C 
ATOM     12  H   UNL     1      -2.843  -8.417  -0.188  0.00  0.00    +0.151 HD
ENDROOT
BRANCH   1  18
ATOM     13  C   UNL     1      -2.616  -2.596   0.013  0.00  0.00    +0.124 A 
ATOM     14  C   UNL     1      -3.791  -1.857   0.022  0.00  0.00    +0.046 A 
ATOM     15  C   UNL     1      -5.012  -2.503   0.030  0.00  0.00    +0.004 A 
ATOM     16  C   UNL     1      -5.064  -3.885   0.029  0.00  0.00    +0.001 A 
ATOM     17  C   UNL     1      -3.895  -4.623   0.020  0.00  0.00    +0.008 A 
ATOM     18  C   UNL     1      -2.671  -3.982   0.006  0.00  0.00    +0.002 A 
BRANCH  13  19
ATOM     19  O   UNL     1      -1.414  -1.962   0.005  0.00  0.00    -0.492 OA
BRANCH  19  20
ATOM     20  C   UNL     1      -1.433  -0.534   0.013  0.00  0.00    +0.229 C 
BRANCH  20  22
ATOM     21  C   UNL     1      -0.019   1.526   0.010  0.00  0.00    +0.007 C 
ATOM     22  C   UNL     1       0.002  -0.004   0.002  0.00  0.00    +0.038 C 
ENDBRANCH  20  22
ENDBRANCH  19  20
ENDBRANCH  13  19
ENDBRANCH   1  18
TORSDOF 4
