REMARK  Name = ZINC06816445
REMARK  6 active torsions:
REMARK  status: ('A' for Active; 'I' for Inactive)
REMARK    1  A    between atoms: C_4  and  C_7
REMARK    2  A    between atoms: C_7  and  C_9
REMARK    3  A    between atoms: C_7  and  S_21
REMARK    4  A    between atoms: C_9  and  C_11
REMARK    5  A    between atoms: S_21  and  C_22
REMARK    6  A    between atoms: N_26  and  C_27
REMARK                            x       y       z     vdW  Elec       q    Type
REMARK                         _______ _______ _______ _____ _____    ______ ____
ROOT
ATOM      1  C   UNL     1       4.061   5.118  -2.757  0.00  0.00    +0.155 C 
ENDROOT
BRANCH   1   5
ATOM      2  C   UNL     1       4.702   8.050   0.283  0.00  0.00    +0.000 A 
ATOM      3  C   UNL     1       5.771   7.335  -0.223  0.00  0.00    +0.000 A 
ATOM      4  C   UNL     1       5.564   6.386  -1.207  0.00  0.00    +0.005 A 
ATOM      5  C   UNL     1       4.287   6.152  -1.684  0.00  0.00    -0.027 A 
ATOM      6  C   UNL     1       3.219   6.871  -1.181  0.00  0.00    +0.005 A 
ATOM      7  C   UNL     1       3.426   7.817  -0.194  0.00  0.00    +0.000 A 
ENDBRANCH   1   5
BRANCH   1   8
ATOM      8  C   UNL     1       3.456   5.776  -3.969  0.00  0.00    +0.183 C 
ATOM      9  O   UNL     1       2.251   5.777  -4.122  0.00  0.00    -0.290 OA
BRANCH   8  10
ATOM     10  C   UNL     1       4.292   6.395  -4.932  0.00  0.00    +0.044 A 
ATOM     11  C   UNL     1       5.667   6.483  -4.899  0.00  0.00    +0.095 A 
ATOM     12  N   UNL     1       6.104   7.141  -5.990  0.00  0.00    -0.360 N 
ATOM     13  H   UNL     1       7.036   7.324  -6.188  0.00  0.00    +0.165 HD
ATOM     14  C   UNL     1       5.044   7.524  -6.787  0.00  0.00    +0.047 A 
ATOM     15  C   UNL     1       3.865   7.080  -6.168  0.00  0.00    +0.010 A 
ATOM     16  C   UNL     1       2.629   7.330  -6.757  0.00  0.00    +0.011 A 
ATOM     17  C   UNL     1       2.569   8.016  -7.951  0.00  0.00    +0.001 A 
ATOM     18  C   UNL     1       3.732   8.457  -8.564  0.00  0.00    +0.002 A 
ATOM     19  C   UNL     1       4.962   8.216  -7.991  0.00  0.00    +0.026 A 
ENDBRANCH   8  10
ENDBRANCH   1   8
BRANCH   1  20
ATOM     20  S   UNL     1       2.937   3.842  -2.137  0.00  0.00    -0.070 S 
BRANCH  20  21
ATOM     21  C   UNL     1       3.931   3.154  -0.855  0.00  0.00    +0.197 A 
ATOM     22  N   UNL     1       5.142   3.532  -0.518  0.00  0.00    -0.122 NA
ATOM     23  N   UNL     1       5.569   2.814   0.458  0.00  0.00    -0.137 NA
ATOM     24  C   UNL     1       4.662   1.945   0.805  0.00  0.00    +0.230 A 
ATOM     25  N   UNL     1       3.586   2.125  -0.022  0.00  0.00    -0.277 N 
BRANCH  25  26
ATOM     26  C   UNL     1       2.381   1.409  -0.014  0.00  0.00    +0.050 A 
ATOM     27  C   UNL     1       1.169   2.087   0.002  0.00  0.00    +0.026 A 
ATOM     28  C   UNL     1      -0.017   1.379   0.010  0.00  0.00    +0.002 A 
ATOM     29  C   UNL     1       0.002  -0.004   0.002  0.00  0.00    +0.000 A 
ATOM     30  C   UNL     1       1.207  -0.682  -0.013  0.00  0.00    +0.002 A 
ATOM     31  C   UNL     1       2.396   0.021  -0.021  0.00  0.00    +0.026 A 
ENDBRANCH  25  26
ENDBRANCH  20  21
ENDBRANCH   1  20
TORSDOF 6
