REMARK  Name = ZINC01930636
REMARK  8 active torsions:
REMARK  status: ('A' for Active; 'I' for Inactive)
REMARK    1  A    between atoms: C_1  and  C_2
REMARK    2  A    between atoms: C_9  and  N_18
REMARK    3  A    between atoms: C_10  and  C_11
REMARK    4  A    between atoms: N_13  and  C_14
REMARK    5  A    between atoms: C_14  and  C_15
REMARK    6  A    between atoms: C_15  and  C_16
REMARK    7  A    between atoms: C_16  and  O_17
REMARK    8  A    between atoms: C_19  and  C_21
REMARK                            x       y       z     vdW  Elec       q    Type
REMARK                         _______ _______ _______ _____ _____    ______ ____
ROOT
ATOM      1  C   UNL     1      -0.019   1.526   0.010  0.00  0.00    +0.008 C 
ATOM      2  C   UNL     1       0.002  -0.004   0.002  0.00  0.00    -0.009 C 
ATOM      3  C   UNL     1       0.742  -0.514   1.242  0.00  0.00    +0.008 C 
ATOM      4  C   UNL     1       0.557  -2.027   1.373  0.00  0.00    +0.037 C 
ATOM      5  C   UNL     1       0.941  -2.684   0.053  0.00  0.00    -0.023 A 
ATOM      6  C   UNL     1       1.008  -1.966  -1.089  0.00  0.00    -0.004 A 
ATOM      7  S   UNL     1       1.484  -3.133  -2.331  0.00  0.00    -0.077 S 
ATOM      8  C   UNL     1       1.592  -4.557  -1.350  0.00  0.00    +0.085 A 
ATOM      9  C   UNL     1       1.258  -4.096  -0.085  0.00  0.00    +0.069 A 
ATOM     10  C   UNL     1       0.736  -0.502  -1.252  0.00  0.00    +0.046 C 
ENDROOT
BRANCH   9  11
ATOM     11  C   UNL     1       1.226  -4.998   1.070  0.00  0.00    +0.247 C 
ATOM     12  O   UNL     1       0.198  -5.582   1.358  0.00  0.00    -0.270 OA
ATOM     13  N   UNL     1       2.336  -5.182   1.813  0.00  0.00    -0.311 N 
ATOM     14  H   UNL     1       3.156  -4.716   1.583  0.00  0.00    +0.149 HD
BRANCH  13  15
ATOM     15  C   UNL     1       2.304  -6.084   2.967  0.00  0.00    +0.107 C 
BRANCH  15  16
ATOM     16  C   UNL     1       3.683  -6.111   3.630  0.00  0.00    +0.046 C 
BRANCH  16  17
ATOM     17  C   UNL     1       3.650  -7.053   4.835  0.00  0.00    +0.157 C 
BRANCH  17  18
ATOM     18  O   UNL     1       4.937  -7.079   5.455  0.00  0.00    -0.395 OA
ATOM     19  H   UNL     1       4.990  -7.658   6.228  0.00  0.00    +0.209 HD
ENDBRANCH  17  18
ENDBRANCH  16  17
ENDBRANCH  15  16
ENDBRANCH  13  15
ENDBRANCH   9  11
BRANCH   8  20
ATOM     20  N   UNL     1       1.929  -5.845  -1.736  0.00  0.00    -0.275 N 
ATOM     21  C   UNL     1       2.227  -6.106  -3.024  0.00  0.00    +0.249 C 
ATOM     22  O   UNL     1       2.198  -5.213  -3.848  0.00  0.00    -0.270 OA
ATOM     23  H   UNL     1       1.952  -6.558  -1.079  0.00  0.00    +0.156 HD
BRANCH  21  24
ATOM     24  C   UNL     1       2.587  -7.479  -3.435  0.00  0.00    +0.037 A 
ATOM     25  C   UNL     1       2.626  -8.507  -2.491  0.00  0.00    +0.013 A 
ATOM     26  C   UNL     1       2.958  -9.787  -2.882  0.00  0.00    +0.001 A 
ATOM     27  C   UNL     1       3.263 -10.052  -4.205  0.00  0.00    +0.000 A 
ATOM     28  C   UNL     1       3.231  -9.038  -5.146  0.00  0.00    +0.001 A 
ATOM     29  C   UNL     1       2.895  -7.754  -4.769  0.00  0.00    +0.013 A 
ENDBRANCH  21  24
ENDBRANCH   8  20
TORSDOF 7
