REMARK  Name = ZINC03670043
REMARK  9 active torsions:
REMARK  status: ('A' for Active; 'I' for Inactive)
REMARK    1  A    between atoms: C_1  and  C_2
REMARK    2  A    between atoms: C_4  and  C_29
REMARK    3  A    between atoms: C_6  and  S_8
REMARK    4  A    between atoms: S_8  and  C_9
REMARK    5  A    between atoms: C_9  and  C_10
REMARK    6  A    between atoms: C_10  and  C_11
REMARK    7  A    between atoms: C_11  and  C_12
REMARK    8  A    between atoms: N_14  and  C_15
REMARK    9  A    between atoms: C_16  and  C_26
REMARK                            x       y       z     vdW  Elec       q    Type
REMARK                         _______ _______ _______ _____ _____    ______ ____
ROOT
ATOM      1  C   UNL     1       0.062  -1.649   7.747  0.00  0.00    +0.218 C 
ATOM      2  O   UNL     1       0.080  -2.854   7.879  0.00  0.00    -0.275 OA
ATOM      3  N   UNL     1       0.056  -0.852   8.833  0.00  0.00    -0.279 N 
ATOM      4  H   UNL     1       0.042   0.112   8.727  0.00  0.00    +0.155 HD
ENDROOT
BRANCH   3   5
ATOM      5  C   UNL     1       0.070  -1.410  10.103  0.00  0.00    +0.084 A 
ATOM      6  C   UNL     1       0.061  -0.757  11.319  0.00  0.00    +0.068 A 
ATOM      7  C   UNL     1       0.085  -1.572  12.539  0.00  0.00    -0.023 A 
ATOM      8  C   UNL     1       0.140  -2.891  12.284  0.00  0.00    -0.004 A 
ATOM      9  S   UNL     1       0.094  -3.034  10.517  0.00  0.00    -0.077 S 
ATOM     10  C   UNL     1       0.272  -4.024  13.262  0.00  0.00    +0.043 C 
ATOM     11  C   UNL     1       1.751  -4.091  13.684  0.00  0.00    +0.005 C 
ATOM     12  C   UNL     1       2.167  -2.705  14.191  0.00  0.00    +0.000 C 
ATOM     13  C   UNL     1       1.292  -2.432  15.397  0.00  0.00    +0.000 C 
ATOM     14  C   UNL     1      -0.079  -1.881  15.048  0.00  0.00    +0.005 C 
ATOM     15  C   UNL     1      -0.019  -0.884  13.896  0.00  0.00    +0.037 C 
BRANCH   6  16
ATOM     16  C   UNL     1       0.030   0.707  11.389  0.00  0.00    +0.244 C 
ATOM     17  O   UNL     1      -1.036   1.292  11.423  0.00  0.00    -0.270 OA
ATOM     18  N   UNL     1       1.183   1.405  11.416  0.00  0.00    -0.325 N 
ATOM     19  H   UNL     1       2.033   0.939  11.389  0.00  0.00    +0.145 HD
ATOM     20  H   UNL     1       1.162   2.374  11.463  0.00  0.00    +0.145 HD
ENDBRANCH   6  16
ENDBRANCH   3   5
BRANCH   1  21
ATOM     21  C   UNL     1       0.047  -1.043   6.367  0.00  0.00    +0.097 C 
BRANCH  21  22
ATOM     22  C   UNL     1       0.058  -2.158   5.320  0.00  0.00    +0.020 C 
BRANCH  22  23
ATOM     23  C   UNL     1       0.042  -1.542   3.919  0.00  0.00    +0.078 C 
BRANCH  23  24
ATOM     24  S   UNL     1       0.055  -2.865   2.677  0.00  0.00    -0.086 S 
BRANCH  24  30
ATOM     25  C   UNL     1      -0.018   1.503   0.010  0.00  0.00    +0.066 C 
ATOM     26  C   UNL     1       0.002  -0.004   0.002  0.00  0.00    +0.043 A 
ATOM     27  C   UNL     1       0.006  -0.699  -1.198  0.00  0.00    +0.055 A 
ATOM     28  C   UNL     1       0.025  -2.084  -1.161  0.00  0.00    +0.148 A 
ATOM     29  N   UNL     1       0.040  -2.699   0.010  0.00  0.00    -0.218 NA
ATOM     30  C   UNL     1       0.035  -2.005   1.139  0.00  0.00    +0.189 A 
ATOM     31  N   UNL     1       0.022  -0.679   1.139  0.00  0.00    -0.227 NA
BRANCH  28  32
ATOM     32  C   UNL     1       0.030  -2.881  -2.440  0.00  0.00    +0.434 C 
ATOM     33  F   UNL     1       1.350  -3.109  -2.843  0.00  0.00    -0.164 F 
ATOM     34  F   UNL     1      -0.612  -4.106  -2.229  0.00  0.00    -0.164 F 
ATOM     35  F   UNL     1      -0.645  -2.167  -3.437  0.00  0.00    -0.164 F 
ENDBRANCH  28  32
ENDBRANCH  24  30
ENDBRANCH  23  24
ENDBRANCH  22  23
ENDBRANCH  21  22
ENDBRANCH   1  21
TORSDOF 8
