REMARK  Name = ZINC35057168
REMARK  9 active torsions:
REMARK  status: ('A' for Active; 'I' for Inactive)
REMARK    1  A    between atoms: C_1  and  C_2
REMARK    2  A    between atoms: C_2  and  C_4
REMARK    3  A    between atoms: C_2  and  O_7
REMARK    4  A    between atoms: O_7  and  C_8
REMARK    5  A    between atoms: C_10  and  N_41
REMARK    6  A    between atoms: C_12  and  O_30
REMARK    7  A    between atoms: C_20  and  C_24
REMARK    8  A    between atoms: O_30  and  C_31
REMARK    9  A    between atoms: C_42  and  C_44
REMARK                            x       y       z     vdW  Elec       q    Type
REMARK                         _______ _______ _______ _____ _____    ______ ____
ROOT
ATOM      1  C   UNL     1      -0.230  -0.505   2.621  0.00  0.00    +0.177 C 
ATOM      2  C   UNL     1      -0.950  -1.809   2.987  0.00  0.00    +0.173 C 
ATOM      3  C   UNL     1      -1.637  -1.654   4.345  0.00  0.00    +0.331 C 
ATOM      4  O   UNL     1      -0.680  -1.270   5.337  0.00  0.00    -0.332 OA
ATOM      5  C   UNL     1      -0.041  -0.027   5.055  0.00  0.00    +0.179 C 
ATOM      6  C   UNL     1       0.746  -0.154   3.744  0.00  0.00    +0.183 C 
ATOM      7  O   UNL     1       1.407   1.084   3.484  0.00  0.00    -0.339 OA
ATOM      8  C   UNL     1       2.309   1.468   4.528  0.00  0.00    +0.282 C 
ATOM      9  O   UNL     1       1.610   1.569   5.769  0.00  0.00    -0.345 OA
ATOM     10  C   UNL     1       0.935   0.359   6.167  0.00  0.00    +0.197 C 
ENDROOT
BRANCH   8  11
ATOM     11  C   UNL     1       3.397   0.433   4.654  0.00  0.00    +0.008 A 
ATOM     12  C   UNL     1       3.826  -0.258   3.536  0.00  0.00    +0.008 A 
ATOM     13  C   UNL     1       4.824  -1.208   3.651  0.00  0.00    +0.000 A 
ATOM     14  C   UNL     1       5.393  -1.466   4.884  0.00  0.00    +0.000 A 
ATOM     15  C   UNL     1       4.965  -0.774   6.001  0.00  0.00    +0.000 A 
ATOM     16  C   UNL     1       3.970   0.178   5.886  0.00  0.00    +0.008 A 
ENDBRANCH   8  11
BRANCH   2  17
ATOM     17  N   UNL     1      -1.954  -2.115   1.965  0.00  0.00    -0.304 N 
ATOM     18  C   UNL     1      -2.311  -3.394   1.734  0.00  0.00    +0.210 C 
ATOM     19  O   UNL     1      -1.801  -4.291   2.371  0.00  0.00    -0.276 OA
ATOM     20  C   UNL     1      -3.344  -3.709   0.682  0.00  0.00    +0.109 C 
ATOM     21  H   UNL     1      -2.361  -1.398   1.456  0.00  0.00    +0.149 HD
ENDBRANCH   2  17
BRANCH   1  22
ATOM     22  O   UNL     1       0.488  -0.679   1.398  0.00  0.00    -0.358 OA
BRANCH  22  24
ATOM     23  C   UNL     1       0.270   1.342   0.092  0.00  0.00    +0.050 C 
ATOM     24  C   UNL     1      -0.162  -0.116   0.257  0.00  0.00    +0.228 C 
BRANCH  24  25
ATOM     25  C   UNL     1       0.220  -0.896  -0.975  0.00  0.00    +0.384 C 
ATOM     26  O   UNL     1       1.048  -1.787  -0.899  0.00  0.00    -0.243 OA
ATOM     27  O   UNL     1      -0.299  -0.635  -2.047  0.00  0.00    -0.243 OA
ENDBRANCH  24  25
ENDBRANCH  22  24
ENDBRANCH   1  22
BRANCH   3  28
ATOM     28  O   UNL     1      -2.650  -0.650   4.252  0.00  0.00    -0.462 OA
BRANCH  28  29
ATOM     29  C   UNL     1      -3.431  -0.460   5.347  0.00  0.00    +0.125 A 
ATOM     30  C   UNL     1      -3.213  -1.231   6.493  0.00  0.00    +0.046 A 
ATOM     31  C   UNL     1      -3.979  -1.063   7.605  0.00  0.00    +0.012 A 
ATOM     32  C   UNL     1      -5.005  -0.101   7.606  0.00  0.00    -0.018 A 
ATOM     33  C   UNL     1      -5.814   0.099   8.737  0.00  0.00    +0.008 A 
ATOM     34  C   UNL     1      -6.798   1.038   8.704  0.00  0.00    +0.001 A 
ATOM     35  C   UNL     1      -7.017   1.808   7.563  0.00  0.00    +0.001 A 
ATOM     36  C   UNL     1      -6.253   1.642   6.449  0.00  0.00    +0.008 A 
ATOM     37  C   UNL     1      -5.227   0.681   6.446  0.00  0.00    -0.014 A 
ATOM     38  C   UNL     1      -4.416   0.486   5.316  0.00  0.00    +0.054 A 
ENDBRANCH  28  29
ENDBRANCH   3  28
TORSDOF 7
