REMARK  Name = ZINC14141990
REMARK  6 active torsions:
REMARK  status: ('A' for Active; 'I' for Inactive)
REMARK    1  A    between atoms: C_1  and  C_2
REMARK    2  A    between atoms: C_2  and  C_4
REMARK    3  A    between atoms: C_2  and  O_19
REMARK    4  A    between atoms: N_6  and  N_7
REMARK    5  A    between atoms: O_19  and  C_20
REMARK    6  A    between atoms: C_23  and  C_26
REMARK                            x       y       z     vdW  Elec       q    Type
REMARK                         _______ _______ _______ _____ _____    ______ ____
ROOT
ATOM      1  C   UNL     1      -0.012   1.031   0.158  0.00  0.00    +0.270 C 
ATOM      2  O   UNL     1       0.079  -0.161  -0.045  0.00  0.00    -0.270 OA
ATOM      3  N   UNL     1      -1.224   1.593   0.336  0.00  0.00    -0.221 N 
ATOM      4  H   UNL     1      -1.297   2.547   0.498  0.00  0.00    +0.174 HD
ENDROOT
BRANCH   3   5
ATOM      5  N   UNL     1      -2.378   0.801   0.286  0.00  0.00    -0.137 N 
ATOM      6  C   UNL     1      -3.091   0.430   1.369  0.00  0.00    +0.263 C 
ATOM      7  O   UNL     1      -2.865   0.708   2.527  0.00  0.00    -0.271 OA
ATOM      8  C   UNL     1      -4.232  -0.406   0.836  0.00  0.00    +0.114 C 
ATOM      9  C   UNL     1      -5.570   0.243   1.175  0.00  0.00    +0.035 C 
ATOM     10  C   UNL     1      -6.710  -0.602   0.602  0.00  0.00    +0.003 C 
ATOM     11  C   UNL     1      -6.644  -2.013   1.192  0.00  0.00    +0.000 C 
ATOM     12  C   UNL     1      -5.307  -2.659   0.822  0.00  0.00    +0.003 C 
ATOM     13  C   UNL     1      -4.161  -1.822   1.396  0.00  0.00    +0.035 C 
ATOM     14  N   UNL     1      -4.018  -0.415  -0.617  0.00  0.00    -0.284 N 
ATOM     15  C   UNL     1      -2.914   0.322  -0.844  0.00  0.00    +0.326 C 
ATOM     16  O   UNL     1      -2.453   0.526  -1.950  0.00  0.00    -0.251 OA
ATOM     17  H   UNL     1      -4.566  -0.860  -1.282  0.00  0.00    +0.151 HD
ENDBRANCH   3   5
BRANCH   1  19
ATOM     18  C   UNL     1       1.151   2.959  -0.881  0.00  0.00    +0.062 C 
ATOM     19  C   UNL     1       1.229   1.885   0.206  0.00  0.00    +0.257 C 
BRANCH  19  20
ATOM     20  O   UNL     1       2.379   1.066  -0.015  0.00  0.00    -0.480 OA
BRANCH  20  21
ATOM     21  C   UNL     1       3.559   1.512   0.487  0.00  0.00    +0.122 A 
ATOM     22  C   UNL     1       4.691   0.710   0.413  0.00  0.00    +0.047 A 
ATOM     23  C   UNL     1       5.891   1.161   0.916  0.00  0.00    +0.022 A 
ATOM     24  C   UNL     1       5.967   2.423   1.512  0.00  0.00    +0.052 A 
ATOM     25  C   UNL     1       4.824   3.224   1.590  0.00  0.00    +0.022 A 
ATOM     26  C   UNL     1       3.629   2.767   1.080  0.00  0.00    +0.047 A 
BRANCH  24  27
ATOM     27  C   UNL     1       7.211   2.893   2.042  0.00  0.00    +0.099 C 
ATOM     28  N   UNL     1       8.198   3.267   2.461  0.00  0.00    -0.191 NA
ENDBRANCH  24  27
ENDBRANCH  20  21
ENDBRANCH  19  20
ENDBRANCH   1  19
TORSDOF 5
