REMARK  Name = ZINC12486910
REMARK  9 active torsions:
REMARK  status: ('A' for Active; 'I' for Inactive)
REMARK    1  A    between atoms: C_4  and  C_7
REMARK    2  A    between atoms: C_7  and  C_9
REMARK    3  A    between atoms: C_7  and  N_18
REMARK    4  A    between atoms: N_11  and  C_12
REMARK    5  A    between atoms: C_12  and  C_13
REMARK    6  A    between atoms: N_18  and  C_19
REMARK    7  A    between atoms: C_28  and  C_30
REMARK    8  A    between atoms: C_30  and  N_31
REMARK    9  A    between atoms: C_32  and  C_34
REMARK                            x       y       z     vdW  Elec       q    Type
REMARK                         _______ _______ _______ _____ _____    ______ ____
ROOT
ATOM      1  N   UNL     1       3.463   3.263  -0.963  0.00  0.00    -0.254 N 
ATOM      2  C   UNL     1       4.094   3.105  -2.143  0.00  0.00    +0.238 C 
ATOM      3  O   UNL     1       4.984   2.288  -2.251  0.00  0.00    -0.274 OA
ENDROOT
BRANCH   1   4
ATOM      4  C   UNL     1       2.508   4.273  -0.810  0.00  0.00    +0.038 A 
ATOM      5  C   UNL     1       1.170   3.946  -0.630  0.00  0.00    +0.024 A 
ATOM      6  C   UNL     1       0.233   4.946  -0.473  0.00  0.00    +0.006 A 
ATOM      7  C   UNL     1       0.618   6.277  -0.507  0.00  0.00    -0.044 A 
ATOM      8  C   UNL     1       1.948   6.606  -0.692  0.00  0.00    -0.042 A 
ATOM      9  C   UNL     1       2.893   5.606  -0.843  0.00  0.00    +0.027 A 
ATOM     10  C   UNL     1       2.108   8.112  -0.690  0.00  0.00    +0.036 C 
ATOM     11  C   UNL     1       0.687   8.668  -0.923  0.00  0.00    +0.009 C 
ATOM     12  C   UNL     1      -0.207   7.539  -0.369  0.00  0.00    +0.036 C 
ENDBRANCH   1   4
BRANCH   1  13
ATOM     13  C   UNL     1       3.778   2.376   0.160  0.00  0.00    +0.197 C 
BRANCH  13  17
ATOM     14  C   UNL     1       1.083   3.148   3.384  0.00  0.00    +0.000 A 
ATOM     15  C   UNL     1       1.864   4.169   2.876  0.00  0.00    +0.000 A 
ATOM     16  C   UNL     1       2.736   3.919   1.833  0.00  0.00    +0.006 A 
ATOM     17  C   UNL     1       2.827   2.648   1.297  0.00  0.00    -0.018 A 
ATOM     18  C   UNL     1       2.046   1.627   1.805  0.00  0.00    +0.006 A 
ATOM     19  C   UNL     1       1.175   1.876   2.849  0.00  0.00    +0.000 A 
ENDBRANCH  13  17
BRANCH  13  20
ATOM     20  C   UNL     1       5.192   2.627   0.617  0.00  0.00    +0.239 C 
ATOM     21  O   UNL     1       5.870   3.464   0.060  0.00  0.00    -0.273 OA
ATOM     22  N   UNL     1       5.703   1.921   1.645  0.00  0.00    -0.306 N 
ATOM     23  H   UNL     1       5.161   1.252   2.091  0.00  0.00    +0.149 HD
BRANCH  22  24
ATOM     24  C   UNL     1       7.078   2.165   2.090  0.00  0.00    +0.178 C 
BRANCH  24  25
ATOM     25  C   UNL     1       7.401   1.253   3.245  0.00  0.00    +0.122 A 
ATOM     26  C   UNL     1       7.930   0.020   3.149  0.00  0.00    +0.046 A 
ATOM     27  C   UNL     1       8.066  -0.471   4.468  0.00  0.00    +0.041 A 
ATOM     28  C   UNL     1       7.612   0.491   5.291  0.00  0.00    +0.195 A 
ATOM     29  O   UNL     1       7.216   1.535   4.545  0.00  0.00    -0.466 OA
ENDBRANCH  24  25
ENDBRANCH  22  24
ENDBRANCH  13  20
ENDBRANCH   1  13
BRANCH   2  30
ATOM     30  C   UNL     1       3.693   3.943  -3.330  0.00  0.00    +0.201 C 
BRANCH  30  31
ATOM     31  N   UNL     1       4.429   3.495  -4.515  0.00  0.00    -0.300 N 
ATOM     32  C   UNL     1       4.231   4.104  -5.701  0.00  0.00    +0.280 C 
ATOM     33  O   UNL     1       3.441   5.026  -5.787  0.00  0.00    -0.267 OA
ATOM     34  H   UNL     1       5.058   2.760  -4.446  0.00  0.00    +0.150 HD
BRANCH  32  35
ATOM     35  C   UNL     1       4.967   3.656  -6.887  0.00  0.00    +0.189 A 
ATOM     36  C   UNL     1       4.862   4.182  -8.143  0.00  0.00    +0.054 A 
ATOM     37  C   UNL     1       5.740   3.453  -8.960  0.00  0.00    +0.042 A 
ATOM     38  C   UNL     1       6.335   2.526  -8.178  0.00  0.00    +0.196 A 
ATOM     39  O   UNL     1       5.871   2.655  -6.928  0.00  0.00    -0.458 OA
ENDBRANCH  32  35
ENDBRANCH  30  31
ENDBRANCH   2  30
TORSDOF 9
