REMARK  Name = ZINC35757925
REMARK  11 active torsions:
REMARK  status: ('A' for Active; 'I' for Inactive)
REMARK    1  A    between atoms: C_1  and  C_2
REMARK    2  A    between atoms: C_2  and  N_3
REMARK    3  A    between atoms: C_4  and  C_6
REMARK    4  A    between atoms: C_8  and  C_22
REMARK    5  A    between atoms: N_13  and  C_14
REMARK    6  A    between atoms: C_14  and  C_15
REMARK    7  A    between atoms: C_18  and  C_21
REMARK    8  A    between atoms: C_26  and  N_28
REMARK    9  A    between atoms: C_29  and  C_31
REMARK   10  A    between atoms: C_36  and  O_37
REMARK   11  A    between atoms: O_37  and  C_38
REMARK                            x       y       z     vdW  Elec       q    Type
REMARK                         _______ _______ _______ _____ _____    ______ ____
ROOT
ATOM      1  C   UNL     1       1.529  -2.282  -2.655  0.00  0.00    +0.210 C 
ATOM      2  C   UNL     1       0.560  -2.305  -3.861  0.00  0.00    +0.238 C 
ATOM      3  O   UNL     1       0.077  -3.663  -3.833  0.00  0.00    -0.440 OA
ATOM      4  C   UNL     1       1.016  -4.425  -3.246  0.00  0.00    +0.405 C 
ATOM      5  O   UNL     1       1.067  -5.633  -3.359  0.00  0.00    -0.226 OA
ATOM      6  N   UNL     1       1.898  -3.705  -2.518  0.00  0.00    -0.248 N 
ENDROOT
BRANCH   2   7
ATOM      7  C   UNL     1      -0.570  -1.328  -3.662  0.00  0.00    -0.003 A 
ATOM      8  C   UNL     1      -1.641  -1.665  -2.855  0.00  0.00    +0.007 A 
ATOM      9  C   UNL     1      -2.680  -0.771  -2.671  0.00  0.00    +0.002 A 
ATOM     10  C   UNL     1      -2.651   0.462  -3.292  0.00  0.00    +0.023 A 
ATOM     11  C   UNL     1      -1.576   0.804  -4.102  0.00  0.00    +0.034 A 
ATOM     12  C   UNL     1      -0.531  -0.094  -4.281  0.00  0.00    +0.030 A 
BRANCH  11  13
ATOM     13  N   UNL     1      -1.543   2.053  -4.732  0.00  0.00    -0.281 N 
ATOM     14  C   UNL     1      -2.685   2.616  -5.172  0.00  0.00    +0.252 C 
ATOM     15  O   UNL     1      -3.753   2.080  -4.947  0.00  0.00    -0.270 OA
ATOM     16  H   UNL     1      -0.697   2.513  -4.852  0.00  0.00    +0.155 HD
BRANCH  14  17
ATOM     17  C   UNL     1      -2.640   3.882  -5.926  0.00  0.00    +0.079 A 
ATOM     18  C   UNL     1      -1.415   4.499  -6.192  0.00  0.00    +0.017 A 
ATOM     19  C   UNL     1      -1.379   5.682  -6.898  0.00  0.00    +0.001 A 
ATOM     20  C   UNL     1      -2.554   6.264  -7.345  0.00  0.00    +0.004 A 
ATOM     21  C   UNL     1      -3.772   5.666  -7.089  0.00  0.00    +0.046 A 
ATOM     22  C   UNL     1      -3.826   4.472  -6.386  0.00  0.00    +0.132 A 
BRANCH  22  23
ATOM     23  O   UNL     1      -5.021   3.880  -6.138  0.00  0.00    -0.494 OA
ATOM     24  C   UNL     1      -6.187   4.539  -6.638  0.00  0.00    +0.277 C 
ENDBRANCH  22  23
ENDBRANCH  14  17
ENDBRANCH  11  13
ENDBRANCH   2   7
BRANCH   1  26
ATOM     25  N   UNL     1       0.695  -0.464  -1.199  0.00  0.00    -0.314 N 
ATOM     26  C   UNL     1       0.830  -1.788  -1.414  0.00  0.00    +0.238 C 
ATOM     27  O   UNL     1       0.388  -2.581  -0.610  0.00  0.00    -0.274 OA
ATOM     28  H   UNL     1       1.048   0.170  -1.843  0.00  0.00    +0.149 HD
BRANCH  25  30
ATOM     29  C   UNL     1      -0.000   1.547   0.007  0.00  0.00    +0.024 C 
ATOM     30  C   UNL     1       0.016   0.017   0.006  0.00  0.00    +0.101 C 
ENDBRANCH  25  30
ENDBRANCH   1  26
BRANCH   6  31
ATOM     31  C   UNL     1       3.017  -4.236  -1.735  0.00  0.00    +0.147 C 
BRANCH  31  32
ATOM     32  C   UNL     1       2.554  -4.528  -0.331  0.00  0.00    -0.030 A 
ATOM     33  C   UNL     1       2.634  -3.549   0.641  0.00  0.00    +0.005 A 
ATOM     34  C   UNL     1       2.209  -3.817   1.929  0.00  0.00    +0.003 A 
ATOM     35  C   UNL     1       1.705  -5.064   2.245  0.00  0.00    -0.050 A 
ATOM     36  C   UNL     1       1.624  -6.044   1.272  0.00  0.00    +0.003 A 
ATOM     37  C   UNL     1       2.045  -5.774  -0.017  0.00  0.00    +0.005 A 
ATOM     38  C   UNL     1       1.243  -5.357   3.649  0.00  0.00    +0.044 C 
ENDBRANCH  31  32
ENDBRANCH   6  31
TORSDOF 8
