REMARK  Name = ZINC01059509
REMARK  3 active torsions:
REMARK  status: ('A' for Active; 'I' for Inactive)
REMARK    1  A    between atoms: C_8  and  C_22
REMARK    2  A    between atoms: C_9  and  N_10
REMARK    3  A    between atoms: C_11  and  C_12
REMARK                            x       y       z     vdW  Elec       q    Type
REMARK                         _______ _______ _______ _____ _____    ______ ____
ROOT
ATOM      1  C   UNL     1      -0.016   1.357   0.009  0.00  0.00    +0.005 A 
ATOM      2  C   UNL     1       1.193   2.070   0.002  0.00  0.00    +0.018 A 
ATOM      3  C   UNL     1       2.371   1.410  -0.013  0.00  0.00    +0.095 A 
ATOM      4  N   UNL     1       2.404   0.046  -0.021  0.00  0.00    -0.284 N 
ATOM      5  C   UNL     1       1.239  -0.679  -0.013  0.00  0.00    +0.140 A 
ATOM      6  C   UNL     1       0.002  -0.004   0.002  0.00  0.00    +0.047 A 
ATOM      7  N   UNL     1       1.538  -1.972  -0.024  0.00  0.00    -0.222 NA
ATOM      8  C   UNL     1       2.868  -2.126  -0.038  0.00  0.00    +0.151 A 
ATOM      9  C   UNL     1       3.446  -0.855  -0.037  0.00  0.00    +0.168 A 
ENDROOT
BRANCH   8  10
ATOM     10  C   UNL     1       3.594  -3.410  -0.052  0.00  0.00    +0.157 A 
ATOM     11  C   UNL     1       3.204  -4.555   0.574  0.00  0.00    +0.051 A 
ATOM     12  C   UNL     1       4.187  -5.524   0.294  0.00  0.00    +0.042 A 
ATOM     13  C   UNL     1       5.118  -4.931  -0.479  0.00  0.00    +0.196 A 
ATOM     14  O   UNL     1       4.754  -3.655  -0.691  0.00  0.00    -0.461 OA
ENDBRANCH   8  10
BRANCH   9  15
ATOM     15  N   UNL     1       4.764  -0.566  -0.049  0.00  0.00    -0.235 NA
ATOM     16  C   UNL     1       5.414  -0.432   1.078  0.00  0.00    +0.122 C 
BRANCH  16  17
ATOM     17  C   UNL     1       6.849  -0.118   1.065  0.00  0.00    +0.015 A 
ATOM     18  C   UNL     1       7.549   0.020   2.270  0.00  0.00    +0.060 A 
ATOM     19  C   UNL     1       8.898   0.316   2.252  0.00  0.00    +0.167 A 
ATOM     20  C   UNL     1       9.562   0.476   1.034  0.00  0.00    +0.168 A 
ATOM     21  C   UNL     1       8.869   0.339  -0.160  0.00  0.00    +0.070 A 
ATOM     22  C   UNL     1       7.523   0.039  -0.152  0.00  0.00    +0.053 A 
ATOM     23 CL   UNL     1       6.664  -0.137  -1.650  0.00  0.00    -0.083 Cl
ATOM     24  O   UNL     1      10.873   0.759   1.289  0.00  0.00    -0.453 OA
ATOM     25  C   UNL     1      10.917   1.175   2.666  0.00  0.00    +0.466 C 
ATOM     26  O   UNL     1       9.795   0.499   3.265  0.00  0.00    -0.453 OA
ENDBRANCH  16  17
ENDBRANCH   9  15
TORSDOF 3
