REMARK  Name = ZINC08712854
REMARK  13 active torsions:
REMARK  status: ('A' for Active; 'I' for Inactive)
REMARK    1  A    between atoms: C_1  and  C_2
REMARK    2  A    between atoms: C_7  and  C_8
REMARK    3  A    between atoms: C_8  and  N_9
REMARK    4  A    between atoms: N_9  and  C_10
REMARK    5  A    between atoms: C_10  and  C_12
REMARK    6  A    between atoms: C_10  and  C_22
REMARK    7  A    between atoms: C_15  and  O_20
REMARK    8  A    between atoms: C_16  and  O_18
REMARK    9  A    between atoms: O_18  and  C_19
REMARK   10  A    between atoms: O_20  and  C_21
REMARK   11  A    between atoms: N_24  and  C_25
REMARK   12  A    between atoms: C_34  and  C_36
REMARK   13  A    between atoms: C_36  and  N_37
REMARK                            x       y       z     vdW  Elec       q    Type
REMARK                         _______ _______ _______ _____ _____    ______ ____
ROOT
ATOM      1  C   UNL     1       6.068   2.974  -2.977  0.00  0.00    +0.193 C 
ENDROOT
BRANCH   1   2
ATOM      2  C   UNL     1       6.890   1.711  -2.941  0.00  0.00    -0.015 A 
ATOM      3  C   UNL     1       7.543   1.346  -1.779  0.00  0.00    +0.010 A 
ATOM      4  C   UNL     1       8.293   0.185  -1.740  0.00  0.00    +0.050 A 
ATOM      5  C   UNL     1       8.402  -0.608  -2.870  0.00  0.00    +0.162 A 
ATOM      6  C   UNL     1       7.749  -0.237  -4.042  0.00  0.00    +0.162 A 
ATOM      7  C   UNL     1       6.993   0.924  -4.073  0.00  0.00    +0.055 A 
BRANCH   6   8
ATOM      8  O   UNL     1       7.851  -1.013  -5.154  0.00  0.00    -0.491 OA
ATOM      9  C   UNL     1       7.154  -0.571  -6.320  0.00  0.00    +0.277 C 
ENDBRANCH   6   8
BRANCH   5  10
ATOM     10  O   UNL     1       9.144  -1.747  -2.835  0.00  0.00    -0.491 OA
ATOM     11  C   UNL     1       9.696  -2.123  -1.571  0.00  0.00    +0.277 C 
ENDBRANCH   5  10
ENDBRANCH   1   2
BRANCH   1  12
ATOM     12  C   UNL     1       6.982   4.170  -2.911  0.00  0.00    +0.242 C 
ATOM     13  O   UNL     1       6.880   4.962  -1.998  0.00  0.00    -0.273 OA
ATOM     14  N   UNL     1       7.913   4.361  -3.867  0.00  0.00    -0.284 N 
ATOM     15  H   UNL     1       7.944   3.772  -4.637  0.00  0.00    +0.155 HD
BRANCH  14  16
ATOM     16  C   UNL     1       8.834   5.409  -3.749  0.00  0.00    +0.037 A 
ATOM     17  C   UNL     1       9.286   6.067  -4.885  0.00  0.00    +0.027 A 
ATOM     18  C   UNL     1      10.192   7.105  -4.769  0.00  0.00    +0.051 A 
ATOM     19  C   UNL     1      10.658   7.485  -3.521  0.00  0.00    +0.166 A 
ATOM     20  C   UNL     1      10.211   6.823  -2.380  0.00  0.00    +0.168 A 
ATOM     21  C   UNL     1       9.300   5.786  -2.497  0.00  0.00    +0.072 A 
ATOM     22  O   UNL     1      10.813   7.379  -1.289  0.00  0.00    -0.453 OA
ATOM     23  C   UNL     1      11.940   8.113  -1.803  0.00  0.00    +0.466 C 
ATOM     24  O   UNL     1      11.541   8.456  -3.143  0.00  0.00    -0.453 OA
ENDBRANCH  14  16
ENDBRANCH   1  12
BRANCH   1  25
ATOM     25  N   UNL     1       5.154   2.994  -1.832  0.00  0.00    -0.280 N 
ATOM     26  C   UNL     1       4.491   4.125  -1.519  0.00  0.00    +0.235 C 
ATOM     27  O   UNL     1       4.570   5.095  -2.243  0.00  0.00    -0.274 OA
BRANCH  25  28
ATOM     28  C   UNL     1       4.961   1.785  -1.027  0.00  0.00    +0.144 C 
BRANCH  28  35
ATOM     29  C   UNL     1       4.129   0.535  -3.495  0.00  0.00    +0.044 C 
ATOM     30  C   UNL     1       3.146   0.700  -2.365  0.00  0.00    -0.046 A 
ATOM     31  C   UNL     1       1.846   0.252  -2.509  0.00  0.00    +0.003 A 
ATOM     32  C   UNL     1       0.944   0.403  -1.473  0.00  0.00    +0.000 A 
ATOM     33  C   UNL     1       1.342   1.001  -0.291  0.00  0.00    +0.000 A 
ATOM     34  C   UNL     1       2.643   1.444  -0.145  0.00  0.00    +0.005 A 
ATOM     35  C   UNL     1       3.544   1.298  -1.184  0.00  0.00    -0.027 A 
ENDBRANCH  28  35
ENDBRANCH  25  28
BRANCH  26  36
ATOM     36  C   UNL     1       3.650   4.184  -0.269  0.00  0.00    +0.210 C 
BRANCH  36  37
ATOM     37  N   UNL     1       3.161   5.551  -0.074  0.00  0.00    -0.255 N 
ATOM     38  C   UNL     1       1.961   6.036  -0.589  0.00  0.00    +0.048 A 
ATOM     39  C   UNL     1       0.979   5.425  -1.359  0.00  0.00    +0.024 A 
ATOM     40  C   UNL     1      -0.141   6.136  -1.749  0.00  0.00    +0.002 A 
ATOM     41  C   UNL     1      -0.297   7.463  -1.386  0.00  0.00    +0.001 A 
ATOM     42  C   UNL     1       0.663   8.088  -0.617  0.00  0.00    +0.014 A 
ATOM     43  C   UNL     1       1.797   7.380  -0.218  0.00  0.00    +0.048 A 
ATOM     44  C   UNL     1       2.981   7.744   0.582  0.00  0.00    +0.250 C 
ATOM     45  O   UNL     1       3.228   8.816   1.093  0.00  0.00    -0.282 OA
ATOM     46  C   UNL     1       3.813   6.497   0.624  0.00  0.00    +0.292 C 
ATOM     47  O   UNL     1       4.881   6.365   1.185  0.00  0.00    -0.266 OA
ENDBRANCH  36  37
ENDBRANCH  26  36
ENDBRANCH   1  25
TORSDOF 10
