REMARK  Name = ZINC05833639
REMARK  11 active torsions:
REMARK  status: ('A' for Active; 'I' for Inactive)
REMARK    1  A    between atoms: C_1  and  C_2
REMARK    2  A    between atoms: C_2  and  C_3
REMARK    3  A    between atoms: C_2  and  N_54
REMARK    4  A    between atoms: C_4  and  C_5
REMARK    5  A    between atoms: C_4  and  N_54
REMARK    6  A    between atoms: C_11  and  O_26
REMARK    7  A    between atoms: C_12  and  C_20
REMARK    8  A    between atoms: C_13  and  C_16
REMARK    9  A    between atoms: C_27  and  C_28
REMARK   10  A    between atoms: C_27  and  C_29
REMARK   11  A    between atoms: C_27  and  N_54
REMARK                            x       y       z     vdW  Elec       q    Type
REMARK                         _______ _______ _______ _____ _____    ______ ____
ROOT
ATOM      1  C   UNL     1      -0.888  -1.134  -2.090  0.00  0.00    +0.026 A 
ATOM      2  C   UNL     1      -0.391  -2.338  -1.583  0.00  0.00    +0.184 A 
ATOM      3  O   UNL     1       0.646  -2.327  -0.745  0.00  0.00    -0.288 OA
ATOM      4  C   UNL     1      -0.981  -3.562  -1.952  0.00  0.00    +0.052 A 
ATOM      5  C   UNL     1      -2.037  -3.586  -2.804  0.00  0.00    +0.019 A 
ATOM      6  C   UNL     1      -2.547  -2.382  -3.323  0.00  0.00    +0.060 A 
ATOM      7  C   UNL     1      -3.644  -2.384  -4.210  0.00  0.00    +0.139 A 
ATOM      8  C   UNL     1      -4.111  -1.143  -4.697  0.00  0.00    +0.071 A 
ATOM      9  C   UNL     1      -3.492   0.019  -4.298  0.00  0.00    +0.219 A 
ATOM     10  O   UNL     1      -2.454   0.006  -3.457  0.00  0.00    -0.450 OA
ATOM     11  C   UNL     1      -1.967  -1.147  -2.954  0.00  0.00    +0.144 A 
ENDROOT
BRANCH   8  12
ATOM     12  C   UNL     1      -5.262  -1.092  -5.632  0.00  0.00    -0.011 A 
ATOM     13  C   UNL     1      -6.479  -0.558  -5.215  0.00  0.00    +0.009 A 
ATOM     14  C   UNL     1      -7.545  -0.508  -6.091  0.00  0.00    +0.001 A 
ATOM     15  C   UNL     1      -7.409  -0.998  -7.377  0.00  0.00    +0.000 A 
ATOM     16  C   UNL     1      -6.204  -1.534  -7.795  0.00  0.00    +0.001 A 
ATOM     17  C   UNL     1      -5.130  -1.583  -6.929  0.00  0.00    +0.009 A 
ENDBRANCH   8  12
BRANCH   9  18
ATOM     18  C   UNL     1      -3.996   1.338  -4.823  0.00  0.00    +0.451 C 
ATOM     19  F   UNL     1      -5.250   1.613  -4.266  0.00  0.00    -0.163 F 
ATOM     20  F   UNL     1      -3.098   2.353  -4.475  0.00  0.00    -0.163 F 
ATOM     21  F   UNL     1      -4.109   1.274  -6.216  0.00  0.00    -0.163 F 
ENDBRANCH   9  18
BRANCH   7  22
ATOM     22  O   UNL     1      -4.232  -3.540  -4.584  0.00  0.00    -0.505 OA
ATOM     23  H   UNL     1      -4.958  -3.816  -4.008  0.00  0.00    +0.292 HD
ENDBRANCH   7  22
BRANCH   1  24
ATOM     24  C   UNL     1      -0.253   0.174  -1.692  0.00  0.00    -0.035 C 
BRANCH  24  25
ATOM     25  N   UNL     1       0.672   0.600  -2.763  0.00  0.00    +0.386 N 
ATOM     26  H   UNL     1       0.181   0.557  -3.664  0.00  0.00    -0.081 HD
BRANCH  25  28
ATOM     27  C   UNL     1       1.962   2.450  -3.712  0.00  0.00    -0.013 C 
ATOM     28  C   UNL     1       1.116   1.989  -2.524  0.00  0.00    -0.074 C 
ATOM     29  C   UNL     1      -0.114   2.890  -2.393  0.00  0.00    -0.013 C 
ENDBRANCH  25  28
BRANCH  25  30
ATOM     30  C   UNL     1       1.841  -0.303  -2.810  0.00  0.00    -0.074 C 
ATOM     31  C   UNL     1       2.396  -0.308  -4.236  0.00  0.00    -0.013 C 
ATOM     32  C   UNL     1       2.924   0.176  -1.842  0.00  0.00    -0.013 C 
ENDBRANCH  25  30
ENDBRANCH  24  25
ENDBRANCH   1  24
TORSDOF 7
