REMARK  Name = ZINC22369540
REMARK  13 active torsions:
REMARK  status: ('A' for Active; 'I' for Inactive)
REMARK    1  A    between atoms: C_1  and  C_2
REMARK    2  A    between atoms: C_2  and  C_3
REMARK    3  A    between atoms: C_3  and  C_4
REMARK    4  A    between atoms: C_4  and  N_5
REMARK    5  A    between atoms: N_14  and  C_32
REMARK    6  A    between atoms: C_15  and  C_17
REMARK    7  A    between atoms: C_17  and  C_18
REMARK    8  A    between atoms: C_18  and  C_19
REMARK    9  A    between atoms: N_21  and  C_22
REMARK   10  A    between atoms: C_25  and  C_28
REMARK   11  A    between atoms: C_32  and  C_33
REMARK   12  A    between atoms: C_33  and  C_34
REMARK   13  A    between atoms: C_33  and  C_35
REMARK                            x       y       z     vdW  Elec       q    Type
REMARK                         _______ _______ _______ _____ _____    ______ ____
ROOT
ATOM      1  N   UNL     1       3.843  -9.333  -2.176  0.00  0.00    -0.277 N 
ATOM      2  C   UNL     1       3.869  -8.203  -1.375  0.00  0.00    +0.168 A 
ATOM      3  C   UNL     1       3.944  -8.360   0.003  0.00  0.00    +0.151 A 
ATOM      4  C   UNL     1       3.992  -9.662   0.546  0.00  0.00    +0.280 A 
ATOM      5  O   UNL     1       4.058  -9.825   1.751  0.00  0.00    -0.265 OA
ATOM      6  N   UNL     1       3.964 -10.723  -0.286  0.00  0.00    -0.273 N 
ATOM      7  H   UNL     1       4.000 -11.744   0.122  0.00  0.00    +0.173 HD
ATOM      8  C   UNL     1       3.891 -10.557  -1.618  0.00  0.00    +0.331 A 
ATOM      9  O   UNL     1       3.869 -11.537  -2.338  0.00  0.00    -0.246 OA
ATOM     10  N   UNL     1       3.959  -7.086   0.537  0.00  0.00    -0.322 N 
ATOM     11  C   UNL     1       3.886  -6.225  -0.497  0.00  0.00    +0.113 A 
ATOM     12  N   UNL     1       3.836  -6.891  -1.623  0.00  0.00    -0.214 NA
ENDROOT
BRANCH   1  13
ATOM     13  C   UNL     1       3.763  -9.195  -3.632  0.00  0.00    +0.128 C 
BRANCH  13  14
ATOM     14  C   UNL     1       5.176  -9.126  -4.216  0.00  0.00    +0.021 C 
BRANCH  14  16
ATOM     15  C   UNL     1       6.505  -8.913  -6.321  0.00  0.00    +0.004 C 
ATOM     16  C   UNL     1       5.093  -8.982  -5.737  0.00  0.00    -0.002 C 
ENDBRANCH  14  16
ENDBRANCH  13  14
ENDBRANCH   1  13
BRANCH  11  17
ATOM     17  C   UNL     1       3.871  -4.723  -0.376  0.00  0.00    +0.083 C 
BRANCH  17  18
ATOM     18  C   UNL     1       2.425  -4.236  -0.258  0.00  0.00    +0.104 C 
BRANCH  18  19
ATOM     19  C   UNL     1       2.410  -2.734  -0.137  0.00  0.00    +0.218 C 
ATOM     20  O   UNL     1       3.452  -2.114  -0.144  0.00  0.00    -0.275 OA
ATOM     21  N   UNL     1       1.237  -2.079  -0.020  0.00  0.00    -0.285 N 
ATOM     22  H   UNL     1       0.298  -2.645   0.073  0.00  0.00    +0.155 HD
BRANCH  21  23
ATOM     23  C   UNL     1       1.214  -0.680  -0.019  0.00  0.00    +0.033 A 
ATOM     24  C   UNL     1       2.137   0.031  -0.774  0.00  0.00    +0.024 A 
ATOM     25  C   UNL     1       2.111   1.412  -0.771  0.00  0.00    +0.014 A 
ATOM     26  C   UNL     1       1.168   2.086  -0.017  0.00  0.00    +0.055 A 
ATOM     27  C   UNL     1       0.248   1.380   0.736  0.00  0.00    +0.014 A 
ATOM     28  C   UNL     1       0.268  -0.001   0.737  0.00  0.00    +0.024 A 
BRANCH  26  29
ATOM     29  C   UNL     1       1.143   3.593  -0.015  0.00  0.00    +0.417 C 
ATOM     30  F   UNL     1       0.306   4.046  -1.041  0.00  0.00    -0.166 F 
ATOM     31  F   UNL     1       0.662   4.050   1.216  0.00  0.00    -0.166 F 
ATOM     32  F   UNL     1       2.438   4.081  -0.221  0.00  0.00    -0.166 F 
ENDBRANCH  26  29
ENDBRANCH  21  23
ENDBRANCH  18  19
ENDBRANCH  17  18
ENDBRANCH  11  17
BRANCH  10  33
ATOM     33  C   UNL     1       4.037  -6.737   1.957  0.00  0.00    +0.126 C 
BRANCH  33  34
ATOM     34  C   UNL     1       2.625  -6.638   2.536  0.00  0.00    +0.003 C 
ATOM     35  C   UNL     1       1.958  -8.014   2.494  0.00  0.00    +0.009 C 
ATOM     36  C   UNL     1       2.700  -6.152   3.985  0.00  0.00    +0.009 C 
ENDBRANCH  33  34
ENDBRANCH  10  33
TORSDOF 10
