REMARK  Name = ZINC35967237
REMARK  10 active torsions:
REMARK  status: ('A' for Active; 'I' for Inactive)
REMARK    1  A    between atoms: C_1  and  C_2
REMARK    2  A    between atoms: C_2  and  C_3
REMARK    3  A    between atoms: C_2  and  C_4
REMARK    4  A    between atoms: C_4  and  N_5
REMARK    5  A    between atoms: C_6  and  C_8
REMARK    6  A    between atoms: C_8  and  C_10
REMARK    7  A    between atoms: C_8  and  N_17
REMARK    8  A    between atoms: C_10  and  C_11
REMARK    9  A    between atoms: C_23  and  C_30
REMARK   10  A    between atoms: N_28  and  C_29
REMARK                            x       y       z     vdW  Elec       q    Type
REMARK                         _______ _______ _______ _____ _____    ______ ____
ROOT
ATOM      1  N   UNL     1      -5.452  -0.619  -2.712  0.00  0.00    -0.280 N 
ATOM      2  C   UNL     1      -6.043  -1.557  -3.678  0.00  0.00    +0.160 C 
ATOM      3  C   UNL     1      -7.470  -1.747  -3.213  0.00  0.00    +0.042 C 
ATOM      4  C   UNL     1      -7.614  -0.984  -2.111  0.00  0.00    +0.058 C 
ATOM      5  C   UNL     1      -6.407  -0.317  -1.814  0.00  0.00    +0.247 C 
ATOM      6  O   UNL     1      -6.251   0.435  -0.870  0.00  0.00    -0.270 OA
ATOM      7  C   UNL     1      -8.966  -0.983  -1.426  0.00  0.00    +0.148 C 
ATOM      8  N   UNL     1     -10.017  -1.822  -2.026  0.00  0.00    -0.287 N 
ATOM      9  C   UNL     1      -9.720  -2.531  -3.133  0.00  0.00    +0.307 C 
ATOM     10  O   UNL     1     -10.581  -3.226  -3.635  0.00  0.00    -0.252 OA
ATOM     11  N   UNL     1      -8.505  -2.494  -3.697  0.00  0.00    -0.260 N 
ATOM     12  C   UNL     1      -8.275  -3.300  -4.899  0.00  0.00    +0.139 C 
ATOM     13  H   UNL     1     -10.903  -1.863  -1.634  0.00  0.00    +0.151 HD
ENDROOT
BRANCH   7  14
ATOM     14  C   UNL     1      -9.469   0.438  -1.393  0.00  0.00    +0.015 A 
ATOM     15  C   UNL     1      -9.437   1.330  -0.373  0.00  0.00    +0.013 A 
ATOM     16  C   UNL     1      -9.963   2.593  -0.572  0.00  0.00    +0.008 A 
ATOM     17  C   UNL     1     -10.495   2.901  -1.779  0.00  0.00    +0.045 A 
ATOM     18  S   UNL     1     -10.255   1.383  -2.687  0.00  0.00    -0.099 S 
ENDBRANCH   7  14
BRANCH   1  19
ATOM     19  C   UNL     1      -4.078  -0.112  -2.723  0.00  0.00    +0.167 C 
BRANCH  19  21
ATOM     20  N   UNL     1      -2.105  -0.148  -1.230  0.00  0.00    -0.314 N 
ATOM     21  C   UNL     1      -3.387  -0.508  -1.443  0.00  0.00    +0.234 C 
ATOM     22  O   UNL     1      -3.983  -1.151  -0.606  0.00  0.00    -0.274 OA
ATOM     23  H   UNL     1      -1.628   0.366  -1.901  0.00  0.00    +0.149 HD
BRANCH  20  24
ATOM     24  C   UNL     1      -1.433  -0.534   0.013  0.00  0.00    +0.107 C 
BRANCH  24  26
ATOM     25  C   UNL     1      -0.019   1.526   0.010  0.00  0.00    +0.009 C 
ATOM     26  C   UNL     1       0.002  -0.004   0.002  0.00  0.00    -0.000 C 
ATOM     27  C   UNL     1       0.742  -0.511   1.242  0.00  0.00    +0.009 C 
ENDBRANCH  24  26
ENDBRANCH  20  24
ENDBRANCH  19  21
BRANCH  19  28
ATOM     28  C   UNL     1      -4.098   1.414  -2.840  0.00  0.00    +0.067 C 
BRANCH  28  29
ATOM     29  C   UNL     1      -4.678   1.807  -4.174  0.00  0.00    -0.045 A 
ATOM     30  C   UNL     1      -3.850   1.960  -5.270  0.00  0.00    +0.004 A 
ATOM     31  C   UNL     1      -4.382   2.321  -6.494  0.00  0.00    +0.000 A 
ATOM     32  C   UNL     1      -5.743   2.529  -6.621  0.00  0.00    +0.000 A 
ATOM     33  C   UNL     1      -6.571   2.376  -5.525  0.00  0.00    +0.000 A 
ATOM     34  C   UNL     1      -6.040   2.010  -4.303  0.00  0.00    +0.004 A 
ENDBRANCH  28  29
ENDBRANCH  19  28
ENDBRANCH   1  19
TORSDOF 7
