REMARK  Name = ZINC36039359
REMARK  6 active torsions:
REMARK  status: ('A' for Active; 'I' for Inactive)
REMARK    1  A    between atoms: C_4  and  C_7
REMARK    2  A    between atoms: N_9  and  C_20
REMARK    3  A    between atoms: N_12  and  C_13
REMARK    4  A    between atoms: C_13  and  C_15
REMARK    5  A    between atoms: C_15  and  N_16
REMARK    6  A    between atoms: N_16  and  C_17
REMARK                            x       y       z     vdW  Elec       q    Type
REMARK                         _______ _______ _______ _____ _____    ______ ____
ROOT
ATOM      1  C   UNL     1       3.696  -0.685  -0.037  0.00  0.00    +0.066 A 
ATOM      2  C   UNL     1       3.859  -2.020  -0.051  0.00  0.00    +0.120 A 
ATOM      3  N   UNL     1       5.213  -2.286  -0.065  0.00  0.00    -0.287 N 
ATOM      4  C   UNL     1       5.878  -1.099  -0.058  0.00  0.00    +0.205 A 
ATOM      5  N   UNL     1       4.957  -0.101  -0.047  0.00  0.00    -0.326 N 
ATOM      6  N   UNL     1       7.202  -0.943  -0.067  0.00  0.00    -0.148 NA
ATOM      7  H   UNL     1       5.146   0.850  -0.044  0.00  0.00    +0.169 HD
ENDROOT
BRANCH   3   8
ATOM      8  C   UNL     1       5.802  -3.557  -0.081  0.00  0.00    +0.049 A 
ATOM      9  C   UNL     1       7.184  -3.684  -0.087  0.00  0.00    +0.029 A 
ATOM     10  C   UNL     1       7.762  -4.938  -0.103  0.00  0.00    +0.040 A 
ATOM     11  C   UNL     1       6.964  -6.069  -0.114  0.00  0.00    +0.124 A 
ATOM     12  C   UNL     1       5.584  -5.945  -0.108  0.00  0.00    +0.040 A 
ATOM     13  C   UNL     1       5.003  -4.693  -0.086  0.00  0.00    +0.029 A 
ATOM     14  F   UNL     1       7.531  -7.295  -0.131  0.00  0.00    -0.205 F 
ENDBRANCH   3   8
BRANCH   1  18
ATOM     15  C   UNL     1      -0.017   1.379   0.010  0.00  0.00    +0.000 A 
ATOM     16  C   UNL     1       1.168   2.093   0.002  0.00  0.00    +0.001 A 
ATOM     17  C   UNL     1       2.377   1.429  -0.013  0.00  0.00    +0.010 A 
ATOM     18  C   UNL     1       2.403   0.034  -0.021  0.00  0.00    -0.000 A 
ATOM     19  C   UNL     1       1.204  -0.680  -0.013  0.00  0.00    +0.010 A 
ATOM     20  C   UNL     1       0.002  -0.004   0.002  0.00  0.00    +0.001 A 
ENDBRANCH   1  18
BRANCH   6  21
ATOM     21  C   UNL     1       7.727   0.277  -0.059  0.00  0.00    +0.222 C 
ATOM     22  O   UNL     1       6.999   1.252  -0.045  0.00  0.00    -0.276 OA
BRANCH  21  23
ATOM     23  C   UNL     1       9.223   0.453  -0.068  0.00  0.00    +0.017 C 
BRANCH  23  24
ATOM     24  N   UNL     1       9.547   1.886  -0.057  0.00  0.00    +0.387 N 
ATOM     25  H   UNL     1       9.152   2.327  -0.874  0.00  0.00    -0.085 HD
ATOM     26  H   UNL     1       9.164   2.311   0.773  0.00  0.00    -0.085 HD
BRANCH  24  27
ATOM     27  C   UNL     1      11.006   2.058  -0.067  0.00  0.00    -0.071 C 
ATOM     28  C   UNL     1      11.646   2.728   1.151  0.00  0.00    -0.017 C 
ATOM     29  C   UNL     1      11.549   3.485  -0.175  0.00  0.00    -0.017 C 
ENDBRANCH  24  27
ENDBRANCH  23  24
ENDBRANCH  21  23
ENDBRANCH   6  21
TORSDOF 6
