REMARK  Name = ZINC63819039
REMARK  4 active torsions:
REMARK  status: ('A' for Active; 'I' for Inactive)
REMARK    1  A    between atoms: C_7  and  C_10
REMARK    2  A    between atoms: C_16  and  C_18
REMARK    3  A    between atoms: N_23  and  S_24
REMARK    4  A    between atoms: S_24  and  C_27
REMARK                            x       y       z     vdW  Elec       q    Type
REMARK                         _______ _______ _______ _____ _____    ______ ____
ROOT
ATOM      1  C   UNL     1       1.166  -4.240   0.028  0.00  0.00    +0.079 A 
ATOM      2  C   UNL     1       1.386  -5.519   0.524  0.00  0.00    +0.076 A 
ATOM      3  S   UNL     1      -0.176  -6.129   0.661  0.00  0.00    -0.060 S 
ATOM      4  C   UNL     1      -1.068  -4.703   0.069  0.00  0.00    +0.165 A 
ATOM      5  N   UNL     1      -0.097  -3.853  -0.188  0.00  0.00    -0.225 NA
ATOM      6  N   UNL     1      -2.436  -4.532  -0.079  0.00  0.00    -0.263 N 
ATOM      7  C   UNL     1      -3.280  -5.532   0.249  0.00  0.00    +0.238 C 
ATOM      8  O   UNL     1      -2.842  -6.580   0.672  0.00  0.00    -0.274 OA
ATOM      9  H   UNL     1      -2.787  -3.693  -0.417  0.00  0.00    +0.157 HD
ENDROOT
BRANCH   1  16
ATOM     10  C   UNL     1       1.323   0.011  -1.555  0.00  0.00    +0.001 A 
ATOM     11  C   UNL     1       2.619   0.518  -1.672  0.00  0.00    +0.002 A 
ATOM     12  C   UNL     1       3.708  -0.215  -1.335  0.00  0.00    +0.026 A 
ATOM     13  C   UNL     1       3.545  -1.538  -0.849  0.00  0.00    +0.043 A 
ATOM     14  N   UNL     1       4.425  -2.440  -0.461  0.00  0.00    -0.380 N 
ATOM     15  C   UNL     1       3.719  -3.656  -0.046  0.00  0.00    +0.151 C 
ATOM     16  C   UNL     1       2.246  -3.370  -0.237  0.00  0.00    +0.007 C 
ATOM     17  C   UNL     1       2.177  -2.069  -0.727  0.00  0.00    +0.005 A 
ATOM     18  C   UNL     1       1.090  -1.246  -1.098  0.00  0.00    +0.010 A 
ATOM     19  H   UNL     1       5.387  -2.319  -0.453  0.00  0.00    +0.160 HD
ENDBRANCH   1  16
BRANCH   7  20
ATOM     20  C   UNL     1      -4.766  -5.346   0.089  0.00  0.00    +0.166 C 
ATOM     21  C   UNL     1      -5.360  -4.734   1.375  0.00  0.00    +0.031 C 
ATOM     22  C   UNL     1      -6.717  -5.473   1.517  0.00  0.00    +0.019 C 
ATOM     23  C   UNL     1      -6.358  -6.886   0.993  0.00  0.00    +0.110 C 
ATOM     24  N   UNL     1      -5.414  -6.649  -0.118  0.00  0.00    -0.165 NA
BRANCH  24  25
ATOM     25  S   UNL     1      -5.131  -7.677  -1.385  0.00  0.00    +0.062 S 
ATOM     26  O   UNL     1      -3.894  -7.280  -1.962  0.00  0.00    -0.153 OA
ATOM     27  O   UNL     1      -5.357  -8.993  -0.899  0.00  0.00    -0.153 OA
BRANCH  25  28
ATOM     28  C   UNL     1      -6.373  -7.367  -2.596  0.00  0.00    +0.106 A 
ATOM     29  C   UNL     1      -7.598  -8.002  -2.507  0.00  0.00    +0.031 A 
ATOM     30  C   UNL     1      -8.573  -7.759  -3.455  0.00  0.00    +0.040 A 
ATOM     31  C   UNL     1      -8.323  -6.880  -4.495  0.00  0.00    +0.124 A 
ATOM     32  C   UNL     1      -7.096  -6.244  -4.583  0.00  0.00    +0.040 A 
ATOM     33  C   UNL     1      -6.124  -6.484  -3.630  0.00  0.00    +0.031 A 
ATOM     34  F   UNL     1      -9.275  -6.642  -5.423  0.00  0.00    -0.205 F 
ENDBRANCH  25  28
ENDBRANCH  24  25
ENDBRANCH   7  20
TORSDOF 4
