REMARK  Name = ZINC06014608
REMARK  5 active torsions:
REMARK  status: ('A' for Active; 'I' for Inactive)
REMARK    1  A    between atoms: C_1  and  C_2
REMARK    2  A    between atoms: C_2  and  C_18
REMARK    3  A    between atoms: N_3  and  N_4
REMARK    4  A    between atoms: C_8  and  C_11
REMARK    5  A    between atoms: C_21  and  N_24
REMARK                            x       y       z     vdW  Elec       q    Type
REMARK                         _______ _______ _______ _____ _____    ______ ____
ROOT
ATOM      1  N   UNL     1      -0.140  -1.966   1.130  0.00  0.00    -0.124 NA
ATOM      2  C   UNL     1      -0.162  -2.646   2.277  0.00  0.00    +0.192 A 
ATOM      3  N   UNL     1      -0.077  -2.155   3.544  0.00  0.00    -0.332 N 
ATOM      4  H   UNL     1       0.012  -1.204   3.713  0.00  0.00    +0.168 HD
ATOM      5  C   UNL     1      -0.124  -3.044   4.547  0.00  0.00    +0.055 A 
ATOM      6  C   UNL     1      -0.255  -4.382   4.168  0.00  0.00    +0.075 A 
ATOM      7  S   UNL     1      -0.309  -4.303   2.492  0.00  0.00    -0.056 S 
ENDROOT
BRANCH   5   8
ATOM      8  C   UNL     1      -0.041  -2.635   5.959  0.00  0.00    -0.001 A 
ATOM      9  C   UNL     1       0.085  -1.282   6.293  0.00  0.00    +0.011 A 
ATOM     10  C   UNL     1       0.161  -0.907   7.617  0.00  0.00    +0.016 A 
ATOM     11  C   UNL     1       0.114  -1.866   8.617  0.00  0.00    +0.018 A 
ATOM     12  C   UNL     1      -0.009  -3.208   8.293  0.00  0.00    +0.016 A 
ATOM     13  C   UNL     1      -0.093  -3.598   6.974  0.00  0.00    +0.011 A 
ATOM     14 BR   UNL     1       0.220  -1.341  10.430  0.00  0.00    -0.050 Br
ENDBRANCH   5   8
BRANCH   1  17
ATOM     15  C   UNL     1       0.281   1.477   0.009  0.00  0.00    +0.068 C 
ATOM     16  C   UNL     1       0.002  -0.004   0.002  0.00  0.00    +0.068 C 
ATOM     17  N   UNL     1      -0.020  -0.681   1.144  0.00  0.00    -0.151 NA
BRANCH  16  18
ATOM     18  C   UNL     1      -0.237  -0.673  -1.223  0.00  0.00    -0.002 A 
ATOM     19  C   UNL     1      -1.132  -1.757  -1.275  0.00  0.00    +0.012 A 
ATOM     20  C   UNL     1      -1.357  -2.400  -2.471  0.00  0.00    +0.033 A 
ATOM     21  C   UNL     1      -0.704  -1.984  -3.621  0.00  0.00    +0.126 A 
ATOM     22  C   UNL     1       0.180  -0.917  -3.581  0.00  0.00    +0.033 A 
ATOM     23  C   UNL     1       0.415  -0.256  -2.397  0.00  0.00    +0.012 A 
BRANCH  21  24
ATOM     24  N   UNL     1      -0.954  -2.684  -4.901  0.00  0.00    +0.056 N 
ATOM     25  O   UNL     1      -1.793  -3.698  -4.945  0.00  0.00    -0.126 OA
ATOM     26  O   UNL     1      -0.336  -2.292  -5.997  0.00  0.00    -0.126 OA
ENDBRANCH  21  24
ENDBRANCH  16  18
ENDBRANCH   1  17
TORSDOF 4
