REMARK  Name = ZINC23131312
REMARK  3 active torsions:
REMARK  status: ('A' for Active; 'I' for Inactive)
REMARK    1  A    between atoms: C_6  and  N_7
REMARK    2  A    between atoms: C_11  and  C_13
REMARK    3  A    between atoms: N_15  and  C_16
REMARK                            x       y       z     vdW  Elec       q    Type
REMARK                         _______ _______ _______ _____ _____    ______ ____
ROOT
ATOM      1  C   UNL     1      -7.881  -3.635  -0.576  0.00  0.00    +0.034 A 
ATOM      2  C   UNL     1      -7.539  -2.304  -0.453  0.00  0.00    +0.018 A 
ATOM      3  C   UNL     1      -6.210  -1.949  -0.373  0.00  0.00    +0.020 A 
ATOM      4  C   UNL     1      -5.169  -2.908  -0.411  0.00  0.00    -0.008 A 
ATOM      5  C   UNL     1      -5.566  -4.264  -0.538  0.00  0.00    +0.041 A 
ATOM      6  C   UNL     1      -6.880  -4.598  -0.616  0.00  0.00    +0.127 A 
ATOM      7  C   UNL     1      -3.866  -2.387  -0.323  0.00  0.00    +0.029 A 
ATOM      8  C   UNL     1      -3.678  -1.046  -0.200  0.00  0.00    +0.075 A 
ATOM      9  S   UNL     1      -5.344  -0.407  -0.212  0.00  0.00    -0.084 S 
ENDROOT
BRANCH   8  10
ATOM     10  C   UNL     1      -2.414  -0.304  -0.091  0.00  0.00    +0.255 C 
ATOM     11  O   UNL     1      -1.355  -0.903  -0.099  0.00  0.00    -0.269 OA
ATOM     12  N   UNL     1      -2.428   1.039   0.019  0.00  0.00    -0.280 N 
ATOM     13  H   UNL     1      -3.385   1.573   0.118  0.00  0.00    +0.155 HD
BRANCH  12  14
ATOM     14  C   UNL     1      -1.225   1.755   0.006  0.00  0.00    +0.052 A 
ATOM     15  C   UNL     1      -0.102   1.218  -0.610  0.00  0.00    +0.027 A 
ATOM     16  C   UNL     1       1.082   1.928  -0.627  0.00  0.00    +0.040 A 
ATOM     17  C   UNL     1       1.153   3.174  -0.025  0.00  0.00    +0.125 A 
ATOM     18  C   UNL     1       0.037   3.709   0.597  0.00  0.00    +0.060 A 
ATOM     19  C   UNL     1      -1.150   3.002   0.616  0.00  0.00    +0.065 A 
ATOM     20 CL   UNL     1      -2.549   3.673   1.394  0.00  0.00    -0.082 Cl
ATOM     21  F   UNL     1       2.312   3.866  -0.043  0.00  0.00    -0.205 F 
ENDBRANCH  12  14
ENDBRANCH   8  10
BRANCH   6  22
ATOM     22  N   UNL     1      -7.255  -6.024  -0.747  0.00  0.00    +0.056 N 
ATOM     23  O   UNL     1      -6.390  -6.881  -0.784  0.00  0.00    -0.126 OA
ATOM     24  O   UNL     1      -8.429  -6.341  -0.818  0.00  0.00    -0.126 OA
ENDBRANCH   6  22
TORSDOF 3
