REMARK  Name = ZINC15940702
REMARK  15 active torsions:
REMARK  status: ('A' for Active; 'I' for Inactive)
REMARK    1  A    between atoms: C_1  and  C_2
REMARK    2  A    between atoms: C_2  and  C_3
REMARK    3  A    between atoms: C_3  and  C_4
REMARK    4  A    between atoms: C_4  and  N_5
REMARK    5  A    between atoms: C_6  and  N_40
REMARK    6  A    between atoms: C_7  and  N_14
REMARK    7  A    between atoms: N_14  and  C_15
REMARK    8  A    between atoms: C_15  and  C_16
REMARK    9  A    between atoms: C_16  and  C_17
REMARK   10  A    between atoms: C_17  and  C_18
REMARK   11  A    between atoms: C_19  and  C_21
REMARK   12  A    between atoms: C_25  and  S_27
REMARK   13  A    between atoms: S_27  and  N_30
REMARK   14  A    between atoms: C_32  and  C_39
REMARK   15  A    between atoms: C_35  and  C_38
REMARK                            x       y       z     vdW  Elec       q    Type
REMARK                         _______ _______ _______ _____ _____    ______ ____
ROOT
ATOM      1  N   UNL     1       0.478  -3.921  -5.926  0.00  0.00    -0.260 N 
ATOM      2  C   UNL     1      -0.658  -3.218  -6.102  0.00  0.00    +0.251 C 
ATOM      3  O   UNL     1      -1.070  -3.001  -7.226  0.00  0.00    -0.270 OA
ENDROOT
BRANCH   1   6
ATOM      4  N   UNL     1       2.721  -3.751  -3.021  0.00  0.00    -0.280 N 
ATOM      5  C   UNL     1       2.234  -3.564  -4.294  0.00  0.00    +0.127 A 
ATOM      6  C   UNL     1       1.005  -4.095  -4.629  0.00  0.00    +0.140 A 
ATOM      7  C   UNL     1       0.286  -4.813  -3.655  0.00  0.00    +0.277 A 
ATOM      8  O   UNL     1      -0.802  -5.293  -3.924  0.00  0.00    -0.266 OA
ATOM      9  N   UNL     1       0.809  -4.967  -2.422  0.00  0.00    -0.273 N 
ATOM     10  H   UNL     1       0.315  -5.462  -1.750  0.00  0.00    +0.173 HD
ATOM     11  C   UNL     1       2.011  -4.447  -2.115  0.00  0.00    +0.331 A 
ATOM     12  O   UNL     1       2.461  -4.605  -0.997  0.00  0.00    -0.246 OA
BRANCH   5  13
ATOM     13  N   UNL     1       2.962  -2.857  -5.220  0.00  0.00    -0.343 N 
ATOM     14  H   UNL     1       3.804  -2.448  -4.966  0.00  0.00    +0.144 HD
ATOM     15  H   UNL     1       2.634  -2.767  -6.129  0.00  0.00    +0.144 HD
ENDBRANCH   5  13
BRANCH   4  16
ATOM     16  C   UNL     1       4.024  -3.192  -2.651  0.00  0.00    +0.128 C 
BRANCH  16  17
ATOM     17  C   UNL     1       5.121  -4.215  -2.953  0.00  0.00    +0.021 C 
BRANCH  17  19
ATOM     18  C   UNL     1       7.579  -4.655  -2.869  0.00  0.00    +0.004 C 
ATOM     19  C   UNL     1       6.482  -3.632  -2.567  0.00  0.00    -0.002 C 
ENDBRANCH  17  19
ENDBRANCH  16  17
ENDBRANCH   4  16
ENDBRANCH   1   6
BRANCH   2  20
ATOM     20  C   UNL     1      -1.403  -2.710  -4.931  0.00  0.00    +0.039 A 
ATOM     21  C   UNL     1      -0.726  -2.403  -3.749  0.00  0.00    +0.013 A 
ATOM     22  C   UNL     1      -1.427  -1.929  -2.659  0.00  0.00    +0.003 A 
ATOM     23  C   UNL     1      -2.798  -1.758  -2.736  0.00  0.00    +0.028 A 
ATOM     24  C   UNL     1      -3.474  -2.060  -3.904  0.00  0.00    +0.106 A 
ATOM     25  C   UNL     1      -2.785  -2.529  -5.003  0.00  0.00    +0.041 A 
BRANCH  24  26
ATOM     26  S   UNL     1      -5.220  -1.839  -3.991  0.00  0.00    +0.061 S 
ATOM     27  O   UNL     1      -5.690  -2.708  -5.012  0.00  0.00    -0.153 OA
ATOM     28  O   UNL     1      -5.704  -1.900  -2.656  0.00  0.00    -0.153 OA
BRANCH  26  29
ATOM     29  N   UNL     1      -5.492  -0.294  -4.522  0.00  0.00    -0.172 NA
ATOM     30  C   UNL     1      -5.618   0.823  -3.572  0.00  0.00    +0.140 C 
ATOM     31  C   UNL     1      -4.680   1.949  -4.023  0.00  0.00    +0.131 C 
ATOM     32  O   UNL     1      -4.936   2.252  -5.397  0.00  0.00    -0.371 OA
ATOM     33  C   UNL     1      -4.678   1.168  -6.293  0.00  0.00    +0.131 C 
ATOM     34  C   UNL     1      -5.609   0.003  -5.959  0.00  0.00    +0.140 C 
ATOM     35  C   UNL     1      -4.923   1.626  -7.732  0.00  0.00    +0.039 C 
ATOM     36  C   UNL     1      -3.227   1.500  -3.859  0.00  0.00    +0.039 C 
ENDBRANCH  26  29
ENDBRANCH  24  26
ENDBRANCH   2  20
BRANCH   1  37
ATOM     37  C   UNL     1       1.166  -4.504  -7.080  0.00  0.00    +0.114 C 
BRANCH  37  38
ATOM     38  C   UNL     1       0.535  -5.856  -7.419  0.00  0.00    +0.019 C 
BRANCH  38  39
ATOM     39  C   UNL     1       1.254  -6.466  -8.625  0.00  0.00    -0.002 C 
ATOM     40  C   UNL     1       0.623  -7.818  -8.964  0.00  0.00    +0.004 C 
ENDBRANCH  38  39
ENDBRANCH  37  38
ENDBRANCH   1  37
TORSDOF 11
