REMARK  Name = ZINC63135292
REMARK  13 active torsions:
REMARK  status: ('A' for Active; 'I' for Inactive)
REMARK    1  A    between atoms: C_1  and  C_2
REMARK    2  A    between atoms: C_5  and  C_8
REMARK    3  A    between atoms: C_8  and  N_9
REMARK    4  A    between atoms: C_10  and  C_36
REMARK    5  A    between atoms: C_12  and  C_16
REMARK    6  A    between atoms: C_13  and  C_15
REMARK    7  A    between atoms: C_17  and  C_18
REMARK    8  A    between atoms: C_18  and  O_20
REMARK    9  A    between atoms: O_20  and  C_21
REMARK   10  A    between atoms: C_21  and  C_22
REMARK   11  A    between atoms: N_24  and  C_25
REMARK   12  A    between atoms: C_25  and  C_26
REMARK   13  A    between atoms: C_26  and  C_27
REMARK                            x       y       z     vdW  Elec       q    Type
REMARK                         _______ _______ _______ _____ _____    ______ ____
ROOT
ATOM      1  C   UNL     1       2.534 -10.296  -1.283  0.00  0.00    +0.332 C 
ATOM      2  O   UNL     1       3.137 -10.473  -2.326  0.00  0.00    -0.246 OA
ENDROOT
BRANCH   1   4
ATOM      3  C   UNL     1       2.574  -7.924  -1.635  0.00  0.00    +0.014 C 
ATOM      4  C   UNL     1       2.211  -8.990  -0.869  0.00  0.00    +0.092 C 
BRANCH   3   7
ATOM      5  N   UNL     1       1.451  -4.747  -0.032  0.00  0.00    -0.218 NA
ATOM      6  C   UNL     1       1.510  -6.221   0.038  0.00  0.00    +0.105 C 
ATOM      7  C   UNL     1       2.251  -6.619  -1.222  0.00  0.00    -0.011 C 
ATOM      8  C   UNL     1       2.540  -5.467  -1.869  0.00  0.00    +0.021 C 
ATOM      9  N   UNL     1       2.081  -4.386  -1.186  0.00  0.00    -0.281 N 
ATOM     10  C   UNL     1       3.278  -5.392  -3.180  0.00  0.00    +0.062 C 
ATOM     11  C   UNL     1       0.100  -6.814   0.044  0.00  0.00    +0.031 C 
ATOM     12  H   UNL     1       2.188  -3.469  -1.484  0.00  0.00    +0.166 HD
BRANCH   5  13
ATOM     13  C   UNL     1       0.059  -4.275  -0.021  0.00  0.00    +0.141 C 
BRANCH  13  18
ATOM     14  C   UNL     1      -0.018   1.503   0.010  0.00  0.00    +0.044 C 
ATOM     15  C   UNL     1       0.002  -0.004   0.002  0.00  0.00    -0.050 A 
ATOM     16  C   UNL     1       0.006  -0.689  -1.199  0.00  0.00    +0.003 A 
ATOM     17  C   UNL     1       0.025  -2.071  -1.206  0.00  0.00    +0.005 A 
ATOM     18  C   UNL     1       0.040  -2.768  -0.013  0.00  0.00    -0.032 A 
ATOM     19  C   UNL     1       0.037  -2.084   1.188  0.00  0.00    +0.005 A 
ATOM     20  C   UNL     1       0.023  -0.702   1.195  0.00  0.00    +0.003 A 
ENDBRANCH  13  18
ENDBRANCH   5  13
ENDBRANCH   3   7
ENDBRANCH   1   4
BRANCH   1  21
ATOM     21  O   UNL     1       2.175 -11.353  -0.523  0.00  0.00    -0.452 OA
BRANCH  21  22
ATOM     22  C   UNL     1       2.535 -12.650  -1.004  0.00  0.00    +0.327 C 
BRANCH  22  23
ATOM     23  C   UNL     1       2.055 -13.697  -0.032  0.00  0.00    +0.251 C 
ATOM     24  O   UNL     1       1.463 -13.366   0.973  0.00  0.00    -0.272 OA
ATOM     25  N   UNL     1       2.284 -15.002  -0.280  0.00  0.00    -0.312 N 
ATOM     26  H   UNL     1       2.758 -15.267  -1.084  0.00  0.00    +0.149 HD
BRANCH  25  27
ATOM     27  C   UNL     1       1.818 -16.020   0.664  0.00  0.00    +0.108 C 
BRANCH  27  28
ATOM     28  C   UNL     1       2.203 -17.408   0.150  0.00  0.00    +0.052 C 
BRANCH  28  29
ATOM     29  C   UNL     1       1.723 -18.456   1.121  0.00  0.00    -0.040 C 
ATOM     30  C   UNL     1       0.568 -19.155   1.058  0.00  0.00    -0.001 A 
ATOM     31  C   UNL     1      -0.546 -19.150   0.102  0.00  0.00    +0.010 A 
ATOM     32  C   UNL     1      -1.592 -19.983   0.309  0.00  0.00    +0.001 A 
ATOM     33  C   UNL     1      -1.638 -20.848   1.410  0.00  0.00    +0.002 A 
ATOM     34  C   UNL     1      -0.653 -20.910   2.331  0.00  0.00    +0.026 A 
ATOM     35  C   UNL     1       0.495 -20.078   2.212  0.00  0.00    +0.043 A 
ATOM     36  N   UNL     1       1.564 -19.954   2.961  0.00  0.00    -0.380 N 
ATOM     37  C   UNL     1       2.440 -18.942   2.361  0.00  0.00    +0.144 C 
ATOM     38  H   UNL     1       1.747 -20.452   3.773  0.00  0.00    +0.160 HD
ENDBRANCH  28  29
ENDBRANCH  27  28
ENDBRANCH  25  27
ENDBRANCH  22  23
ENDBRANCH  21  22
ENDBRANCH   1  21
TORSDOF 10
