REMARK  Name = ZINC14458127
REMARK  8 active torsions:
REMARK  status: ('A' for Active; 'I' for Inactive)
REMARK    1  A    between atoms: C_1  and  C_2
REMARK    2  A    between atoms: C_4  and  C_31
REMARK    3  A    between atoms: C_5  and  C_9
REMARK    4  A    between atoms: C_6  and  C_8
REMARK    5  A    between atoms: C_20  and  N_25
REMARK    6  A    between atoms: C_26  and  C_28
REMARK    7  A    between atoms: C_28  and  C_29
REMARK    8  A    between atoms: C_28  and  C_30
REMARK                            x       y       z     vdW  Elec       q    Type
REMARK                         _______ _______ _______ _____ _____    ______ ____
ROOT
ATOM      1  C   UNL     1      -0.040   1.548   0.828  0.00  0.00    +0.105 C 
ATOM      2  C   UNL     1      -0.191   2.058   2.251  0.00  0.00    +0.029 C 
ATOM      3  C   UNL     1       0.859   1.602   3.272  0.00  0.00    +0.033 C 
ATOM      4  C   UNL     1       0.877   2.784   4.244  0.00  0.00    -0.030 C 
ATOM      5  C   UNL     1       0.488   3.889   3.621  0.00  0.00    -0.023 C 
ATOM      6  C   UNL     1       0.215   3.561   2.198  0.00  0.00    +0.049 C 
ATOM      7  C   UNL     1      -0.813   4.281   1.415  0.00  0.00    -0.018 A 
ATOM      8  C   UNL     1      -1.200   5.569   1.711  0.00  0.00    +0.029 A 
ATOM      9  C   UNL     1      -2.160   6.207   0.938  0.00  0.00    +0.034 A 
ATOM     10  C   UNL     1      -2.731   5.543  -0.140  0.00  0.00    +0.025 A 
ATOM     11  C   UNL     1      -2.350   4.252  -0.437  0.00  0.00    +0.025 A 
ATOM     12  C   UNL     1      -1.395   3.604   0.337  0.00  0.00    +0.031 A 
ATOM     13  N   UNL     1      -1.050   2.278   0.032  0.00  0.00    -0.336 N 
ATOM     14  H   UNL     1      -1.484   1.831  -0.712  0.00  0.00    +0.147 HD
ENDROOT
BRANCH   1  19
ATOM     15  C   UNL     1       5.268   2.692  -1.150  0.00  0.00    +0.044 C 
ATOM     16  C   UNL     1       3.884   2.393  -0.634  0.00  0.00    -0.050 A 
ATOM     17  C   UNL     1       3.683   1.338   0.236  0.00  0.00    +0.007 A 
ATOM     18  C   UNL     1       2.413   1.064   0.709  0.00  0.00    -0.045 A 
ATOM     19  C   UNL     1       1.344   1.846   0.312  0.00  0.00    -0.021 A 
ATOM     20  C   UNL     1       1.544   2.898  -0.562  0.00  0.00    -0.045 A 
ATOM     21  C   UNL     1       2.815   3.175  -1.032  0.00  0.00    +0.007 A 
ATOM     22  C   UNL     1       0.378   3.747  -0.999  0.00  0.00    +0.044 C 
ATOM     23  C   UNL     1       2.194  -0.086   1.657  0.00  0.00    +0.044 C 
ENDBRANCH   1  19
BRANCH   9  24
ATOM     24  N   UNL     1      -2.552   7.518   1.243  0.00  0.00    -0.285 N 
ATOM     25  C   UNL     1      -3.036   8.320   0.274  0.00  0.00    +0.220 C 
ATOM     26  O   UNL     1      -3.033   7.946  -0.880  0.00  0.00    -0.275 OA
ATOM     27  H   UNL     1      -2.475   7.847   2.152  0.00  0.00    +0.155 HD
BRANCH  25  28
ATOM     28  C   UNL     1      -3.580   9.681   0.624  0.00  0.00    +0.069 C 
ATOM     29  C   UNL     1      -2.479  10.517   1.281  0.00  0.00    +0.017 C 
ATOM     30  C   UNL     1      -4.061  10.380  -0.648  0.00  0.00    +0.017 C 
ENDBRANCH  25  28
ENDBRANCH   9  24
TORSDOF 3
