REMARK  Name = ZINC48984150
REMARK  6 active torsions:
REMARK  status: ('A' for Active; 'I' for Inactive)
REMARK    1  A    between atoms: C_1  and  C_2
REMARK    2  A    between atoms: C_2  and  C_3
REMARK    3  A    between atoms: C_3  and  C_5
REMARK    4  A    between atoms: C_3  and  N_6
REMARK    5  A    between atoms: N_9  and  C_10
REMARK    6  A    between atoms: C_12  and  C_18
REMARK                            x       y       z     vdW  Elec       q    Type
REMARK                         _______ _______ _______ _____ _____    ______ ____
ROOT
ATOM      1  C   UNL     1       0.505   0.630  -5.934  0.00  0.00    +0.100 A 
ATOM      2  C   UNL     1       0.075   0.034  -7.088  0.00  0.00    +0.042 A 
ATOM      3  C   UNL     1       0.747   0.302  -8.289  0.00  0.00    +0.073 A 
ATOM      4  C   UNL     1       1.808   1.141  -8.298  0.00  0.00    +0.098 A 
ATOM      5  N   UNL     1       2.237   1.734  -7.153  0.00  0.00    -0.327 N 
ATOM      6  H   UNL     1       3.000   2.333  -7.180  0.00  0.00    +0.168 HD
ATOM      7  C   UNL     1       1.612   1.505  -5.982  0.00  0.00    +0.270 A 
ATOM      8  O   UNL     1       2.005   2.049  -4.963  0.00  0.00    -0.266 OA
ENDROOT
BRANCH   1  12
ATOM      9  N   UNL     1      -0.069  -0.278  -2.482  0.00  0.00    -0.297 N 
ATOM     10  C   UNL     1       0.534  -0.134  -3.679  0.00  0.00    +0.304 C 
ATOM     11  O   UNL     1       1.694  -0.468  -3.820  0.00  0.00    -0.252 OA
ATOM     12  N   UNL     1      -0.150   0.381  -4.720  0.00  0.00    -0.265 N 
ATOM     13  H   UNL     1      -0.995  -0.012  -2.370  0.00  0.00    +0.151 HD
ATOM     14  H   UNL     1      -1.095   0.579  -4.629  0.00  0.00    +0.157 HD
BRANCH   9  15
ATOM     15  C   UNL     1       0.675  -0.838  -1.350  0.00  0.00    +0.071 C 
ATOM     16  C   UNL     1       0.610  -2.365  -1.403  0.00  0.00    +0.028 C 
BRANCH  15  18
ATOM     17  C   UNL     1       0.232   1.170   0.069  0.00  0.00    +0.005 C 
ATOM     18  C   UNL     1       0.056  -0.345  -0.040  0.00  0.00    +0.019 C 
ENDBRANCH  15  18
ENDBRANCH   9  15
ENDBRANCH   1  12
BRANCH   3  19
ATOM     19  C   UNL     1       0.288  -0.347  -9.570  0.00  0.00    +0.419 C 
ATOM     20  F   UNL     1       1.108   0.070 -10.623  0.00  0.00    -0.166 F 
ATOM     21  F   UNL     1       0.365  -1.738  -9.442  0.00  0.00    -0.166 F 
ATOM     22  F   UNL     1      -1.034   0.026  -9.833  0.00  0.00    -0.166 F 
ENDBRANCH   3  19
TORSDOF 4
