REMARK  Name = ZINC45514004
REMARK  6 active torsions:
REMARK  status: ('A' for Active; 'I' for Inactive)
REMARK    1  A    between atoms: C_3  and  C_9
REMARK    2  A    between atoms: C_9  and  N_10
REMARK    3  A    between atoms: C_11  and  N_15
REMARK    4  A    between atoms: C_16  and  C_18
REMARK    5  A    between atoms: C_18  and  C_19
REMARK    6  A    between atoms: C_19  and  N_20
REMARK                            x       y       z     vdW  Elec       q    Type
REMARK                         _______ _______ _______ _____ _____    ______ ____
ROOT
ATOM      1  N   UNL     1       3.142   4.272   2.122  0.00  0.00    -0.271 N 
ATOM      2  C   UNL     1       2.980   5.136   3.145  0.00  0.00    +0.220 C 
ATOM      3  O   UNL     1       3.560   4.948   4.194  0.00  0.00    -0.275 OA
ATOM      4  H   UNL     1       2.678   4.422   1.283  0.00  0.00    +0.156 HD
ENDROOT
BRANCH   1   6
ATOM      5  N   UNL     1       4.227   2.223   1.332  0.00  0.00    -0.246 N 
ATOM      6  C   UNL     1       3.975   3.164   2.270  0.00  0.00    +0.123 A 
ATOM      7  C   UNL     1       4.683   2.833   3.385  0.00  0.00    +0.065 A 
ATOM      8  C   UNL     1       5.385   1.656   3.112  0.00  0.00    +0.136 A 
ATOM      9  N   UNL     1       5.109   1.287   1.887  0.00  0.00    -0.178 NA
BRANCH   5  10
ATOM     10  C   UNL     1       3.671   2.185  -0.023  0.00  0.00    +0.182 C 
BRANCH  10  13
ATOM     11  C   UNL     1      -0.017   1.379   0.010  0.00  0.00    +0.020 A 
ATOM     12  C   UNL     1       1.171   2.087   0.002  0.00  0.00    +0.008 A 
ATOM     13  C   UNL     1       2.377   1.413  -0.013  0.00  0.00    -0.008 A 
ATOM     14  C   UNL     1       2.397   0.029  -0.021  0.00  0.00    +0.047 A 
ATOM     15  C   UNL     1       1.210  -0.679  -0.013  0.00  0.00    +0.040 A 
ATOM     16  C   UNL     1       0.002  -0.004   0.002  0.00  0.00    +0.042 A 
ATOM     17 CL   UNL     1      -1.489  -0.893   0.012  0.00  0.00    -0.083 Cl
ATOM     18 CL   UNL     1       3.913  -0.817  -0.041  0.00  0.00    -0.083 Cl
ENDBRANCH  10  13
ENDBRANCH   5  10
ENDBRANCH   1   6
BRANCH   2  19
ATOM     19  C   UNL     1       2.080   6.333   2.985  0.00  0.00    +0.115 C 
BRANCH  19  20
ATOM     20  C   UNL     1       2.073   7.143   4.283  0.00  0.00    +0.127 C 
BRANCH  20  21
ATOM     21  N   UNL     1       1.198   8.307   4.127  0.00  0.00    -0.224 N 
ATOM     22  C   UNL     1       1.608   9.509   3.671  0.00  0.00    +0.247 C 
ATOM     23  O   UNL     1       2.728   9.820   3.326  0.00  0.00    -0.273 OA
ATOM     24  C   UNL     1       0.377  10.387   3.682  0.00  0.00    +0.113 C 
ATOM     25  C   UNL     1       0.051  10.862   2.271  0.00  0.00    +0.035 C 
ATOM     26  C   UNL     1      -1.214  11.723   2.300  0.00  0.00    +0.003 C 
ATOM     27  C   UNL     1      -0.992  12.924   3.222  0.00  0.00    +0.000 C 
ATOM     28  C   UNL     1      -0.690  12.431   4.638  0.00  0.00    +0.003 C 
ATOM     29  C   UNL     1       0.578  11.573   4.619  0.00  0.00    +0.035 C 
ATOM     30  N   UNL     1      -0.684   9.506   4.187  0.00  0.00    -0.285 N 
ATOM     31  C   UNL     1      -0.110   8.309   4.415  0.00  0.00    +0.309 C 
ATOM     32  O   UNL     1      -0.711   7.341   4.837  0.00  0.00    -0.252 OA
ATOM     33  H   UNL     1      -1.615   9.739   4.325  0.00  0.00    +0.151 HD
ENDBRANCH  20  21
ENDBRANCH  19  20
ENDBRANCH   2  19
TORSDOF 6
