REMARK  Name = ZINC34830410
REMARK  12 active torsions:
REMARK  status: ('A' for Active; 'I' for Inactive)
REMARK    1  A    between atoms: C_1  and  C_2
REMARK    2  A    between atoms: C_2  and  C_3
REMARK    3  A    between atoms: C_3  and  C_4
REMARK    4  A    between atoms: C_4  and  C_5
REMARK    5  A    between atoms: C_5  and  C_7
REMARK    6  A    between atoms: C_5  and  C_9
REMARK    7  A    between atoms: C_7  and  C_8
REMARK    8  A    between atoms: C_18  and  C_20
REMARK    9  A    between atoms: C_20  and  C_22
REMARK   10  A    between atoms: C_20  and  N_23
REMARK   11  A    between atoms: C_31  and  C_33
REMARK   12  A    between atoms: C_38  and  C_39
REMARK                            x       y       z     vdW  Elec       q    Type
REMARK                         _______ _______ _______ _____ _____    ______ ____
ROOT
ATOM      1  C   UNL     1      -7.191  -5.731  -2.391  0.00  0.00    +0.018 C 
ATOM      2  C   UNL     1      -7.638  -5.562  -0.938  0.00  0.00    -0.004 C 
ENDROOT
BRANCH   1  12
ATOM      3  C   UNL     1      -2.268  -4.532   0.552  0.00  0.00    +0.219 C 
ATOM      4  O   UNL     1      -1.322  -5.174   0.956  0.00  0.00    -0.275 OA
ATOM      5  N   UNL     1      -3.421  -5.156   0.237  0.00  0.00    -0.300 N 
ATOM      6  C   UNL     1      -3.530  -6.572   0.268  0.00  0.00    +0.109 C 
ATOM      7  C   UNL     1      -3.034  -7.293  -1.027  0.00  0.00    +0.038 C 
ATOM      8  C   UNL     1      -3.459  -6.407  -2.244  0.00  0.00    +0.109 C 
ATOM      9  N   UNL     1      -4.734  -5.793  -2.112  0.00  0.00    -0.301 N 
ATOM     10  C   UNL     1      -4.762  -4.395  -1.611  0.00  0.00    +0.126 C 
ATOM     11  C   UNL     1      -4.634  -4.392  -0.153  0.00  0.00    +0.126 C 
ATOM     12  C   UNL     1      -5.867  -6.450  -2.429  0.00  0.00    +0.202 C 
ATOM     13  O   UNL     1      -5.822  -7.621  -2.745  0.00  0.00    -0.277 OA
BRANCH   3  14
ATOM     14  C   UNL     1      -2.155  -3.037   0.402  0.00  0.00    +0.075 C 
BRANCH  14  15
ATOM     15  C   UNL     1      -0.735  -2.674  -0.038  0.00  0.00    +0.009 C 
ATOM     16  C   UNL     1      -0.459  -3.276  -1.417  0.00  0.00    +0.004 C 
ENDBRANCH  14  15
BRANCH  14  17
ATOM     17  C   UNL     1      -2.461  -2.365   1.742  0.00  0.00    +0.013 C 
BRANCH  17  18
ATOM     18  C   UNL     1      -2.468  -0.846   1.562  0.00  0.00    +0.000 C 
BRANCH  18  20
ATOM     19  C   UNL     1      -2.782   1.345   2.722  0.00  0.00    +0.004 C 
ATOM     20  C   UNL     1      -2.774  -0.175   2.902  0.00  0.00    -0.003 C 
ENDBRANCH  18  20
ENDBRANCH  17  18
ENDBRANCH  14  17
ENDBRANCH   3  14
ENDBRANCH   1  12
BRANCH   1  21
ATOM     21  N   UNL     1      -8.194  -6.513  -3.125  0.00  0.00    +0.395 N 
ATOM     22  C   UNL     1      -8.440  -7.774  -2.411  0.00  0.00    -0.071 C 
ATOM     23  C   UNL     1      -9.225  -8.723  -3.334  0.00  0.00    +0.024 C 
ATOM     24  C   UNL     1     -10.352  -7.943  -3.929  0.00  0.00    -0.010 A 
ATOM     25  C   UNL     1     -10.496  -6.588  -3.910  0.00  0.00    -0.047 A 
ATOM     26  C   UNL     1     -11.636  -6.076  -4.526  0.00  0.00    +0.010 A 
ATOM     27  C   UNL     1     -12.528  -6.915  -5.103  0.00  0.00    +0.045 A 
ATOM     28  S   UNL     1     -11.784  -8.511  -4.799  0.00  0.00    -0.101 S 
ATOM     29  C   UNL     1      -9.430  -5.729  -3.238  0.00  0.00    -0.005 C 
ATOM     30  H   UNL     1      -7.845  -6.718  -4.049  0.00  0.00    -0.079 HD
BRANCH  29  31
ATOM     31  C   UNL     1      -9.172  -4.500  -4.071  0.00  0.00    -0.054 A 
ATOM     32  C   UNL     1      -8.206  -4.524  -5.059  0.00  0.00    +0.002 A 
ATOM     33  C   UNL     1      -7.970  -3.396  -5.823  0.00  0.00    +0.000 A 
ATOM     34  C   UNL     1      -8.701  -2.244  -5.599  0.00  0.00    +0.000 A 
ATOM     35  C   UNL     1      -9.668  -2.220  -4.612  0.00  0.00    +0.003 A 
ATOM     36  C   UNL     1      -9.907  -3.349  -3.851  0.00  0.00    -0.049 A 
ATOM     37  C   UNL     1     -10.965  -3.325  -2.778  0.00  0.00    +0.044 C 
ENDBRANCH  29  31
ENDBRANCH   1  21
TORSDOF 8
