REMARK  Name = ZINC01397970
REMARK  11 active torsions:
REMARK  status: ('A' for Active; 'I' for Inactive)
REMARK    1  A    between atoms: C_1  and  C_2
REMARK    2  A    between atoms: C_2  and  O_3
REMARK    3  A    between atoms: O_3  and  C_4
REMARK    4  A    between atoms: C_4  and  C_6
REMARK    5  A    between atoms: C_6  and  O_7
REMARK    6  A    between atoms: O_7  and  C_8
REMARK    7  A    between atoms: C_10  and  N_16
REMARK    8  A    between atoms: C_17  and  C_19
REMARK    9  A    between atoms: C_20  and  O_24
REMARK   10  A    between atoms: O_24  and  C_25
REMARK   11  A    between atoms: C_28  and  N_32
REMARK                            x       y       z     vdW  Elec       q    Type
REMARK                         _______ _______ _______ _____ _____    ______ ____
ROOT
ATOM      1  N   UNL     1       3.814  -3.713  -6.661  0.00  0.00    -0.280 N 
ATOM      2  C   UNL     1       3.715  -2.370  -6.706  0.00  0.00    +0.258 C 
ATOM      3  O   UNL     1       3.188  -1.767  -5.788  0.00  0.00    -0.269 OA
ATOM      4  H   UNL     1       4.304  -4.187  -7.351  0.00  0.00    +0.155 HD
ENDROOT
BRANCH   1   7
ATOM      5  C   UNL     1       1.527  -4.591  -3.914  0.00  0.00    +0.141 A 
ATOM      6  C   UNL     1       2.123  -3.884  -4.946  0.00  0.00    +0.072 A 
ATOM      7  C   UNL     1       3.210  -4.425  -5.618  0.00  0.00    +0.056 A 
ATOM      8  C   UNL     1       3.698  -5.675  -5.255  0.00  0.00    +0.064 A 
ATOM      9  C   UNL     1       3.101  -6.378  -4.225  0.00  0.00    +0.045 A 
ATOM     10  C   UNL     1       2.022  -5.837  -3.551  0.00  0.00    +0.084 A 
ATOM     11 CL   UNL     1       1.279  -6.719  -2.253  0.00  0.00    -0.080 Cl
ATOM     12 CL   UNL     1       5.057  -6.353  -6.095  0.00  0.00    -0.082 Cl
BRANCH   5  13
ATOM     13  O   UNL     1       0.463  -4.063  -3.254  0.00  0.00    -0.479 OA
BRANCH  13  14
ATOM     14  C   UNL     1       0.007  -2.778  -3.681  0.00  0.00    +0.349 C 
BRANCH  14  15
ATOM     15  C   UNL     1      -1.171  -2.358  -2.841  0.00  0.00    +0.345 C 
ATOM     16  O   UNL     1      -1.579  -3.085  -1.966  0.00  0.00    -0.247 OA
BRANCH  15  17
ATOM     17  O   UNL     1      -1.768  -1.177  -3.064  0.00  0.00    -0.463 OA
BRANCH  17  19
ATOM     18  C   UNL     1      -3.424   0.530  -2.630  0.00  0.00    +0.048 C 
ATOM     19  C   UNL     1      -2.879  -0.843  -2.230  0.00  0.00    +0.229 C 
ENDBRANCH  17  19
ENDBRANCH  15  17
ENDBRANCH  14  15
ENDBRANCH  13  14
ENDBRANCH   5  13
ENDBRANCH   1   7
BRANCH   2  20
ATOM     20  C   UNL     1       4.224  -1.659  -7.821  0.00  0.00    +0.116 A 
ATOM     21  C   UNL     1       4.229  -0.286  -8.059  0.00  0.00    +0.148 A 
ATOM     22  C   UNL     1       4.804   0.107  -9.250  0.00  0.00    +0.054 A 
ATOM     23  C   UNL     1       5.309  -0.836 -10.080  0.00  0.00    +0.049 A 
ATOM     24  S   UNL     1       5.033  -2.287  -9.280  0.00  0.00    -0.088 S 
BRANCH  21  25
ATOM     25  O   UNL     1       3.702   0.604  -7.180  0.00  0.00    -0.452 OA
BRANCH  25  26
ATOM     26  C   UNL     1       3.657   1.912  -7.546  0.00  0.00    +0.164 A 
ATOM     27  C   UNL     1       4.619   2.797  -7.081  0.00  0.00    +0.051 A 
ATOM     28  C   UNL     1       4.572   4.127  -7.454  0.00  0.00    +0.036 A 
ATOM     29  C   UNL     1       3.567   4.577  -8.291  0.00  0.00    +0.129 A 
ATOM     30  C   UNL     1       2.607   3.698  -8.757  0.00  0.00    +0.074 A 
ATOM     31  C   UNL     1       2.652   2.365  -8.392  0.00  0.00    +0.168 A 
ATOM     32  F   UNL     1       1.717   1.505  -8.852  0.00  0.00    -0.202 F 
BRANCH  29  33
ATOM     33  N   UNL     1       3.520   6.002  -8.689  0.00  0.00    +0.057 N 
ATOM     34  O   UNL     1       4.359   6.771  -8.282  0.00  0.00    -0.126 OA
ATOM     35  O   UNL     1       2.643   6.396  -9.421  0.00  0.00    -0.126 OA
ENDBRANCH  29  33
ENDBRANCH  25  26
ENDBRANCH  21  25
ENDBRANCH   2  20
TORSDOF 10
