REMARK  Name = ZINC39454726
REMARK  7 active torsions:
REMARK  status: ('A' for Active; 'I' for Inactive)
REMARK    1  A    between atoms: C_4  and  C_7
REMARK    2  A    between atoms: C_10  and  C_13
REMARK    3  A    between atoms: C_17  and  C_19
REMARK    4  A    between atoms: C_19  and  N_20
REMARK    5  A    between atoms: N_20  and  C_21
REMARK    6  A    between atoms: C_21  and  C_22
REMARK    7  A    between atoms: C_24  and  C_28
REMARK                            x       y       z     vdW  Elec       q    Type
REMARK                         _______ _______ _______ _____ _____    ______ ____
ROOT
ATOM      1  C   UNL     1       7.402  -2.748  -0.084  0.00  0.00    +0.077 C 
ATOM      2  N   UNL     1       8.596  -2.222  -0.083  0.00  0.00    -0.153 NA
ATOM      3  N   UNL     1       9.596  -3.188  -0.101  0.00  0.00    -0.161 NA
ATOM      4  C   UNL     1       9.122  -4.392  -0.114  0.00  0.00    +0.115 C 
ATOM      5  C   UNL     1       7.613  -4.250  -0.100  0.00  0.00    +0.066 C 
ENDROOT
BRANCH   1   9
ATOM      6  C   UNL     1       3.698  -0.688  -0.037  0.00  0.00    -0.018 A 
ATOM      7  C   UNL     1       4.895   0.030  -0.040  0.00  0.00    +0.009 A 
ATOM      8  C   UNL     1       6.094  -0.634  -0.054  0.00  0.00    +0.010 A 
ATOM      9  C   UNL     1       6.117  -2.034  -0.068  0.00  0.00    -0.001 A 
ATOM     10  C   UNL     1       4.916  -2.752  -0.065  0.00  0.00    +0.010 A 
ATOM     11  C   UNL     1       3.719  -2.083  -0.045  0.00  0.00    +0.009 A 
BRANCH   6  15
ATOM     12  C   UNL     1      -0.017   1.379   0.010  0.00  0.00    +0.000 A 
ATOM     13  C   UNL     1       1.169   2.092   0.002  0.00  0.00    +0.001 A 
ATOM     14  C   UNL     1       2.377   1.427  -0.013  0.00  0.00    +0.008 A 
ATOM     15  C   UNL     1       2.403   0.033  -0.021  0.00  0.00    -0.018 A 
ATOM     16  C   UNL     1       1.205  -0.680  -0.013  0.00  0.00    +0.008 A 
ATOM     17  C   UNL     1       0.002  -0.004   0.002  0.00  0.00    +0.001 A 
ENDBRANCH   6  15
ENDBRANCH   1   9
BRANCH   5  18
ATOM     18  C   UNL     1       7.003  -4.867  -1.360  0.00  0.00    -0.067 C 
BRANCH  18  19
ATOM     19  N   UNL     1       7.116  -6.330  -1.292  0.00  0.00    +0.383 N 
ATOM     20  H   UNL     1       8.089  -6.590  -1.227  0.00  0.00    -0.085 HD
ATOM     21  H   UNL     1       6.623  -6.668  -0.479  0.00  0.00    -0.085 HD
BRANCH  19  22
ATOM     22  C   UNL     1       6.530  -6.923  -2.502  0.00  0.00    -0.027 C 
BRANCH  22  23
ATOM     23  C   UNL     1       6.646  -8.424  -2.432  0.00  0.00    +0.021 C 
ATOM     24  C   UNL     1       5.621  -9.247  -2.365  0.00  0.00    +0.032 C 
ATOM     25  C   UNL     1       6.165 -10.656  -2.312  0.00  0.00    +0.203 C 
ATOM     26  O   UNL     1       7.592 -10.509  -2.358  0.00  0.00    -0.262 OA
ATOM     27  N   UNL     1       7.843  -9.117  -2.437  0.00  0.00    -0.271 N 
ATOM     28  H   UNL     1       8.722  -8.710  -2.485  0.00  0.00    +0.194 HD
BRANCH  25  29
ATOM     29  C   UNL     1       5.680 -11.448  -3.499  0.00  0.00    -0.013 A 
ATOM     30  C   UNL     1       6.365 -11.386  -4.698  0.00  0.00    +0.006 A 
ATOM     31  C   UNL     1       5.921 -12.113  -5.786  0.00  0.00    +0.000 A 
ATOM     32  C   UNL     1       4.791 -12.902  -5.675  0.00  0.00    +0.000 A 
ATOM     33  C   UNL     1       4.107 -12.965  -4.476  0.00  0.00    +0.000 A 
ATOM     34  C   UNL     1       4.554 -12.242  -3.386  0.00  0.00    +0.006 A 
ENDBRANCH  25  29
ENDBRANCH  22  23
ENDBRANCH  19  22
ENDBRANCH  18  19
ENDBRANCH   5  18
TORSDOF 7
