REMARK  Name = ZINC14457726
REMARK  6 active torsions:
REMARK  status: ('A' for Active; 'I' for Inactive)
REMARK    1  A    between atoms: C_1  and  C_2
REMARK    2  A    between atoms: C_4  and  C_29
REMARK    3  A    between atoms: C_5  and  C_9
REMARK    4  A    between atoms: C_6  and  C_8
REMARK    5  A    between atoms: C_19  and  N_26
REMARK    6  A    between atoms: C_22  and  O_25
REMARK                            x       y       z     vdW  Elec       q    Type
REMARK                         _______ _______ _______ _____ _____    ______ ____
ROOT
ATOM      1  C   UNL     1      -0.824   3.252   0.333  0.00  0.00    +0.105 C 
ATOM      2  C   UNL     1      -1.505   4.622   0.349  0.00  0.00    +0.029 C 
ATOM      3  C   UNL     1      -2.987   4.422  -0.074  0.00  0.00    +0.033 C 
ATOM      4  C   UNL     1      -2.921   4.380  -1.588  0.00  0.00    -0.030 C 
ATOM      5  C   UNL     1      -1.823   4.950  -2.016  0.00  0.00    -0.023 C 
ATOM      6  C   UNL     1      -0.996   5.447  -0.852  0.00  0.00    +0.051 C 
ATOM      7  C   UNL     1       0.465   5.214  -1.102  0.00  0.00    +0.014 A 
ATOM      8  C   UNL     1       1.098   6.007  -2.051  0.00  0.00    +0.132 A 
ATOM      9  C   UNL     1       2.439   5.840  -2.329  0.00  0.00    +0.037 A 
ATOM     10  C   UNL     1       3.170   4.876  -1.659  0.00  0.00    +0.049 A 
ATOM     11  C   UNL     1       2.551   4.082  -0.712  0.00  0.00    +0.138 A 
ATOM     12  C   UNL     1       1.192   4.250  -0.430  0.00  0.00    +0.076 A 
ATOM     13  N   UNL     1       0.616   3.421   0.537  0.00  0.00    -0.334 N 
ATOM     14  H   UNL     1       1.115   2.920   1.379  0.00  0.00    +0.147 HD
ENDROOT
BRANCH   1  19
ATOM     15  C   UNL     1      -1.760   0.693  -4.763  0.00  0.00    +0.044 C 
ATOM     16  C   UNL     1      -1.516   1.359  -3.433  0.00  0.00    -0.050 A 
ATOM     17  C   UNL     1      -0.236   1.742  -3.077  0.00  0.00    +0.007 A 
ATOM     18  C   UNL     1      -0.012   2.354  -1.858  0.00  0.00    -0.045 A 
ATOM     19  C   UNL     1      -1.068   2.584  -0.996  0.00  0.00    -0.021 A 
ATOM     20  C   UNL     1      -2.346   2.196  -1.350  0.00  0.00    -0.045 A 
ATOM     21  C   UNL     1      -2.571   1.588  -2.571  0.00  0.00    +0.007 A 
ATOM     22  C   UNL     1      -3.496   2.441  -0.407  0.00  0.00    +0.044 C 
ATOM     23  C   UNL     1       1.383   2.772  -1.470  0.00  0.00    +0.044 C 
ENDBRANCH   1  19
BRANCH   8  24
ATOM     24  N   UNL     1       0.325   7.042  -2.773  0.00  0.00    +0.057 N 
ATOM     25  O   UNL     1       0.874   7.741  -3.607  0.00  0.00    -0.126 OA
ATOM     26  O   UNL     1      -0.859   7.196  -2.534  0.00  0.00    -0.126 OA
ENDBRANCH   8  24
BRANCH  11  27
ATOM     27  O   UNL     1       3.267   3.132  -0.052  0.00  0.00    -0.505 OA
ATOM     28  H   UNL     1       2.777   2.499   0.702  0.00  0.00    +0.292 HD
ENDBRANCH  11  27
TORSDOF 3
