REMARK  Name = ZINC19657272
REMARK  6 active torsions:
REMARK  status: ('A' for Active; 'I' for Inactive)
REMARK    1  A    between atoms: C_1  and  C_2
REMARK    2  A    between atoms: C_4  and  C_21
REMARK    3  A    between atoms: C_7  and  N_8
REMARK    4  A    between atoms: C_9  and  C_11
REMARK    5  A    between atoms: C_16  and  O_19
REMARK    6  A    between atoms: O_19  and  C_20
REMARK                            x       y       z     vdW  Elec       q    Type
REMARK                         _______ _______ _______ _____ _____    ______ ____
ROOT
ATOM      1  C   UNL     1      -6.467   7.558   0.143  0.00  0.00    +0.045 C 
ATOM      2  C   UNL     1      -4.967   7.707   0.140  0.00  0.00    -0.029 A 
ATOM      3  C   UNL     1      -4.164   6.586   0.129  0.00  0.00    +0.015 A 
ATOM      4  C   UNL     1      -2.777   6.725   0.126  0.00  0.00    +0.002 A 
ATOM      5  C   UNL     1      -2.205   7.996   0.141  0.00  0.00    +0.012 A 
ATOM      6  C   UNL     1      -3.012   9.114   0.147  0.00  0.00    +0.024 A 
ATOM      7  C   UNL     1      -4.395   8.973   0.149  0.00  0.00    +0.036 A 
ENDROOT
BRANCH   4   8
ATOM      8  C   UNL     1      -1.911   5.521   0.114  0.00  0.00    +0.093 A 
ATOM      9  C   UNL     1      -0.546   5.518   0.110  0.00  0.00    +0.144 A 
ATOM     10  N   UNL     1      -0.149   4.216   0.098  0.00  0.00    -0.203 N 
ATOM     11  C   UNL     1      -1.284   3.440   0.095  0.00  0.00    +0.252 A 
ATOM     12  N   UNL     1      -2.334   4.247   0.105  0.00  0.00    -0.209 NA
ATOM     13  N   UNL     1      -1.169   2.109   0.090  0.00  0.00    -0.214 NA
ATOM     14  C   UNL     1       0.011   1.520   0.080  0.00  0.00    +0.068 A 
ATOM     15  C   UNL     1       1.180   2.283   0.077  0.00  0.00    +0.083 A 
ATOM     16  N   UNL     1       1.104   3.597   0.088  0.00  0.00    -0.167 NA
ATOM     17  C   UNL     1       2.552   1.661   0.055  0.00  0.00    +0.059 C 
ATOM     18  C   UNL     1       2.481   0.194   0.475  0.00  0.00    +0.007 C 
ATOM     19  C   UNL     1       1.404  -0.499  -0.367  0.00  0.00    +0.007 C 
ATOM     20  C   UNL     1       0.036   0.013   0.078  0.00  0.00    +0.057 C 
ENDBRANCH   4   8
BRANCH   7  21
ATOM     21  N   UNL     1      -5.212  10.108   0.162  0.00  0.00    -0.285 N 
ATOM     22  C   UNL     1      -4.748  11.278  -0.320  0.00  0.00    +0.220 C 
ATOM     23  O   UNL     1      -3.660  11.325  -0.856  0.00  0.00    -0.275 OA
ATOM     24  H   UNL     1      -6.234  10.046   0.565  0.00  0.00    +0.155 HD
BRANCH  22  25
ATOM     25  C   UNL     1      -5.579  12.528  -0.194  0.00  0.00    +0.078 C 
ATOM     26  C   UNL     1      -5.845  12.817   1.285  0.00  0.00    +0.013 C 
ATOM     27  C   UNL     1      -4.514  13.015   2.013  0.00  0.00    +0.003 C 
ATOM     28  C   UNL     1      -3.762  14.193   1.390  0.00  0.00    +0.031 C 
ATOM     29  C   UNL     1      -3.496  13.904  -0.089  0.00  0.00    +0.119 C 
ATOM     30  C   UNL     1      -4.827  13.706  -0.817  0.00  0.00    +0.044 C 
BRANCH  29  31
ATOM     31  O   UNL     1      -2.794  15.004  -0.670  0.00  0.00    -0.380 OA
ATOM     32  C   UNL     1      -1.371  14.891  -0.593  0.00  0.00    +0.194 C 
ENDBRANCH  29  31
ENDBRANCH  22  25
ENDBRANCH   7  21
TORSDOF 4
