REMARK  Name = ZINC40175189
REMARK  10 active torsions:
REMARK  status: ('A' for Active; 'I' for Inactive)
REMARK    1  A    between atoms: C_1  and  C_2
REMARK    2  A    between atoms: N_6  and  C_19
REMARK    3  A    between atoms: C_9  and  C_18
REMARK    4  A    between atoms: N_11  and  C_12
REMARK    5  A    between atoms: C_19  and  C_21
REMARK    6  A    between atoms: C_19  and  C_22
REMARK    7  A    between atoms: N_24  and  C_25
REMARK    8  A    between atoms: C_26  and  C_32
REMARK    9  A    between atoms: C_27  and  C_31
REMARK   10  A    between atoms: C_28  and  C_30
REMARK                            x       y       z     vdW  Elec       q    Type
REMARK                         _______ _______ _______ _____ _____    ______ ____
ROOT
ATOM      1  C   UNL     1      -0.269   1.509   0.022  0.00  0.00    +0.045 C 
ATOM      2  C   UNL     1      -0.347   0.004   0.015  0.00  0.00    -0.033 A 
ATOM      3  C   UNL     1      -0.835  -0.656  -1.068  0.00  0.00    +0.074 A 
ATOM      4  C   UNL     1      -0.904  -2.061  -1.065  0.00  0.00    +0.254 A 
ATOM      5  O   UNL     1      -1.344  -2.645  -2.041  0.00  0.00    -0.268 OA
ATOM      6  N   UNL     1      -0.489  -2.769   0.003  0.00  0.00    -0.281 N 
ATOM      7  C   UNL     1       0.008  -2.135   1.109  0.00  0.00    +0.148 A 
ATOM      8  C   UNL     1       0.094  -0.741   1.133  0.00  0.00    +0.043 A 
ATOM      9  C   UNL     1       0.645  -0.380   2.385  0.00  0.00    +0.070 A 
ATOM     10  N   UNL     1       0.878  -1.471   3.059  0.00  0.00    -0.169 NA
ATOM     11  N   UNL     1       0.487  -2.580   2.300  0.00  0.00    -0.215 N 
ATOM     12  C   UNL     1       0.917   1.025   2.858  0.00  0.00    +0.068 C 
ENDROOT
BRANCH  11  13
ATOM     13  C   UNL     1       0.587  -3.921   2.695  0.00  0.00    +0.068 A 
ATOM     14  C   UNL     1       1.325  -4.817   1.934  0.00  0.00    +0.028 A 
ATOM     15  C   UNL     1       1.421  -6.138   2.326  0.00  0.00    +0.002 A 
ATOM     16  C   UNL     1       0.782  -6.568   3.474  0.00  0.00    +0.000 A 
ATOM     17  C   UNL     1       0.046  -5.678   4.234  0.00  0.00    +0.002 A 
ATOM     18  C   UNL     1      -0.048  -4.354   3.851  0.00  0.00    +0.028 A 
ENDBRANCH  11  13
BRANCH   6  19
ATOM     19  C   UNL     1      -0.571  -4.232  -0.020  0.00  0.00    +0.175 C 
ATOM     20  C   UNL     1       0.381  -4.780  -1.085  0.00  0.00    +0.041 C 
BRANCH  19  21
ATOM     21  C   UNL     1      -1.982  -4.651  -0.344  0.00  0.00    +0.240 C 
ATOM     22  O   UNL     1      -2.835  -3.810  -0.537  0.00  0.00    -0.273 OA
ATOM     23  N   UNL     1      -2.296  -5.959  -0.420  0.00  0.00    -0.278 N 
ATOM     24  H   UNL     1      -1.614  -6.631  -0.265  0.00  0.00    +0.155 HD
BRANCH  23  25
ATOM     25  C   UNL     1      -3.594  -6.344  -0.718  0.00  0.00    +0.084 A 
ATOM     26  C   UNL     1      -4.097  -7.632  -0.831  0.00  0.00    +0.068 A 
ATOM     27  C   UNL     1      -5.500  -7.752  -1.154  0.00  0.00    -0.027 A 
ATOM     28  C   UNL     1      -6.167  -6.594  -1.311  0.00  0.00    -0.008 A 
ATOM     29  S   UNL     1      -4.919  -5.360  -1.018  0.00  0.00    -0.078 S 
ATOM     30  C   UNL     1      -7.622  -6.391  -1.647  0.00  0.00    +0.052 C 
ATOM     31  C   UNL     1      -6.175  -9.091  -1.307  0.00  0.00    +0.045 C 
BRANCH  26  32
ATOM     32  C   UNL     1      -3.248  -8.811  -0.632  0.00  0.00    +0.244 C 
ATOM     33  O   UNL     1      -3.133  -9.298   0.477  0.00  0.00    -0.270 OA
ATOM     34  N   UNL     1      -2.596  -9.355  -1.679  0.00  0.00    -0.325 N 
ATOM     35  H   UNL     1      -2.688  -8.967  -2.563  0.00  0.00    +0.145 HD
ATOM     36  H   UNL     1      -2.034 -10.135  -1.548  0.00  0.00    +0.145 HD
ENDBRANCH  26  32
ENDBRANCH  23  25
ENDBRANCH  19  21
ENDBRANCH   6  19
TORSDOF 5
