REMARK  Name = ZINC09712729
REMARK  7 active torsions:
REMARK  status: ('A' for Active; 'I' for Inactive)
REMARK    1  A    between atoms: C_4  and  N_7
REMARK    2  A    between atoms: C_15  and  S_16
REMARK    3  A    between atoms: S_16  and  C_17
REMARK    4  A    between atoms: C_17  and  C_18
REMARK    5  A    between atoms: C_18  and  C_20
REMARK    6  A    between atoms: C_21  and  N_32
REMARK    7  A    between atoms: N_22  and  C_29
REMARK                            x       y       z     vdW  Elec       q    Type
REMARK                         _______ _______ _______ _____ _____    ______ ____
ROOT
ATOM      1  C   UNL     1      -3.899   3.208  -1.149  0.00  0.00    +0.157 C 
ENDROOT
BRANCH   1   2
ATOM      2  C   UNL     1      -5.288   2.945  -0.627  0.00  0.00    +0.182 C 
ATOM      3  O   UNL     1      -5.684   1.803  -0.505  0.00  0.00    -0.291 OA
BRANCH   2   4
ATOM      4  C   UNL     1      -6.128   4.024  -0.280  0.00  0.00    +0.120 A 
ATOM      5  C   UNL     1      -7.471   3.813   0.075  0.00  0.00    +0.116 A 
ATOM      6  N   UNL     1      -8.244   4.889   0.409  0.00  0.00    -0.278 N 
ATOM      7  C   UNL     1      -7.747   6.136   0.393  0.00  0.00    +0.331 A 
ATOM      8  O   UNL     1      -8.476   7.060   0.694  0.00  0.00    -0.246 OA
ATOM      9  N   UNL     1      -6.474   6.399   0.057  0.00  0.00    -0.274 N 
ATOM     10  H   UNL     1      -6.148   7.345   0.060  0.00  0.00    +0.173 HD
ATOM     11  C   UNL     1      -5.628   5.405  -0.283  0.00  0.00    +0.266 A 
ATOM     12  O   UNL     1      -4.474   5.647  -0.587  0.00  0.00    -0.267 OA
BRANCH   6  13
ATOM     13  C   UNL     1      -9.643   4.678   0.786  0.00  0.00    +0.094 C 
ATOM     14  C   UNL     1     -10.149   5.384   2.046  0.00  0.00    +0.027 C 
ATOM     15  C   UNL     1      -9.919   3.871   2.056  0.00  0.00    +0.027 C 
ENDBRANCH   6  13
BRANCH   5  16
ATOM     16  N   UNL     1      -7.993   2.556   0.091  0.00  0.00    -0.344 N 
ATOM     17  H   UNL     1      -7.414   1.793   0.245  0.00  0.00    +0.144 HD
ATOM     18  H   UNL     1      -8.943   2.423  -0.052  0.00  0.00    +0.144 HD
ENDBRANCH   5  16
ENDBRANCH   2   4
ENDBRANCH   1   2
BRANCH   1  19
ATOM     19  S   UNL     1      -3.078   1.634  -1.502  0.00  0.00    -0.079 S 
BRANCH  19  28
ATOM     20  N   UNL     1      -0.485   1.432  -2.495  0.00  0.00    -0.287 N 
ATOM     21  C   UNL     1       0.549   2.275  -2.874  0.00  0.00    +0.074 A 
ATOM     22  C   UNL     1       1.825   2.067  -3.373  0.00  0.00    +0.028 A 
ATOM     23  C   UNL     1       2.635   3.146  -3.660  0.00  0.00    +0.002 A 
ATOM     24  C   UNL     1       2.181   4.440  -3.452  0.00  0.00    +0.002 A 
ATOM     25  C   UNL     1       0.916   4.666  -2.957  0.00  0.00    +0.030 A 
ATOM     26  C   UNL     1       0.084   3.583  -2.661  0.00  0.00    +0.091 A 
ATOM     27  N   UNL     1      -1.181   3.486  -2.173  0.00  0.00    -0.222 NA
ATOM     28  C   UNL     1      -1.522   2.223  -2.080  0.00  0.00    +0.175 A 
BRANCH  20  32
ATOM     29  C   UNL     1      -0.448  -2.735  -2.614  0.00  0.00    +0.000 A 
ATOM     30  C   UNL     1      -0.534  -2.080  -1.399  0.00  0.00    +0.002 A 
ATOM     31  C   UNL     1      -0.547  -0.699  -1.356  0.00  0.00    +0.026 A 
ATOM     32  C   UNL     1      -0.472   0.031  -2.535  0.00  0.00    +0.049 A 
ATOM     33  C   UNL     1      -0.392  -0.629  -3.753  0.00  0.00    +0.026 A 
ATOM     34  C   UNL     1      -0.374  -2.010  -3.789  0.00  0.00    +0.002 A 
ENDBRANCH  20  32
ENDBRANCH  19  28
ENDBRANCH   1  19
TORSDOF 7
