REMARK  Name = ZINC09187895
REMARK  2 active torsions:
REMARK  status: ('A' for Active; 'I' for Inactive)
REMARK    1  A    between atoms: C_4  and  C_7
REMARK    2  A    between atoms: C_15  and  C_16
REMARK                            x       y       z     vdW  Elec       q    Type
REMARK                         _______ _______ _______ _____ _____    ______ ____
ROOT
ATOM      1  C   UNL     1       1.512   4.823   0.013  0.00  0.00    +0.172 A 
ATOM      2  N   UNL     1       0.626   5.786  -0.038  0.00  0.00    -0.128 NA
ATOM      3  N   UNL     1      -0.562   5.296  -0.007  0.00  0.00    -0.121 NA
ATOM      4  C   UNL     1      -0.501   3.998   0.064  0.00  0.00    +0.204 A 
ATOM      5  N   UNL     1       0.816   3.612   0.082  0.00  0.00    -0.235 N 
ATOM      6  C   UNL     1       1.107   2.308   0.152  0.00  0.00    +0.273 A 
ATOM      7  O   UNL     1       2.260   1.921   0.170  0.00  0.00    -0.266 OA
ATOM      8  C   UNL     1      -0.015   1.359   0.207  0.00  0.00    +0.081 A 
ATOM      9  C   UNL     1       0.004   0.003   0.281  0.00  0.00    +0.032 C 
ATOM     10  S   UNL     1      -1.411   2.474   0.142  0.00  0.00    -0.044 S 
ENDROOT
BRANCH   9  11
ATOM     11  C   UNL     1      -1.257  -0.748   0.325  0.00  0.00    +0.030 A 
ATOM     12  C   UNL     1      -1.467  -1.827  -0.545  0.00  0.00    +0.132 A 
ATOM     13  C   UNL     1      -2.657  -2.527  -0.495  0.00  0.00    +0.039 A 
ATOM     14  C   UNL     1      -3.639  -2.166   0.411  0.00  0.00    +0.004 A 
ATOM     15  C   UNL     1      -3.440  -1.102   1.273  0.00  0.00    +0.021 A 
ATOM     16  C   UNL     1      -2.256  -0.393   1.241  0.00  0.00    +0.051 A 
ATOM     17 CL   UNL     1      -2.008   0.936   2.329  0.00  0.00    -0.083 Cl
ATOM     18  F   UNL     1      -0.509  -2.181  -1.430  0.00  0.00    -0.205 F 
ENDBRANCH   9  11
BRANCH   1  22
ATOM     19  C   UNL     1       5.733   5.293  -0.024  0.00  0.00    +0.000 A 
ATOM     20  C   UNL     1       4.933   6.197  -0.700  0.00  0.00    +0.001 A 
ATOM     21  C   UNL     1       3.562   6.051  -0.692  0.00  0.00    +0.011 A 
ATOM     22  C   UNL     1       2.980   4.987   0.000  0.00  0.00    +0.020 A 
ATOM     23  C   UNL     1       3.793   4.081   0.686  0.00  0.00    +0.011 A 
ATOM     24  C   UNL     1       5.163   4.237   0.665  0.00  0.00    +0.001 A 
ENDBRANCH   1  22
TORSDOF 2
