REMARK  Name = ZINC11757393
REMARK  5 active torsions:
REMARK  status: ('A' for Active; 'I' for Inactive)
REMARK    1  A    between atoms: C_1  and  C_2
REMARK    2  A    between atoms: C_2  and  N_3
REMARK    3  A    between atoms: C_6  and  C_16
REMARK    4  A    between atoms: C_11  and  C_15
REMARK    5  A    between atoms: C_16  and  C_18
REMARK                            x       y       z     vdW  Elec       q    Type
REMARK                         _______ _______ _______ _____ _____    ______ ____
ROOT
ATOM      1  N   UNL     1       1.008   1.812   3.013  0.00  0.00    -0.265 N 
ATOM      2  C   UNL     1       1.329   3.044   2.425  0.00  0.00    +0.079 A 
ATOM      3  C   UNL     1       2.526   3.668   2.711  0.00  0.00    +0.038 A 
ATOM      4  C   UNL     1       2.827   4.899   2.114  0.00  0.00    +0.021 A 
ATOM      5  C   UNL     1       1.912   5.487   1.232  0.00  0.00    +0.015 A 
ATOM      6  C   UNL     1       0.719   4.857   0.953  0.00  0.00    +0.048 A 
ATOM      7  C   UNL     1       0.421   3.638   1.544  0.00  0.00    +0.143 A 
ATOM      8  O   UNL     1      -0.752   3.009   1.272  0.00  0.00    -0.478 OA
ATOM      9  C   UNL     1      -0.729   1.579   1.267  0.00  0.00    +0.256 C 
ATOM     10  C   UNL     1       0.001   1.079   2.488  0.00  0.00    +0.260 C 
ATOM     11  O   UNL     1      -0.315   0.025   2.997  0.00  0.00    -0.271 OA
ATOM     12  C   UNL     1      -0.013   1.086   0.008  0.00  0.00    +0.062 C 
ENDROOT
BRANCH   1  14
ATOM     13  C   UNL     1       2.948   0.495   3.709  0.00  0.00    +0.025 C 
ATOM     14  C   UNL     1       1.752   1.326   4.178  0.00  0.00    +0.110 C 
ENDBRANCH   1  14
BRANCH   4  15
ATOM     15  C   UNL     1       4.098   5.570   2.412  0.00  0.00    +0.178 C 
ATOM     16  O   UNL     1       4.890   5.059   3.175  0.00  0.00    -0.291 OA
BRANCH  15  17
ATOM     17  C   UNL     1       4.420   6.895   1.768  0.00  0.00    +0.188 C 
ATOM     18 CL   UNL     1       6.038   7.458   2.329  0.00  0.00    -0.117 Cl
ENDBRANCH  15  17
ENDBRANCH   4  15
TORSDOF 3
