REMARK  Name = ZINC06229110
REMARK  6 active torsions:
REMARK  status: ('A' for Active; 'I' for Inactive)
REMARK    1  A    between atoms: C_4  and  C_7
REMARK    2  A    between atoms: N_8  and  C_9
REMARK    3  A    between atoms: C_12  and  S_15
REMARK    4  A    between atoms: S_15  and  N_18
REMARK    5  A    between atoms: N_25  and  S_26
REMARK    6  A    between atoms: S_26  and  C_29
REMARK                            x       y       z     vdW  Elec       q    Type
REMARK                         _______ _______ _______ _____ _____    ______ ____
ROOT
ATOM      1  C   UNL     1       3.850  -0.685   0.434  0.00  0.00    +0.146 C 
ATOM      2  N   UNL     1       4.817  -0.013  -0.144  0.00  0.00    -0.231 NA
ATOM      3  N   UNL     1       3.787  -2.054   0.300  0.00  0.00    -0.199 N 
ATOM      4  H   UNL     1       3.071  -2.550   0.728  0.00  0.00    +0.175 HD
ENDROOT
BRANCH   1   8
ATOM      5  C   UNL     1       0.914   1.363   2.720  0.00  0.00    +0.000 A 
ATOM      6  C   UNL     1       0.544   0.297   1.920  0.00  0.00    +0.001 A 
ATOM      7  C   UNL     1       1.492  -0.372   1.175  0.00  0.00    +0.011 A 
ATOM      8  C   UNL     1       2.828   0.028   1.230  0.00  0.00    +0.016 A 
ATOM      9  C   UNL     1       3.195   1.104   2.039  0.00  0.00    +0.011 A 
ATOM     10  C   UNL     1       2.237   1.765   2.779  0.00  0.00    +0.001 A 
ENDBRANCH   1   8
BRANCH   2  11
ATOM     11  C   UNL     1       4.800   1.355  -0.137  0.00  0.00    +0.066 A 
ATOM     12  C   UNL     1       3.791   2.047  -0.811  0.00  0.00    +0.030 A 
ATOM     13  C   UNL     1       3.780   3.426  -0.799  0.00  0.00    +0.031 A 
ATOM     14  C   UNL     1       4.764   4.124  -0.121  0.00  0.00    +0.109 A 
ATOM     15  C   UNL     1       5.766   3.445   0.548  0.00  0.00    +0.031 A 
ATOM     16  C   UNL     1       5.787   2.065   0.550  0.00  0.00    +0.030 A 
BRANCH  14  17
ATOM     17  S   UNL     1       4.741   5.886  -0.112  0.00  0.00    +0.073 S 
ATOM     18  O   UNL     1       6.076   6.308   0.134  0.00  0.00    -0.150 OA
ATOM     19  O   UNL     1       4.015   6.289  -1.265  0.00  0.00    -0.150 OA
BRANCH  17  20
ATOM     20  N   UNL     1       3.847   6.357   1.200  0.00  0.00    -0.199 N 
ATOM     21  C   UNL     1       4.296   6.075   2.485  0.00  0.00    +0.138 A 
ATOM     22  C   UNL     1       3.537   6.469   3.582  0.00  0.00    +0.045 A 
ATOM     23  C   UNL     1       3.995   6.182   4.855  0.00  0.00    +0.005 A 
ATOM     24  C   UNL     1       5.203   5.509   4.988  0.00  0.00    +0.020 A 
ATOM     25  C   UNL     1       5.904   5.148   3.856  0.00  0.00    +0.113 A 
ATOM     26  N   UNL     1       5.439   5.430   2.653  0.00  0.00    -0.239 NA
ATOM     27  H   UNL     1       3.009   6.829   1.071  0.00  0.00    +0.175 HD
ENDBRANCH  17  20
ENDBRANCH  14  17
ENDBRANCH   2  11
BRANCH   3  28
ATOM     28  S   UNL     1       4.931  -2.852  -0.591  0.00  0.00    +0.073 S 
ATOM     29  O   UNL     1       4.612  -4.235  -0.517  0.00  0.00    -0.150 OA
ATOM     30  O   UNL     1       5.040  -2.160  -1.827  0.00  0.00    -0.150 OA
BRANCH  28  31
ATOM     31  C   UNL     1       6.473  -2.647   0.237  0.00  0.00    +0.109 A 
ATOM     32  C   UNL     1       7.281  -1.566  -0.063  0.00  0.00    +0.029 A 
ATOM     33  C   UNL     1       8.490  -1.405   0.587  0.00  0.00    +0.002 A 
ATOM     34  C   UNL     1       8.892  -2.325   1.538  0.00  0.00    +0.000 A 
ATOM     35  C   UNL     1       8.083  -3.405   1.839  0.00  0.00    +0.002 A 
ATOM     36  C   UNL     1       6.872  -3.564   1.192  0.00  0.00    +0.029 A 
ENDBRANCH  28  31
ENDBRANCH   3  28
TORSDOF 6
