REMARK  Name = ZINC39664917
REMARK  9 active torsions:
REMARK  status: ('A' for Active; 'I' for Inactive)
REMARK    1  A    between atoms: C_1  and  C_2
REMARK    2  A    between atoms: C_6  and  C_7
REMARK    3  A    between atoms: C_11  and  C_20
REMARK    4  A    between atoms: N_22  and  C_23
REMARK    5  A    between atoms: C_23  and  C_25
REMARK    6  A    between atoms: C_23  and  C_29
REMARK    7  A    between atoms: C_25  and  N_26
REMARK    8  A    between atoms: N_26  and  C_27
REMARK    9  A    between atoms: N_26  and  C_28
REMARK                            x       y       z     vdW  Elec       q    Type
REMARK                         _______ _______ _______ _____ _____    ______ ____
ROOT
ATOM      1  C   UNL     1       0.775   0.612   3.443  0.00  0.00    +0.254 C 
ATOM      2  O   UNL     1       0.984   1.681   3.985  0.00  0.00    -0.269 OA
ATOM      3  N   UNL     1       0.493  -0.477   4.186  0.00  0.00    -0.296 N 
ATOM      4  C   UNL     1       0.320  -1.873   3.722  0.00  0.00    +0.121 C 
ATOM      5  C   UNL     1       0.999  -2.734   4.811  0.00  0.00    +0.100 C 
ATOM      6  C   UNL     1       0.972  -1.859   6.075  0.00  0.00    -0.004 C 
ATOM      7  C   UNL     1       0.292  -0.548   5.653  0.00  0.00    +0.115 C 
ATOM      8  C   UNL     1       0.165  -2.544   7.174  0.00  0.00    -0.010 C 
ATOM      9  C   UNL     1       0.201  -1.682   8.440  0.00  0.00    -0.082 C 
ATOM     10  N   UNL     1       1.593  -1.498   8.869  0.00  0.00    +0.379 N 
ATOM     11  C   UNL     1       2.339  -0.756   7.845  0.00  0.00    -0.082 C 
ATOM     12  C   UNL     1       2.393  -1.579   6.555  0.00  0.00    -0.010 C 
ATOM     13  H   UNL     1       1.610  -0.982   9.736  0.00  0.00    -0.086 HD
ATOM     14  H   UNL     1       2.022  -2.400   9.009  0.00  0.00    -0.086 HD
ENDROOT
BRANCH   1  20
ATOM     15  C   UNL     1       1.338   2.929   1.439  0.00  0.00    +0.045 C 
ATOM     16  C   UNL     1       1.075   1.499   1.044  0.00  0.00    -0.031 A 
ATOM     17  C   UNL     1       1.068   1.093  -0.269  0.00  0.00    +0.011 A 
ATOM     18  C   UNL     1       0.825  -0.210  -0.555  0.00  0.00    +0.046 A 
ATOM     19  S   UNL     1       0.597  -0.926   0.948  0.00  0.00    -0.092 S 
ATOM     20  C   UNL     1       0.830   0.508   1.982  0.00  0.00    +0.077 A 
ENDBRANCH   1  20
BRANCH   5  21
ATOM     21  C   UNL     1       2.420  -3.050   4.420  0.00  0.00    +0.219 C 
ATOM     22  O   UNL     1       3.065  -2.248   3.778  0.00  0.00    -0.275 OA
ATOM     23  N   UNL     1       2.973  -4.224   4.783  0.00  0.00    -0.310 N 
ATOM     24  H   UNL     1       2.480  -4.838   5.349  0.00  0.00    +0.149 HD
BRANCH  23  25
ATOM     25  C   UNL     1       4.320  -4.573   4.323  0.00  0.00    +0.087 C 
BRANCH  25  26
ATOM     26  C   UNL     1       5.036  -5.341   5.403  0.00  0.00    -0.029 A 
ATOM     27  C   UNL     1       4.357  -6.291   6.142  0.00  0.00    +0.005 A 
ATOM     28  C   UNL     1       5.014  -6.996   7.133  0.00  0.00    +0.000 A 
ATOM     29  C   UNL     1       6.351  -6.751   7.385  0.00  0.00    +0.000 A 
ATOM     30  C   UNL     1       7.031  -5.802   6.645  0.00  0.00    +0.000 A 
ATOM     31  C   UNL     1       6.375  -5.100   5.651  0.00  0.00    +0.005 A 
ENDBRANCH  25  26
BRANCH  25  32
ATOM     32  C   UNL     1       4.221  -5.435   3.063  0.00  0.00    -0.052 C 
BRANCH  32  33
ATOM     33  N   UNL     1       3.484  -4.703   2.025  0.00  0.00    +0.377 N 
ATOM     34  C   UNL     1       4.290  -3.566   1.562  0.00  0.00    -0.097 C 
ATOM     35  C   UNL     1       3.209  -5.600   0.894  0.00  0.00    -0.097 C 
ATOM     36  H   UNL     1       2.613  -4.365   2.405  0.00  0.00    -0.083 HD
ENDBRANCH  32  33
ENDBRANCH  25  32
ENDBRANCH  23  25
ENDBRANCH   5  21
TORSDOF 6
