REMARK  Name = ZINC35271404
REMARK  9 active torsions:
REMARK  status: ('A' for Active; 'I' for Inactive)
REMARK    1  A    between atoms: C_1  and  C_2
REMARK    2  A    between atoms: C_2  and  C_23
REMARK    3  A    between atoms: C_4  and  O_22
REMARK    4  A    between atoms: C_6  and  C_17
REMARK    5  A    between atoms: C_8  and  O_16
REMARK    6  A    between atoms: C_10  and  C_12
REMARK    7  A    between atoms: C_12  and  C_14
REMARK    8  A    between atoms: C_14  and  O_15
REMARK    9  A    between atoms: C_17  and  C_19
REMARK                            x       y       z     vdW  Elec       q    Type
REMARK                         _______ _______ _______ _____ _____    ______ ____
ROOT
ATOM      1  C   UNL     1      -0.260   1.715  -0.197  0.00  0.00    +0.016 C 
ATOM      2  C   UNL     1       0.134   0.255   0.033  0.00  0.00    -0.003 C 
ATOM      3  C   UNL     1      -1.125  -0.613   0.080  0.00  0.00    +0.043 C 
ATOM      4  C   UNL     1      -2.026  -0.142   1.223  0.00  0.00    +0.125 C 
ATOM      5  C   UNL     1      -1.273  -0.264   2.549  0.00  0.00    +0.083 C 
ATOM      6  C   UNL     1      -0.014   0.603   2.502  0.00  0.00    +0.133 C 
ATOM      7  C   UNL     1       0.887   0.133   1.359  0.00  0.00    +0.056 C 
ENDROOT
BRANCH   7   8
ATOM      8  C   UNL     1       2.128   0.987   1.313  0.00  0.00    -0.045 C 
ATOM      9  C   UNL     1       2.211   2.062   2.057  0.00  0.00    +0.010 C 
BRANCH   8  10
ATOM     10  C   UNL     1       3.273   0.604   0.411  0.00  0.00    +0.186 C 
BRANCH  10  11
ATOM     11  O   UNL     1       4.375   1.485   0.640  0.00  0.00    -0.391 OA
ATOM     12  H   UNL     1       5.149   1.297   0.093  0.00  0.00    +0.210 HD
ENDBRANCH  10  11
ENDBRANCH   8  10
ENDBRANCH   7   8
BRANCH   6  13
ATOM     13  O   UNL     1      -0.382   1.967   2.288  0.00  0.00    -0.390 OA
ATOM     14  H   UNL     1      -0.882   2.359   3.017  0.00  0.00    +0.210 HD
ENDBRANCH   6  13
BRANCH   5  15
ATOM     15  C   UNL     1      -2.161   0.200   3.676  0.00  0.00    +0.042 C 
ATOM     16  C   UNL     1      -3.242   0.933   3.413  0.00  0.00    +0.020 C 
BRANCH  15  17
ATOM     17  C   UNL     1      -1.834  -0.155   5.061  0.00  0.00    +0.383 C 
ATOM     18  O   UNL     1      -2.597   0.152   5.968  0.00  0.00    -0.241 OA
ATOM     19  O   UNL     1      -0.800  -0.760   5.310  0.00  0.00    -0.241 OA
ENDBRANCH  15  17
ENDBRANCH   5  15
BRANCH   4  20
ATOM     20  O   UNL     1      -3.203  -0.952   1.267  0.00  0.00    -0.391 OA
ATOM     21  H   UNL     1      -3.731  -0.923   0.457  0.00  0.00    +0.210 HD
ENDBRANCH   4  20
BRANCH   2  22
ATOM     22  C   UNL     1       1.022  -0.209  -1.093  0.00  0.00    -0.027 C 
ATOM     23  C   UNL     1       1.333   0.614  -2.063  0.00  0.00    +0.004 C 
ENDBRANCH   2  22
TORSDOF 8
