REMARK  Name = ZINC12415019
REMARK  11 active torsions:
REMARK  status: ('A' for Active; 'I' for Inactive)
REMARK    1  A    between atoms: C_1  and  C_2
REMARK    2  A    between atoms: C_2  and  N_3
REMARK    3  A    between atoms: N_3  and  C_4
REMARK    4  A    between atoms: N_3  and  C_6
REMARK    5  A    between atoms: C_4  and  C_5
REMARK    6  A    between atoms: C_9  and  N_13
REMARK    7  A    between atoms: C_10  and  C_12
REMARK    8  A    between atoms: C_14  and  C_16
REMARK    9  A    between atoms: C_16  and  N_17
REMARK   10  A    between atoms: C_22  and  C_32
REMARK   11  A    between atoms: C_24  and  C_31
REMARK                            x       y       z     vdW  Elec       q    Type
REMARK                         _______ _______ _______ _____ _____    ______ ____
ROOT
ATOM      1  C   UNL     1       3.741  -0.970   0.175  0.00  0.00    +0.222 C 
ENDROOT
BRANCH   1   2
ATOM      2  N   UNL     1       3.496  -2.412   0.266  0.00  0.00    -0.289 N 
ATOM      3  C   UNL     1       3.422  -3.168  -0.859  0.00  0.00    +0.203 A 
ATOM      4  N   UNL     1       3.208  -4.446  -0.837  0.00  0.00    -0.236 NA
ATOM      5  C   UNL     1       3.040  -5.133   0.330  0.00  0.00    +0.094 A 
ATOM      6  C   UNL     1       2.793  -6.575   0.495  0.00  0.00    +0.037 A 
ATOM      7  C   UNL     1       2.676  -7.554  -0.520  0.00  0.00    -0.037 A 
ATOM      8  C   UNL     1       2.443  -8.862  -0.161  0.00  0.00    +0.027 A 
ATOM      9  C   UNL     1       2.323  -9.210   1.175  0.00  0.00    +0.040 A 
ATOM     10  N   UNL     1       2.432  -8.293   2.117  0.00  0.00    -0.245 NA
ATOM     11  C   UNL     1       2.656  -7.030   1.820  0.00  0.00    +0.112 A 
ATOM     12  S   UNL     1       2.854  -5.564   2.804  0.00  0.00    -0.062 S 
ATOM     13  C   UNL     1       3.110  -4.387   1.504  0.00  0.00    +0.105 A 
ATOM     14  C   UNL     1       3.346  -3.006   1.474  0.00  0.00    +0.269 A 
ATOM     15  O   UNL     1       3.412  -2.357   2.505  0.00  0.00    -0.266 OA
ATOM     16  C   UNL     1       2.067 -10.646   1.555  0.00  0.00    +0.065 C 
ATOM     17  C   UNL     1       2.806  -7.171  -1.972  0.00  0.00    +0.044 C 
ENDBRANCH   1   2
BRANCH   1  19
ATOM     18  N   UNL     1       2.404   1.102  -0.015  0.00  0.00    -0.284 N 
ATOM     19  C   UNL     1       2.425  -0.242   0.078  0.00  0.00    +0.237 C 
ATOM     20  O   UNL     1       1.385  -0.866   0.085  0.00  0.00    -0.274 OA
ATOM     21  H   UNL     1       3.235   1.597  -0.087  0.00  0.00    +0.155 HD
BRANCH  18  25
ATOM     22  C   UNL     1      -1.237   3.137  -0.001  0.00  0.00    +0.030 A 
ATOM     23  C   UNL     1      -1.140   1.892  -0.609  0.00  0.00    +0.025 A 
ATOM     24  C   UNL     1       0.064   1.216  -0.609  0.00  0.00    +0.025 A 
ATOM     25  C   UNL     1       1.180   1.786  -0.010  0.00  0.00    +0.036 A 
ATOM     26  C   UNL     1       1.084   3.033   0.593  0.00  0.00    -0.028 A 
ATOM     27  C   UNL     1      -0.121   3.706   0.598  0.00  0.00    +0.028 A 
ATOM     28  C   UNL     1       2.295   3.650   1.243  0.00  0.00    +0.046 C 
BRANCH  22  29
ATOM     29  N   UNL     1      -2.458   3.819   0.004  0.00  0.00    -0.330 N 
BRANCH  29  31
ATOM     30  C   UNL     1      -4.394   2.378   0.403  0.00  0.00    +0.024 C 
ATOM     31  C   UNL     1      -3.636   3.218  -0.627  0.00  0.00    +0.102 C 
ENDBRANCH  29  31
BRANCH  29  32
ATOM     32  C   UNL     1      -2.560   5.135   0.641  0.00  0.00    +0.102 C 
ATOM     33  C   UNL     1      -2.247   6.224  -0.388  0.00  0.00    +0.024 C 
ENDBRANCH  29  32
ENDBRANCH  22  29
ENDBRANCH  18  25
ENDBRANCH   1  19
TORSDOF 6
