REMARK  Name = ZINC52550578
REMARK  7 active torsions:
REMARK  status: ('A' for Active; 'I' for Inactive)
REMARK    1  A    between atoms: C_4  and  C_10
REMARK    2  A    between atoms: N_13  and  C_16
REMARK    3  A    between atoms: C_16  and  C_18
REMARK    4  A    between atoms: C_16  and  C_20
REMARK    5  A    between atoms: C_18  and  O_19
REMARK    6  A    between atoms: C_26  and  C_28
REMARK    7  A    between atoms: C_29  and  C_30
REMARK                            x       y       z     vdW  Elec       q    Type
REMARK                         _______ _______ _______ _____ _____    ______ ____
ROOT
ATOM      1  C   UNL     1       7.187   6.209  -0.038  0.00  0.00    -0.039 C 
ENDROOT
BRANCH   1   2
ATOM      2  C   UNL     1       8.124   6.368  -1.238  0.00  0.00    -0.020 C 
ATOM      3  C   UNL     1       9.134   5.218  -1.252  0.00  0.00    +0.021 C 
ATOM      4  C   UNL     1      10.048   5.362  -2.473  0.00  0.00    +0.108 C 
ATOM      5  N   UNL     1      10.656   6.699  -2.453  0.00  0.00    -0.298 N 
ATOM      6  C   UNL     1       9.779   7.873  -2.349  0.00  0.00    +0.108 C 
ATOM      7  C   UNL     1       8.868   7.701  -1.130  0.00  0.00    +0.021 C 
ATOM      8  C   UNL     1      11.994   6.847  -2.529  0.00  0.00    +0.239 C 
ATOM      9  O   UNL     1      12.704   5.875  -2.707  0.00  0.00    -0.271 OA
BRANCH   8  10
ATOM     10  C   UNL     1      12.592   8.176  -2.397  0.00  0.00    +0.068 C 
ATOM     11  C   UNL     1      13.934   8.312  -2.369  0.00  0.00    +0.013 C 
BRANCH  11  12
ATOM     12  C   UNL     1      14.536   9.648  -2.237  0.00  0.00    -0.023 A 
ATOM     13  C   UNL     1      13.719  10.779  -2.134  0.00  0.00    +0.009 A 
ATOM     14  C   UNL     1      14.289  12.028  -2.010  0.00  0.00    +0.022 A 
ATOM     15  C   UNL     1      15.667  12.166  -1.987  0.00  0.00    +0.059 A 
ATOM     16  C   UNL     1      16.483  11.050  -2.089  0.00  0.00    +0.060 A 
ATOM     17  C   UNL     1      15.926   9.793  -2.208  0.00  0.00    +0.029 A 
ATOM     18 CL   UNL     1      18.209  11.233  -2.061  0.00  0.00    -0.082 Cl
ATOM     19 CL   UNL     1      16.376  13.743  -1.831  0.00  0.00    -0.082 Cl
ENDBRANCH  11  12
ENDBRANCH   8  10
ENDBRANCH   1   2
BRANCH   1  23
ATOM     20  C   UNL     1       4.308   3.072  -0.202  0.00  0.00    +0.014 C 
ATOM     21  C   UNL     1       5.090   3.309   1.093  0.00  0.00    -0.011 C 
ATOM     22  C   UNL     1       5.672   4.724   1.078  0.00  0.00    -0.078 C 
ATOM     23  N   UNL     1       6.571   4.876  -0.072  0.00  0.00    +0.383 N 
ATOM     24  C   UNL     1       5.813   4.720  -1.320  0.00  0.00    -0.078 C 
ATOM     25  C   UNL     1       5.236   3.305  -1.398  0.00  0.00    -0.011 C 
ATOM     26  H   UNL     1       7.293   4.172  -0.029  0.00  0.00    -0.081 HD
BRANCH  20  30
ATOM     27  C   UNL     1       0.092   1.261  -0.459  0.00  0.00    +0.020 A 
ATOM     28  C   UNL     1       1.238   1.990  -0.389  0.00  0.00    +0.013 A 
ATOM     29  C   UNL     1       2.507   1.255  -0.309  0.00  0.00    +0.018 A 
ATOM     30  C   UNL     1       3.797   1.654  -0.230  0.00  0.00    -0.037 C 
ATOM     31  C   UNL     1       4.622   0.388  -0.176  0.00  0.00    +0.146 C 
ATOM     32  N   UNL     1       3.663  -0.720  -0.232  0.00  0.00    -0.365 N 
ATOM     33  C   UNL     1       2.452  -0.224  -0.308  0.00  0.00    +0.134 A 
ATOM     34  N   UNL     1       1.243  -0.822  -0.382  0.00  0.00    -0.238 NA
ATOM     35  C   UNL     1       0.136  -0.136  -0.453  0.00  0.00    +0.113 A 
ATOM     36  H   UNL     1       3.888  -1.664  -0.217  0.00  0.00    +0.161 HD
ENDBRANCH  20  30
ENDBRANCH   1  23
BRANCH   1  37
ATOM     37  C   UNL     1       7.985   6.369   1.257  0.00  0.00    +0.141 C 
BRANCH  37  38
ATOM     38  O   UNL     1       9.004   5.368   1.316  0.00  0.00    -0.397 OA
ATOM     39  H   UNL     1       9.550   5.409   2.113  0.00  0.00    +0.209 HD
ENDBRANCH  37  38
ENDBRANCH   1  37
TORSDOF 7
