REMARK  Name = ZINC23101348
REMARK  9 active torsions:
REMARK  status: ('A' for Active; 'I' for Inactive)
REMARK    1  A    between atoms: C_1  and  C_2
REMARK    2  A    between atoms: C_2  and  C_3
REMARK    3  A    between atoms: C_3  and  C_5
REMARK    4  A    between atoms: C_3  and  C_6
REMARK    5  A    between atoms: C_6  and  C_8
REMARK    6  A    between atoms: C_6  and  N_23
REMARK    7  A    between atoms: N_10  and  C_11
REMARK    8  A    between atoms: C_11  and  C_12
REMARK    9  A    between atoms: C_24  and  C_26
REMARK                            x       y       z     vdW  Elec       q    Type
REMARK                         _______ _______ _______ _____ _____    ______ ____
ROOT
ATOM      1  C   UNL     1      -1.084   3.100  -0.218  0.00  0.00    +0.234 C 
ATOM      2  O   UNL     1      -1.193   3.803   0.764  0.00  0.00    -0.274 OA
ATOM      3  N   UNL     1      -1.431   3.576  -1.430  0.00  0.00    -0.310 N 
ATOM      4  H   UNL     1      -1.410   2.913  -2.308  0.00  0.00    +0.149 HD
ENDROOT
BRANCH   1   5
ATOM      5  C   UNL     1      -0.559   1.694  -0.083  0.00  0.00    +0.162 C 
BRANCH   5   6
ATOM      6  N   UNL     1      -0.267   1.414   1.325  0.00  0.00    -0.300 N 
ATOM      7  C   UNL     1      -0.389   0.160   1.803  0.00  0.00    +0.245 C 
ATOM      8  O   UNL     1      -0.637  -0.758   1.045  0.00  0.00    -0.270 OA
ATOM      9  H   UNL     1       0.051   2.228   1.993  0.00  0.00    +0.150 HD
BRANCH   7  10
ATOM     10  C   UNL     1      -0.222  -0.101   3.248  0.00  0.00    +0.037 A 
ATOM     11  C   UNL     1       0.068   0.950   4.120  0.00  0.00    +0.014 A 
ATOM     12  C   UNL     1       0.217   0.702   5.469  0.00  0.00    +0.021 A 
ATOM     13  C   UNL     1       0.091  -0.588   5.956  0.00  0.00    +0.041 A 
ATOM     14  C   UNL     1      -0.190  -1.636   5.095  0.00  0.00    +0.021 A 
ATOM     15  C   UNL     1      -0.347  -1.399   3.745  0.00  0.00    +0.014 A 
ATOM     16 CL   UNL     1       0.288  -0.894   7.654  0.00  0.00    -0.084 Cl
ENDBRANCH   7  10
ENDBRANCH   5   6
BRANCH   5  17
ATOM     17  C   UNL     1       0.721   1.546  -0.907  0.00  0.00    +0.015 C 
ATOM     18  C   UNL     1       1.161   0.080  -0.908  0.00  0.00    +0.010 C 
BRANCH  17  20
ATOM     19  C   UNL     1       1.480   3.888  -0.482  0.00  0.00    +0.004 C 
ATOM     20  C   UNL     1       1.826   2.409  -0.295  0.00  0.00    +0.002 C 
ENDBRANCH  17  20
ENDBRANCH   5  17
ENDBRANCH   1   5
BRANCH   3  21
ATOM     21  C   UNL     1      -1.837   4.976  -1.578  0.00  0.00    +0.141 C 
BRANCH  21  22
ATOM     22  C   UNL     1      -2.172   5.252  -3.021  0.00  0.00    -0.014 A 
ATOM     23  C   UNL     1      -3.468   5.071  -3.487  0.00  0.00    +0.010 A 
ATOM     24  C   UNL     1      -3.733   5.336  -4.819  0.00  0.00    +0.042 A 
ATOM     25  C   UNL     1      -2.699   5.771  -5.641  0.00  0.00    +0.099 A 
ATOM     26  N   UNL     1      -1.476   5.931  -5.159  0.00  0.00    -0.349 N 
ATOM     27  C   UNL     1      -1.196   5.691  -3.892  0.00  0.00    +0.089 A 
ATOM     28  N   UNL     1      -2.951   6.040  -6.981  0.00  0.00    -0.317 N 
ATOM     29  C   UNL     1      -3.925   7.152  -7.126  0.00  0.00    +0.106 C 
ATOM     30  C   UNL     1      -3.683   7.649  -8.574  0.00  0.00    +0.020 C 
ATOM     31  C   UNL     1      -2.151   7.519  -8.732  0.00  0.00    +0.020 C 
ATOM     32  C   UNL     1      -1.723   6.487  -7.673  0.00  0.00    +0.106 C 
ATOM     33  H   UNL     1      -0.665   6.272  -5.819  0.00  0.00    +0.167 HD
ENDBRANCH  21  22
ENDBRANCH   3  21
TORSDOF 7
