REMARK  Name = ZINC21259963
REMARK  8 active torsions:
REMARK  status: ('A' for Active; 'I' for Inactive)
REMARK    1  A    between atoms: C_1  and  C_2
REMARK    2  A    between atoms: C_2  and  O_3
REMARK    3  A    between atoms: O_3  and  C_4
REMARK    4  A    between atoms: C_9  and  C_10
REMARK    5  A    between atoms: C_15  and  C_20
REMARK    6  A    between atoms: C_23  and  N_26
REMARK    7  A    between atoms: N_26  and  C_27
REMARK    8  A    between atoms: N_26  and  C_28
REMARK                            x       y       z     vdW  Elec       q    Type
REMARK                         _______ _______ _______ _____ _____    ______ ____
ROOT
ATOM      1  C   UNL     1      -0.059   5.351   0.030  0.00  0.00    +0.139 C 
ATOM      2  C   UNL     1      -0.262   5.834  -1.385  0.00  0.00    +0.037 C 
ATOM      3  C   UNL     1       0.659   6.447  -2.149  0.00  0.00    +0.017 C 
ATOM      4  C   UNL     1       0.317   6.896  -3.559  0.00  0.00    +0.059 C 
ATOM      5  C   UNL     1      -0.706   5.944  -4.177  0.00  0.00    +0.032 C 
ATOM      6  C   UNL     1      -1.957   5.965  -3.290  0.00  0.00    +0.088 C 
ATOM      7  C   UNL     1      -1.558   5.586  -1.895  0.00  0.00    +0.163 C 
ATOM      8  O   UNL     1      -2.378   5.047  -1.177  0.00  0.00    -0.292 OA
ATOM      9  N   UNL     1       1.925   6.731  -1.752  0.00  0.00    -0.316 N 
ATOM     10  C   UNL     1       2.774   5.843  -1.101  0.00  0.00    +0.052 A 
ATOM     11  C   UNL     1       3.944   5.380  -1.677  0.00  0.00    +0.025 A 
ATOM     12  C   UNL     1       4.767   4.534  -0.953  0.00  0.00    +0.002 A 
ATOM     13  C   UNL     1       4.424   4.159   0.333  0.00  0.00    +0.002 A 
ATOM     14  C   UNL     1       3.245   4.607   0.903  0.00  0.00    +0.025 A 
ATOM     15  C   UNL     1       2.409   5.435   0.173  0.00  0.00    +0.049 A 
ATOM     16  N   UNL     1       1.160   5.818   0.655  0.00  0.00    -0.331 N 
ATOM     17  H   UNL     1       2.350   7.728  -1.940  0.00  0.00    +0.152 HD
ATOM     18  H   UNL     1       1.109   6.488   1.526  0.00  0.00    +0.147 HD
ENDROOT
BRANCH   1  24
ATOM     19  C   UNL     1      -0.228   3.141   1.204  0.00  0.00    +0.126 A 
ATOM     20  C   UNL     1      -0.217   1.754   1.192  0.00  0.00    +0.046 A 
ATOM     21  C   UNL     1      -0.013   1.076   0.006  0.00  0.00    +0.004 A 
ATOM     22  C   UNL     1       0.171   1.779  -1.171  0.00  0.00    +0.001 A 
ATOM     23  C   UNL     1       0.156   3.161  -1.162  0.00  0.00    +0.009 A 
ATOM     24  C   UNL     1      -0.043   3.844   0.022  0.00  0.00    +0.019 A 
BRANCH  19  25
ATOM     25  O   UNL     1      -0.424   3.811   2.370  0.00  0.00    -0.492 OA
BRANCH  25  27
ATOM     26  C   UNL     1      -0.813   3.944   4.752  0.00  0.00    +0.048 C 
ATOM     27  C   UNL     1      -0.607   3.022   3.548  0.00  0.00    +0.225 C 
ENDBRANCH  25  27
ENDBRANCH  19  25
ENDBRANCH   1  24
BRANCH   5  28
ATOM     28  C   UNL     1      -1.058   6.405  -5.568  0.00  0.00    -0.043 A 
ATOM     29  C   UNL     1      -1.619   7.655  -5.759  0.00  0.00    +0.006 A 
ATOM     30  C   UNL     1      -1.938   8.083  -7.033  0.00  0.00    +0.023 A 
ATOM     31  C   UNL     1      -1.705   7.252  -8.121  0.00  0.00    +0.029 A 
ATOM     32  C   UNL     1      -1.147   5.995  -7.925  0.00  0.00    +0.023 A 
ATOM     33  C   UNL     1      -0.825   5.576  -6.649  0.00  0.00    +0.006 A 
BRANCH  31  34
ATOM     34  N   UNL     1      -2.031   7.679  -9.411  0.00  0.00    -0.336 N 
ATOM     35  C   UNL     1      -1.784   6.802 -10.558  0.00  0.00    +0.129 C 
ATOM     36  C   UNL     1      -2.620   9.005  -9.616  0.00  0.00    +0.129 C 
ENDBRANCH  31  34
ENDBRANCH   5  28
TORSDOF 5
