REMARK  Name = ZINC10220549
REMARK  3 active torsions:
REMARK  status: ('A' for Active; 'I' for Inactive)
REMARK    1  A    between atoms: C_4  and  N_7
REMARK    2  A    between atoms: N_10  and  C_11
REMARK    3  A    between atoms: C_11  and  C_12
REMARK                            x       y       z     vdW  Elec       q    Type
REMARK                         _______ _______ _______ _____ _____    ______ ____
ROOT
ATOM      1  N   UNL     1       2.839  -0.440  -2.473  0.00  0.00    -0.297 N 
ATOM      2  C   UNL     1       3.424  -1.655  -2.483  0.00  0.00    +0.300 C 
ATOM      3  O   UNL     1       3.383  -2.358  -1.492  0.00  0.00    -0.253 OA
ATOM      4  N   UNL     1       4.055  -2.089  -3.592  0.00  0.00    -0.297 N 
ATOM      5  H   UNL     1       2.872   0.121  -3.264  0.00  0.00    +0.151 HD
ATOM      6  H   UNL     1       4.088  -1.528  -4.383  0.00  0.00    +0.150 HD
ENDROOT
BRANCH   1  10
ATOM      7  C   UNL     1      -0.019   1.526   0.010  0.00  0.00    +0.000 C 
ATOM      8  C   UNL     1       1.417   2.055  -0.000  0.00  0.00    +0.002 C 
ATOM      9  C   UNL     1       2.133   1.562  -1.259  0.00  0.00    +0.022 C 
ATOM     10  C   UNL     1       2.154   0.032  -1.268  0.00  0.00    +0.074 C 
ATOM     11  C   UNL     1       0.718  -0.497  -1.257  0.00  0.00    +0.022 C 
ATOM     12  C   UNL     1       0.002  -0.004   0.002  0.00  0.00    +0.002 C 
ENDBRANCH   1  10
BRANCH   4  13
ATOM     13  C   UNL     1       4.691  -3.409  -3.603  0.00  0.00    +0.139 C 
BRANCH  13  14
ATOM     14  C   UNL     1       5.331  -3.655  -4.971  0.00  0.00    +0.164 C 
ATOM     15  C   UNL     1       5.930  -5.078  -5.035  0.00  0.00    +0.196 C 
ATOM     16  O   UNL     1       7.167  -4.878  -5.764  0.00  0.00    -0.346 OA
ATOM     17  C   UNL     1       7.611  -3.590  -5.309  0.00  0.00    +0.171 C 
ATOM     18  O   UNL     1       6.447  -2.767  -5.169  0.00  0.00    -0.342 OA
ATOM     19  C   UNL     1       8.348  -3.723  -3.967  0.00  0.00    +0.065 C 
ATOM     20  C   UNL     1       9.847  -3.757  -4.363  0.00  0.00    +0.005 C 
ATOM     21  C   UNL     1       9.915  -2.749  -5.537  0.00  0.00    +0.005 C 
ATOM     22  C   UNL     1       8.597  -2.977  -6.309  0.00  0.00    +0.065 C 
ENDBRANCH  13  14
ENDBRANCH   4  13
TORSDOF 3
