REMARK  Name = ZINC02427693
REMARK  10 active torsions:
REMARK  status: ('A' for Active; 'I' for Inactive)
REMARK    1  A    between atoms: C_1  and  C_2
REMARK    2  A    between atoms: C_2  and  C_4
REMARK    3  A    between atoms: C_2  and  N_11
REMARK    4  A    between atoms: C_4  and  C_5
REMARK    5  A    between atoms: C_12  and  C_14
REMARK    6  A    between atoms: C_14  and  S_15
REMARK    7  A    between atoms: S_15  and  C_16
REMARK    8  A    between atoms: C_25  and  C_28
REMARK    9  A    between atoms: C_25  and  C_29
REMARK   10  A    between atoms: N_32  and  C_33
REMARK                            x       y       z     vdW  Elec       q    Type
REMARK                         _______ _______ _______ _____ _____    ______ ____
ROOT
ATOM      1  C   UNL     1       5.386  -2.420   3.446  0.00  0.00    +0.179 A 
ATOM      2  N   UNL     1       4.591  -2.754   4.432  0.00  0.00    -0.203 NA
ATOM      3  C   UNL     1       4.945  -2.576   5.720  0.00  0.00    +0.168 A 
ATOM      4  C   UNL     1       6.210  -2.013   6.008  0.00  0.00    +0.084 A 
ATOM      5  C   UNL     1       6.587  -1.826   7.337  0.00  0.00    +0.024 A 
ATOM      6  C   UNL     1       5.696  -2.202   8.330  0.00  0.00    +0.000 A 
ATOM      7  C   UNL     1       4.470  -2.744   7.983  0.00  0.00    +0.052 A 
ATOM      8  N   UNL     1       4.134  -2.915   6.715  0.00  0.00    -0.232 NA
ATOM      9  C   UNL     1       3.473  -3.149   9.042  0.00  0.00    +0.090 C 
ATOM     10  C   UNL     1       4.178  -3.280  10.393  0.00  0.00    +0.070 C 
ATOM     11  O   UNL     1       4.954  -2.097  10.618  0.00  0.00    -0.369 OA
ATOM     12  C   UNL     1       6.098  -2.009   9.768  0.00  0.00    +0.197 C 
ATOM     13  C   UNL     1       5.098  -4.503  10.377  0.00  0.00    +0.041 C 
ATOM     14  C   UNL     1       3.137  -3.430  11.504  0.00  0.00    +0.041 C 
ATOM     15  C   UNL     1       7.085  -1.645   4.889  0.00  0.00    +0.268 A 
ATOM     16  O   UNL     1       8.183  -1.156   5.079  0.00  0.00    -0.266 OA
ATOM     17  N   UNL     1       6.625  -1.874   3.636  0.00  0.00    -0.255 N 
ENDROOT
BRANCH  17  18
ATOM     18  C   UNL     1       7.420  -1.547   2.530  0.00  0.00    +0.052 A 
ATOM     19  C   UNL     1       7.335  -0.283   1.961  0.00  0.00    +0.026 A 
ATOM     20  C   UNL     1       8.120   0.037   0.872  0.00  0.00    +0.002 A 
ATOM     21  C   UNL     1       8.992  -0.900   0.347  0.00  0.00    +0.000 A 
ATOM     22  C   UNL     1       9.079  -2.159   0.911  0.00  0.00    +0.002 A 
ATOM     23  C   UNL     1       8.300  -2.483   2.005  0.00  0.00    +0.026 A 
ENDBRANCH  17  18
BRANCH   1  24
ATOM     24  S   UNL     1       4.835  -2.692   1.794  0.00  0.00    -0.078 S 
BRANCH  24  25
ATOM     25  C   UNL     1       3.182  -3.412   1.997  0.00  0.00    +0.173 C 
BRANCH  25  27
ATOM     26  N   UNL     1       1.358  -4.237   0.544  0.00  0.00    -0.312 N 
ATOM     27  C   UNL     1       2.589  -3.697   0.641  0.00  0.00    +0.224 C 
ATOM     28  O   UNL     1       3.219  -3.441  -0.363  0.00  0.00    -0.275 OA
ATOM     29  H   UNL     1       0.854  -4.442   1.347  0.00  0.00    +0.149 HD
BRANCH  26  31
ATOM     30  C   UNL     1       0.109  -3.251  -1.312  0.00  0.00    +0.028 C 
ATOM     31  C   UNL     1       0.781  -4.515  -0.773  0.00  0.00    +0.074 C 
BRANCH  31  32
ATOM     32  C   UNL     1      -0.257  -5.632  -0.651  0.00  0.00    +0.057 C 
BRANCH  32  33
ATOM     33  C   UNL     1       0.426  -6.910  -0.238  0.00  0.00    -0.046 A 
ATOM     34  C   UNL     1       0.913  -7.776  -1.199  0.00  0.00    +0.004 A 
ATOM     35  C   UNL     1       1.540  -8.948  -0.820  0.00  0.00    +0.000 A 
ATOM     36  C   UNL     1       1.681  -9.254   0.520  0.00  0.00    +0.000 A 
ATOM     37  C   UNL     1       1.195  -8.388   1.482  0.00  0.00    +0.000 A 
ATOM     38  C   UNL     1       0.572  -7.213   1.103  0.00  0.00    +0.004 A 
ENDBRANCH  32  33
ENDBRANCH  31  32
ENDBRANCH  26  31
ENDBRANCH  25  27
ENDBRANCH  24  25
ENDBRANCH   1  24
TORSDOF 7
