REMARK  Name = ZINC36495661
REMARK  12 active torsions:
REMARK  status: ('A' for Active; 'I' for Inactive)
REMARK    1  A    between atoms: C_1  and  C_2
REMARK    2  A    between atoms: C_5  and  S_8
REMARK    3  A    between atoms: S_8  and  C_11
REMARK    4  A    between atoms: C_11  and  N_12
REMARK    5  A    between atoms: C_13  and  C_15
REMARK    6  A    between atoms: C_15  and  C_17
REMARK    7  A    between atoms: C_15  and  N_22
REMARK    8  A    between atoms: N_22  and  C_23
REMARK    9  A    between atoms: C_23  and  C_24
REMARK   10  A    between atoms: C_29  and  C_31
REMARK   11  A    between atoms: C_31  and  C_32
REMARK   12  A    between atoms: C_32  and  C_33
REMARK                            x       y       z     vdW  Elec       q    Type
REMARK                         _______ _______ _______ _____ _____    ______ ____
ROOT
ATOM      1  C   UNL     1       2.844  -4.942   3.304  0.00  0.00    +0.229 C 
ENDROOT
BRANCH   1   2
ATOM      2  C   UNL     1       3.589  -5.234   2.027  0.00  0.00    +0.134 A 
ATOM      3  C   UNL     1       3.096  -5.105   0.782  0.00  0.00    +0.047 A 
ATOM      4  C   UNL     1       4.128  -5.482  -0.108  0.00  0.00    +0.041 A 
ATOM      5  C   UNL     1       5.190  -5.819   0.646  0.00  0.00    +0.195 A 
ATOM      6  O   UNL     1       4.859  -5.661   1.938  0.00  0.00    -0.465 OA
ENDBRANCH   1   2
BRANCH   1   8
ATOM      7  N   UNL     1       2.892  -2.476   3.127  0.00  0.00    -0.294 N 
ATOM      8  C   UNL     1       3.238  -3.581   3.816  0.00  0.00    +0.242 C 
ATOM      9  O   UNL     1       3.868  -3.480   4.848  0.00  0.00    -0.273 OA
ATOM     10  H   UNL     1       2.389  -2.556   2.302  0.00  0.00    +0.150 HD
BRANCH   7  11
ATOM     11  C   UNL     1       3.276  -1.152   3.625  0.00  0.00    +0.278 C 
BRANCH  11  12
ATOM     12  S   UNL     1       4.824  -0.634   2.834  0.00  0.00    +0.013 S 
ATOM     13  O   UNL     1       5.773  -1.690   2.878  0.00  0.00    -0.168 OA
ATOM     14  O   UNL     1       5.176   0.675   3.259  0.00  0.00    -0.168 OA
BRANCH  12  19
ATOM     15  C   UNL     1       3.456  -0.037  -3.013  0.00  0.00    +0.044 C 
ATOM     16  C   UNL     1       3.798  -0.186  -1.552  0.00  0.00    -0.050 A 
ATOM     17  C   UNL     1       3.664   0.892  -0.698  0.00  0.00    +0.005 A 
ATOM     18  C   UNL     1       3.977   0.755   0.642  0.00  0.00    +0.027 A 
ATOM     19  C   UNL     1       4.423  -0.460   1.127  0.00  0.00    +0.090 A 
ATOM     20  C   UNL     1       4.556  -1.538   0.272  0.00  0.00    +0.027 A 
ATOM     21  C   UNL     1       4.239  -1.403  -1.066  0.00  0.00    +0.005 A 
ENDBRANCH  12  19
ENDBRANCH  11  12
ENDBRANCH   7  11
ENDBRANCH   1   8
BRANCH   1  22
ATOM     22  N   UNL     1       3.178  -5.957   4.306  0.00  0.00    -0.276 N 
ATOM     23  C   UNL     1       4.450  -6.093   4.730  0.00  0.00    +0.217 C 
ATOM     24  O   UNL     1       5.318  -5.375   4.281  0.00  0.00    -0.276 OA
BRANCH  22  25
ATOM     25  C   UNL     1       2.128  -6.824   4.849  0.00  0.00    +0.183 C 
BRANCH  25  26
ATOM     26  C   UNL     1       1.950  -8.020   3.949  0.00  0.00    +0.122 A 
ATOM     27  C   UNL     1       2.532  -9.221   4.113  0.00  0.00    +0.046 A 
ATOM     28  C   UNL     1       2.090 -10.039   3.049  0.00  0.00    +0.041 A 
ATOM     29  C   UNL     1       1.264  -9.289   2.298  0.00  0.00    +0.195 A 
ATOM     30  O   UNL     1       1.178  -8.068   2.851  0.00  0.00    -0.466 OA
ENDBRANCH  25  26
ENDBRANCH  22  25
BRANCH  23  31
ATOM     31  C   UNL     1       4.793  -7.136   5.761  0.00  0.00    +0.096 C 
BRANCH  31  32
ATOM     32  C   UNL     1       6.292  -7.081   6.064  0.00  0.00    +0.013 C 
BRANCH  32  33
ATOM     33  C   UNL     1       6.641  -8.140   7.111  0.00  0.00    -0.011 C 
ATOM     34  C   UNL     1       5.948  -7.799   8.432  0.00  0.00    +0.003 C 
ATOM     35  C   UNL     1       6.297  -8.859   9.479  0.00  0.00    +0.000 C 
ATOM     36  C   UNL     1       7.812  -8.888   9.690  0.00  0.00    +0.000 C 
ATOM     37  C   UNL     1       8.504  -9.229   8.370  0.00  0.00    +0.000 C 
ATOM     38  C   UNL     1       8.156  -8.170   7.322  0.00  0.00    +0.003 C 
ENDBRANCH  32  33
ENDBRANCH  31  32
ENDBRANCH  23  31
ENDBRANCH   1  22
TORSDOF 11
