REMARK  Name = ZINC17082646
REMARK  9 active torsions:
REMARK  status: ('A' for Active; 'I' for Inactive)
REMARK    1  A    between atoms: C_3  and  S_23
REMARK    2  A    between atoms: C_6  and  C_7
REMARK    3  A    between atoms: C_7  and  C_8
REMARK    4  A    between atoms: C_8  and  N_9
REMARK    5  A    between atoms: N_9  and  C_10
REMARK    6  A    between atoms: C_10  and  N_12
REMARK    7  A    between atoms: N_12  and  C_13
REMARK    8  A    between atoms: C_16  and  C_19
REMARK    9  A    between atoms: S_23  and  N_26
REMARK                            x       y       z     vdW  Elec       q    Type
REMARK                         _______ _______ _______ _____ _____    ______ ____
ROOT
ATOM      1  N   UNL     1      -2.821  -2.152  -1.440  0.00  0.00    -0.326 N 
ATOM      2  H   UNL     1      -3.315  -2.142  -0.605  0.00  0.00    +0.148 HD
ENDROOT
BRANCH   1   3
ATOM      3  C   UNL     1      -3.443  -2.487  -2.587  0.00  0.00    +0.135 C 
ATOM      4  S   UNL     1      -2.570  -2.505  -4.060  0.00  0.00    -0.019 S 
BRANCH   3   5
ATOM      5  N   UNL     1      -4.752  -2.807  -2.576  0.00  0.00    -0.297 N 
ATOM      6  H   UNL     1      -5.232  -2.856  -1.734  0.00  0.00    +0.154 HD
BRANCH   5   7
ATOM      7  C   UNL     1      -5.419  -3.067  -3.778  0.00  0.00    +0.033 A 
ATOM      8  C   UNL     1      -4.835  -3.888  -4.734  0.00  0.00    +0.024 A 
ATOM      9  C   UNL     1      -5.496  -4.144  -5.919  0.00  0.00    +0.014 A 
ATOM     10  C   UNL     1      -6.738  -3.583  -6.154  0.00  0.00    +0.055 A 
ATOM     11  C   UNL     1      -7.322  -2.766  -5.204  0.00  0.00    +0.014 A 
ATOM     12  C   UNL     1      -6.669  -2.511  -4.015  0.00  0.00    +0.024 A 
BRANCH  10  13
ATOM     13  C   UNL     1      -7.456  -3.864  -7.449  0.00  0.00    +0.417 C 
ATOM     14  F   UNL     1      -8.257  -5.002  -7.301  0.00  0.00    -0.166 F 
ATOM     15  F   UNL     1      -8.260  -2.769  -7.783  0.00  0.00    -0.166 F 
ATOM     16  F   UNL     1      -6.519  -4.082  -8.465  0.00  0.00    -0.166 F 
ENDBRANCH  10  13
ENDBRANCH   5   7
ENDBRANCH   3   5
ENDBRANCH   1   3
BRANCH   1  17
ATOM     17  C   UNL     1      -1.398  -1.804  -1.452  0.00  0.00    +0.108 C 
BRANCH  17  18
ATOM     18  C   UNL     1      -0.943  -1.468  -0.031  0.00  0.00    +0.054 C 
BRANCH  18  24
ATOM     19  C   UNL     1       0.910   0.203  -0.231  0.00  0.00    +0.005 A 
ATOM     20  C   UNL     1       2.253   0.532  -0.242  0.00  0.00    +0.029 A 
ATOM     21  C   UNL     1       3.207  -0.453  -0.066  0.00  0.00    +0.105 A 
ATOM     22  C   UNL     1       2.818  -1.766   0.122  0.00  0.00    +0.029 A 
ATOM     23  C   UNL     1       1.475  -2.095   0.134  0.00  0.00    +0.005 A 
ATOM     24  C   UNL     1       0.521  -1.110  -0.043  0.00  0.00    -0.046 A 
BRANCH  21  25
ATOM     25  S   UNL     1       4.918  -0.035  -0.082  0.00  0.00    +0.056 S 
ATOM     26  O   UNL     1       5.622  -1.217  -0.440  0.00  0.00    -0.153 OA
ATOM     27  O   UNL     1       5.035   1.174  -0.820  0.00  0.00    -0.153 OA
BRANCH  25  28
ATOM     28  N   UNL     1       5.350   0.319   1.477  0.00  0.00    -0.204 NA
ATOM     29  H   UNL     1       6.257   0.152   1.779  0.00  0.00    +0.144 HD
ATOM     30  H   UNL     1       4.697   0.693   2.089  0.00  0.00    +0.144 HD
ENDBRANCH  25  28
ENDBRANCH  21  25
ENDBRANCH  18  24
ENDBRANCH  17  18
ENDBRANCH   1  17
TORSDOF 9
