REMARK  Name = ZINC08827197
REMARK  11 active torsions:
REMARK  status: ('A' for Active; 'I' for Inactive)
REMARK    1  A    between atoms: C_1  and  C_2
REMARK    2  A    between atoms: C_9  and  C_32
REMARK    3  A    between atoms: C_10  and  C_11
REMARK    4  A    between atoms: C_11  and  C_13
REMARK    5  A    between atoms: C_14  and  O_31
REMARK    6  A    between atoms: N_17  and  C_27
REMARK    7  A    between atoms: C_18  and  C_20
REMARK    8  A    between atoms: C_27  and  C_28
REMARK    9  A    between atoms: C_28  and  N_57
REMARK   10  A    between atoms: C_29  and  N_57
REMARK   11  A    between atoms: C_30  and  N_57
REMARK                            x       y       z     vdW  Elec       q    Type
REMARK                         _______ _______ _______ _____ _____    ______ ____
ROOT
ATOM      1  C   UNL     1      -0.207   6.647  -1.329  0.00  0.00    +0.073 C 
ATOM      2  C   UNL     1      -1.400   7.283  -1.362  0.00  0.00    +0.188 C 
ATOM      3  C   UNL     1      -1.989   7.283  -0.009  0.00  0.00    +0.282 C 
ATOM      4  O   UNL     1      -3.059   7.779   0.286  0.00  0.00    -0.267 OA
ATOM      5  N   UNL     1      -1.167   6.653   0.851  0.00  0.00    -0.285 N 
ATOM      6  C   UNL     1       0.011   6.204   0.100  0.00  0.00    +0.144 C 
ENDROOT
BRANCH   6   7
ATOM      7  C   UNL     1       0.127   4.703   0.165  0.00  0.00    -0.022 A 
ATOM      8  C   UNL     1       1.374   4.107   0.197  0.00  0.00    +0.007 A 
ATOM      9  C   UNL     1       1.480   2.730   0.257  0.00  0.00    +0.015 A 
ATOM     10  C   UNL     1       0.339   1.949   0.286  0.00  0.00    +0.018 A 
ATOM     11  C   UNL     1      -0.908   2.546   0.249  0.00  0.00    +0.015 A 
ATOM     12  C   UNL     1      -1.014   3.923   0.194  0.00  0.00    +0.007 A 
ATOM     13 BR   UNL     1       0.484   0.065   0.368  0.00  0.00    -0.050 Br
ENDBRANCH   6   7
BRANCH   1  14
ATOM     14  C   UNL     1       0.700   6.428  -2.462  0.00  0.00    +0.213 C 
ATOM     15  O   UNL     1       0.690   5.362  -3.054  0.00  0.00    -0.285 OA
BRANCH  14  25
ATOM     16  C   UNL     1       4.769  10.208  -5.020  0.00  0.00    +0.047 C 
ATOM     17  C   UNL     1       4.016   8.903  -5.001  0.00  0.00    -0.008 A 
ATOM     18  C   UNL     1       4.224   7.973  -5.977  0.00  0.00    +0.008 A 
ATOM     19  C   UNL     1       3.516   6.765  -5.945  0.00  0.00    +0.018 A 
ATOM     20  C   UNL     1       2.630   6.524  -4.951  0.00  0.00    +0.093 A 
ATOM     21  N   UNL     1       2.417   7.445  -3.974  0.00  0.00    -0.296 N 
ATOM     22  C   UNL     1       3.092   8.632  -3.977  0.00  0.00    +0.141 A 
ATOM     23  N   UNL     1       2.701   9.347  -2.921  0.00  0.00    -0.232 NA
ATOM     24  C   UNL     1       1.795   8.674  -2.234  0.00  0.00    +0.068 A 
ATOM     25  C   UNL     1       1.588   7.455  -2.867  0.00  0.00    +0.116 A 
ATOM     26  C   UNL     1       1.107   9.146  -0.979  0.00  0.00    +0.068 C 
ENDBRANCH  14  25
ENDBRANCH   1  14
BRANCH   2  27
ATOM     27  O   UNL     1      -1.965   7.833  -2.463  0.00  0.00    -0.502 OA
ATOM     28  H   UNL     1      -2.845   8.240  -2.218  0.00  0.00    +0.292 HD
ENDBRANCH   2  27
BRANCH   5  29
ATOM     29  C   UNL     1      -1.407   6.451   2.282  0.00  0.00    +0.090 C 
BRANCH  29  30
ATOM     30  C   UNL     1      -0.831   7.632   3.066  0.00  0.00    -0.060 C 
BRANCH  30  33
ATOM     31  C   UNL     1      -0.331   8.415   5.303  0.00  0.00    -0.097 C 
ATOM     32  C   UNL     1      -2.507   7.474   4.807  0.00  0.00    -0.097 C 
ATOM     33  N   UNL     1      -1.061   7.404   4.508  0.00  0.00    +0.377 N 
ATOM     34  H   UNL     1      -0.714   6.470   4.758  0.00  0.00    -0.083 HD
ENDBRANCH  30  33
ENDBRANCH  29  30
ENDBRANCH   5  29
TORSDOF 7
