REMARK  Name = ZINC51991317
REMARK  3 active torsions:
REMARK  status: ('A' for Active; 'I' for Inactive)
REMARK    1  A    between atoms: C_5  and  C_6
REMARK    2  A    between atoms: N_8  and  C_9
REMARK    3  A    between atoms: C_15  and  O_17
REMARK                            x       y       z     vdW  Elec       q    Type
REMARK                         _______ _______ _______ _____ _____    ______ ____
ROOT
ATOM      1  C   UNL     1      -1.120  -0.947  -0.018  0.00  0.00    +0.251 C 
ATOM      2  O   UNL     1      -2.264  -0.531  -0.029  0.00  0.00    -0.270 OA
ATOM      3  N   UNL     1      -0.886  -2.274  -0.022  0.00  0.00    -0.306 N 
ATOM      4  H   UNL     1       0.026  -2.605  -0.012  0.00  0.00    +0.149 HD
ENDROOT
BRANCH   1   9
ATOM      5  C   UNL     1      -0.017   1.373   0.010  0.00  0.00    +0.024 A 
ATOM      6  C   UNL     1       1.220   2.026   0.001  0.00  0.00    -0.036 A 
ATOM      7  C   UNL     1       2.318   1.249  -0.055  0.00  0.00    -0.006 A 
ATOM      8  S   UNL     1       1.751  -0.336   0.022  0.00  0.00    -0.088 S 
ATOM      9  C   UNL     1       0.002  -0.004   0.002  0.00  0.00    +0.074 A 
ATOM     10  C   UNL     1       3.782   1.565  -0.240  0.00  0.00    +0.043 C 
ATOM     11  C   UNL     1       4.036   3.063  -0.409  0.00  0.00    +0.005 C 
ATOM     12  C   UNL     1       4.022   3.772   0.935  0.00  0.00    +0.000 C 
ATOM     13  C   UNL     1       2.973   3.221   1.880  0.00  0.00    +0.000 C 
ATOM     14  C   UNL     1       1.654   3.921   1.538  0.00  0.00    +0.005 C 
ATOM     15  C   UNL     1       1.248   3.543   0.113  0.00  0.00    +0.036 C 
ENDBRANCH   1   9
BRANCH   3  16
ATOM     16  C   UNL     1      -2.008  -3.216  -0.042  0.00  0.00    +0.102 C 
ATOM     17  C   UNL     1      -2.461  -3.439  -1.486  0.00  0.00    +0.025 C 
ATOM     18  C   UNL     1      -3.633  -4.423  -1.506  0.00  0.00    +0.002 C 
ATOM     19  C   UNL     1      -3.190  -5.756  -0.898  0.00  0.00    +0.003 C 
ATOM     20  C   UNL     1      -2.737  -5.532   0.546  0.00  0.00    +0.033 C 
ATOM     21  C   UNL     1      -1.565  -4.548   0.566  0.00  0.00    +0.135 C 
BRANCH  21  22
ATOM     22  O   UNL     1      -1.142  -4.340   1.915  0.00  0.00    -0.390 OA
ATOM     23  H   UNL     1      -0.847  -5.144   2.364  0.00  0.00    +0.210 HD
ENDBRANCH  21  22
ENDBRANCH   3  16
TORSDOF 3
