REMARK  Name = ZINC46017429
REMARK  8 active torsions:
REMARK  status: ('A' for Active; 'I' for Inactive)
REMARK    1  A    between atoms: C_1  and  C_2
REMARK    2  A    between atoms: C_2  and  N_3
REMARK    3  A    between atoms: C_7  and  N_13
REMARK    4  A    between atoms: N_13  and  S_14
REMARK    5  A    between atoms: S_14  and  C_17
REMARK    6  A    between atoms: C_18  and  C_25
REMARK    7  A    between atoms: C_20  and  C_24
REMARK    8  A    between atoms: C_22  and  C_23
REMARK                            x       y       z     vdW  Elec       q    Type
REMARK                         _______ _______ _______ _____ _____    ______ ____
ROOT
ATOM      1  N   UNL     1      -3.983  -1.341   3.886  0.00  0.00    -0.216 N 
ATOM      2  H   UNL     1      -4.429  -2.173   3.662  0.00  0.00    +0.174 HD
ENDROOT
BRANCH   1   7
ATOM      3  N   UNL     1      -0.693   1.095   0.069  0.00  0.00    -0.302 N 
ATOM      4  C   UNL     1      -1.428   0.512   1.091  0.00  0.00    +0.059 A 
ATOM      5  C   UNL     1      -1.062   0.377   2.441  0.00  0.00    +0.029 A 
ATOM      6  C   UNL     1      -1.901  -0.228   3.344  0.00  0.00    +0.026 A 
ATOM      7  C   UNL     1      -3.139  -0.727   2.955  0.00  0.00    +0.049 A 
ATOM      8  C   UNL     1      -3.526  -0.606   1.625  0.00  0.00    +0.041 A 
ATOM      9  C   UNL     1      -2.682   0.000   0.727  0.00  0.00    +0.043 A 
ATOM     10  S   UNL     1      -2.773   0.354  -1.012  0.00  0.00    -0.027 S 
ATOM     11  C   UNL     1      -1.186   1.153  -1.184  0.00  0.00    +0.292 A 
ATOM     12  O   UNL     1      -0.677   1.629  -2.182  0.00  0.00    -0.259 OA
BRANCH   3  14
ATOM     13  C   UNL     1       0.483   3.127   0.752  0.00  0.00    +0.027 C 
ATOM     14  C   UNL     1       0.629   1.657   0.355  0.00  0.00    +0.122 C 
ENDBRANCH   3  14
ENDBRANCH   1   7
BRANCH   1  15
ATOM     15  S   UNL     1      -4.221  -0.648   5.371  0.00  0.00    +0.073 S 
ATOM     16  O   UNL     1      -5.136  -1.484   6.068  0.00  0.00    -0.150 OA
ATOM     17  O   UNL     1      -2.933  -0.335   5.884  0.00  0.00    -0.150 OA
BRANCH  15  18
ATOM     18  C   UNL     1      -5.044   0.887   5.104  0.00  0.00    +0.114 A 
ATOM     19  C   UNL     1      -6.413   0.913   4.914  0.00  0.00    -0.023 A 
ATOM     20  C   UNL     1      -7.059   2.117   4.704  0.00  0.00    +0.008 A 
ATOM     21  C   UNL     1      -6.336   3.295   4.685  0.00  0.00    -0.050 A 
ATOM     22  C   UNL     1      -4.967   3.269   4.876  0.00  0.00    +0.008 A 
ATOM     23  C   UNL     1      -4.322   2.065   5.090  0.00  0.00    -0.023 A 
ATOM     24  C   UNL     1      -2.830   2.037   5.304  0.00  0.00    +0.046 C 
ATOM     25  C   UNL     1      -7.040   4.607   4.455  0.00  0.00    +0.044 C 
ATOM     26  C   UNL     1      -7.201  -0.371   4.935  0.00  0.00    +0.046 C 
ENDBRANCH  15  18
ENDBRANCH   1  15
TORSDOF 4
