REMARK  Name = ZINC22619825
REMARK  13 active torsions:
REMARK  status: ('A' for Active; 'I' for Inactive)
REMARK    1  A    between atoms: C_1  and  C_2
REMARK    2  A    between atoms: C_2  and  C_3
REMARK    3  A    between atoms: C_3  and  C_4
REMARK    4  A    between atoms: C_3  and  C_5
REMARK    5  A    between atoms: C_3  and  C_6
REMARK    6  A    between atoms: N_14  and  C_18
REMARK    7  A    between atoms: C_18  and  C_19
REMARK    8  A    between atoms: N_21  and  C_22
REMARK    9  A    between atoms: C_22  and  C_23
REMARK   10  A    between atoms: C_23  and  C_25
REMARK   11  A    between atoms: C_23  and  N_32
REMARK   12  A    between atoms: N_32  and  C_33
REMARK   13  A    between atoms: N_32  and  C_34
REMARK                            x       y       z     vdW  Elec       q    Type
REMARK                         _______ _______ _______ _____ _____    ______ ____
ROOT
ATOM      1  C   UNL     1       3.374  -0.805   2.224  0.00  0.00    -0.005 C 
ATOM      2  C   UNL     1       2.750  -0.476   0.866  0.00  0.00    +0.006 C 
ATOM      3  C   UNL     1       3.047  -1.610  -0.118  0.00  0.00    +0.035 C 
ATOM      4  C   UNL     1       2.474  -2.916   0.421  0.00  0.00    +0.113 C 
ATOM      5  C   UNL     1       3.071  -3.246   1.784  0.00  0.00    +0.035 C 
ATOM      6  C   UNL     1       2.775  -2.106   2.762  0.00  0.00    +0.006 C 
ATOM      7  C   UNL     1       0.967  -2.832   0.512  0.00  0.00    +0.247 C 
ATOM      8  O   UNL     1       0.315  -2.058   1.180  0.00  0.00    -0.273 OA
ATOM      9  N   UNL     1       0.502  -3.795  -0.310  0.00  0.00    -0.215 N 
ATOM     10  C   UNL     1       1.500  -4.465  -0.899  0.00  0.00    +0.310 C 
ATOM     11  O   UNL     1       1.330  -5.379  -1.681  0.00  0.00    -0.252 OA
ATOM     12  N   UNL     1       2.712  -4.013  -0.526  0.00  0.00    -0.285 N 
ATOM     13  H   UNL     1       3.742  -4.301  -0.786  0.00  0.00    +0.151 HD
ENDROOT
BRANCH   1  14
ATOM     14  C   UNL     1       3.087   0.332   3.206  0.00  0.00    -0.032 C 
ATOM     15  C   UNL     1       3.689   1.633   2.670  0.00  0.00    +0.011 C 
ATOM     16  C   UNL     1       1.575   0.498   3.366  0.00  0.00    +0.011 C 
BRANCH  14  18
ATOM     17  C   UNL     1       3.424   1.141   5.546  0.00  0.00    +0.004 C 
ATOM     18  C   UNL     1       3.711   0.004   4.564  0.00  0.00    +0.003 C 
ENDBRANCH  14  18
ENDBRANCH   1  14
BRANCH   9  19
ATOM     19  C   UNL     1      -0.920  -4.073  -0.530  0.00  0.00    +0.213 C 
BRANCH  19  20
ATOM     20  C   UNL     1      -1.421  -3.242  -1.683  0.00  0.00    +0.231 C 
ATOM     21  O   UNL     1      -0.666  -2.491  -2.263  0.00  0.00    -0.274 OA
ATOM     22  N   UNL     1      -2.709  -3.333  -2.069  0.00  0.00    -0.315 N 
ATOM     23  H   UNL     1      -3.394  -4.014  -1.543  0.00  0.00    +0.149 HD
BRANCH  22  24
ATOM     24  C   UNL     1      -3.197  -2.525  -3.190  0.00  0.00    +0.093 C 
BRANCH  24  25
ATOM     25  C   UNL     1      -4.712  -2.693  -3.318  0.00  0.00    -0.020 C 
BRANCH  25  26
ATOM     26  C   UNL     1      -5.190  -2.003  -4.570  0.00  0.00    -0.041 A 
ATOM     27  C   UNL     1      -5.844  -0.788  -4.483  0.00  0.00    +0.003 A 
ATOM     28  C   UNL     1      -6.283  -0.155  -5.631  0.00  0.00    +0.000 A 
ATOM     29  C   UNL     1      -6.066  -0.736  -6.867  0.00  0.00    +0.001 A 
ATOM     30  C   UNL     1      -5.411  -1.950  -6.955  0.00  0.00    +0.020 A 
ATOM     31  C   UNL     1      -4.968  -2.582  -5.807  0.00  0.00    +0.043 A 
ATOM     32 CL   UNL     1      -4.139  -4.103  -5.917  0.00  0.00    -0.083 Cl
ENDBRANCH  25  26
BRANCH  25  33
ATOM     33  N   UNL     1      -5.372  -2.098  -2.149  0.00  0.00    +0.382 N 
ATOM     34  C   UNL     1      -5.487  -3.073  -1.056  0.00  0.00    -0.096 C 
ATOM     35  C   UNL     1      -4.664  -0.890  -1.703  0.00  0.00    -0.096 C 
ATOM     36  H   UNL     1      -6.388  -1.803  -2.448  0.00  0.00    -0.082 HD
ENDBRANCH  25  33
ENDBRANCH  24  25
ENDBRANCH  22  24
ENDBRANCH  19  20
ENDBRANCH   9  19
TORSDOF 8
