REMARK  Name = ZINC04442280
REMARK  6 active torsions:
REMARK  status: ('A' for Active; 'I' for Inactive)
REMARK    1  A    between atoms: C_1  and  C_2
REMARK    2  A    between atoms: C_2  and  C_17
REMARK    3  A    between atoms: C_4  and  N_10
REMARK    4  A    between atoms: C_6  and  C_8
REMARK    5  A    between atoms: C_6  and  C_9
REMARK    6  A    between atoms: C_11  and  C_13
REMARK                            x       y       z     vdW  Elec       q    Type
REMARK                         _______ _______ _______ _____ _____    ______ ____
ROOT
ATOM      1  C   UNL     1      -0.019   1.528   0.010  0.00  0.00    -0.010 C 
ATOM      2  C   UNL     1       0.002  -0.004   0.002  0.00  0.00    -0.072 C 
ATOM      3  C   UNL     1       0.573  -0.505  -1.321  0.00  0.00    +0.009 C 
ATOM      4  C   UNL     1       2.088  -0.301  -1.357  0.00  0.00    +0.070 C 
ATOM      5  C   UNL     1       2.703  -1.086  -0.198  0.00  0.00    +0.009 C 
ATOM      6  C   UNL     1       2.147  -0.590   1.133  0.00  0.00    -0.072 C 
ATOM      7  N   UNL     1       0.697  -0.529   1.164  0.00  0.00    +0.386 N 
ATOM      8  C   UNL     1       2.769   0.766   1.481  0.00  0.00    -0.010 C 
ATOM      9  C   UNL     1       2.600  -1.589   2.223  0.00  0.00    -0.010 C 
ATOM     10  C   UNL     1      -1.468  -0.478   0.079  0.00  0.00    -0.010 C 
ATOM     11  H   UNL     1       0.416   0.021   1.982  0.00  0.00    -0.084 HD
ATOM     12  H   UNL     1       0.341  -1.472   1.351  0.00  0.00    -0.084 HD
ENDROOT
BRANCH   4  13
ATOM     13  N   UNL     1       2.615  -0.819  -2.626  0.00  0.00    -0.309 N 
ATOM     14  C   UNL     1       3.770  -0.334  -3.123  0.00  0.00    +0.265 C 
ATOM     15  O   UNL     1       4.374   0.530  -2.523  0.00  0.00    -0.271 OA
ATOM     16  H   UNL     1       2.133  -1.510  -3.106  0.00  0.00    +0.149 HD
BRANCH  14  17
ATOM     17  C   UNL     1       4.312  -0.866  -4.426  0.00  0.00    +0.266 C 
ATOM     18 CL   UNL     1       5.857  -0.025  -4.822  0.00  0.00    -0.074 Cl
ATOM     19 CL   UNL     1       4.612  -2.637  -4.273  0.00  0.00    -0.074 Cl
ATOM     20 CL   UNL     1       3.113  -0.570  -5.740  0.00  0.00    -0.074 Cl
ENDBRANCH  14  17
ENDBRANCH   4  13
TORSDOF 2
