REMARK  Name = ZINC06919961
REMARK  10 active torsions:
REMARK  status: ('A' for Active; 'I' for Inactive)
REMARK    1  A    between atoms: C_1  and  C_2
REMARK    2  A    between atoms: N_8  and  C_9
REMARK    3  A    between atoms: C_9  and  C_10
REMARK    4  A    between atoms: C_10  and  C_11
REMARK    5  A    between atoms: C_11  and  N_12
REMARK    6  A    between atoms: C_13  and  C_15
REMARK    7  A    between atoms: C_24  and  C_27
REMARK    8  A    between atoms: C_27  and  C_28
REMARK    9  A    between atoms: C_28  and  C_29
REMARK   10  A    between atoms: C_28  and  C_30
REMARK                            x       y       z     vdW  Elec       q    Type
REMARK                         _______ _______ _______ _____ _____    ______ ____
ROOT
ATOM      1  C   UNL     1       1.360  -0.179   8.485  0.00  0.00    +0.039 A 
ATOM      2  C   UNL     1       2.522  -0.942   8.339  0.00  0.00    +0.015 A 
ATOM      3  C   UNL     1       3.249  -1.310   9.451  0.00  0.00    +0.025 A 
ATOM      4  C   UNL     1       2.829  -0.919  10.714  0.00  0.00    +0.049 A 
ATOM      5  C   UNL     1       1.673  -0.148  10.869  0.00  0.00    +0.055 A 
ATOM      6  C   UNL     1       0.941   0.222   9.757  0.00  0.00    +0.038 A 
ATOM      7  N   UNL     1       1.276   0.259  12.148  0.00  0.00    -0.282 N 
ATOM      8  C   UNL     1       2.086   0.088  13.208  0.00  0.00    +0.238 C 
ATOM      9  O   UNL     1       1.677   0.334  14.323  0.00  0.00    -0.273 OA
ATOM     10  C   UNL     1       3.498  -0.408  13.025  0.00  0.00    +0.157 C 
ATOM     11  N   UNL     1       3.547  -1.293  11.852  0.00  0.00    -0.331 N 
ATOM     12  H   UNL     1       0.406   0.671  12.271  0.00  0.00    +0.155 HD
ATOM     13  H   UNL     1       4.064  -2.114  11.868  0.00  0.00    +0.147 HD
ENDROOT
BRANCH   1  15
ATOM     14  N   UNL     1       0.983  -0.177   6.069  0.00  0.00    -0.311 N 
ATOM     15  C   UNL     1       0.579   0.209   7.295  0.00  0.00    +0.244 C 
ATOM     16  O   UNL     1      -0.429   0.877   7.421  0.00  0.00    -0.270 OA
ATOM     17  H   UNL     1       1.787  -0.710   5.968  0.00  0.00    +0.149 HD
BRANCH  14  18
ATOM     18  C   UNL     1       0.207   0.209   4.887  0.00  0.00    +0.102 C 
BRANCH  18  19
ATOM     19  C   UNL     1       0.877  -0.353   3.631  0.00  0.00    +0.000 C 
BRANCH  19  20
ATOM     20  C   UNL     1       0.067   0.050   2.397  0.00  0.00    -0.077 C 
BRANCH  20  27
ATOM     21  C   UNL     1      -0.019   1.526   0.010  0.00  0.00    -0.013 C 
ATOM     22  C   UNL     1       0.002  -0.004   0.002  0.00  0.00    -0.072 C 
ATOM     23  C   UNL     1       0.717  -0.497  -1.258  0.00  0.00    -0.016 C 
ATOM     24  C   UNL     1       0.735  -2.028  -1.262  0.00  0.00    -0.003 C 
ATOM     25  C   UNL     1       1.410  -2.524   0.020  0.00  0.00    -0.019 C 
ATOM     26  C   UNL     1       0.669  -1.956   1.232  0.00  0.00    -0.078 C 
ATOM     27  N   UNL     1       0.711  -0.490   1.192  0.00  0.00    +0.381 N 
ATOM     28  H   UNL     1       1.671  -0.182   1.159  0.00  0.00    -0.081 HD
ENDBRANCH  20  27
ENDBRANCH  19  20
ENDBRANCH  18  19
ENDBRANCH  14  18
ENDBRANCH   1  15
BRANCH  10  29
ATOM     29  C   UNL     1       4.435   0.783  12.809  0.00  0.00    +0.034 C 
BRANCH  29  30
ATOM     30  C   UNL     1       5.881   0.289  12.748  0.00  0.00    -0.015 C 
ATOM     31  C   UNL     1       6.806   1.460  12.409  0.00  0.00    +0.007 C 
ATOM     32  C   UNL     1       6.278  -0.298  14.104  0.00  0.00    +0.007 C 
ENDBRANCH  29  30
ENDBRANCH  10  29
TORSDOF 7
