REMARK  Name = ZINC09670210
REMARK  10 active torsions:
REMARK  status: ('A' for Active; 'I' for Inactive)
REMARK    1  A    between atoms: C_1  and  C_2
REMARK    2  A    between atoms: C_5  and  O_32
REMARK    3  A    between atoms: C_10  and  C_11
REMARK    4  A    between atoms: C_11  and  O_13
REMARK    5  A    between atoms: O_13  and  C_14
REMARK    6  A    between atoms: C_14  and  C_15
REMARK    7  A    between atoms: N_17  and  C_18
REMARK    8  A    between atoms: C_19  and  C_29
REMARK    9  A    between atoms: C_24  and  C_28
REMARK   10  A    between atoms: O_32  and  C_33
REMARK                            x       y       z     vdW  Elec       q    Type
REMARK                         _______ _______ _______ _____ _____    ______ ____
ROOT
ATOM      1  C   UNL     1       8.489   3.612  -0.063  0.00  0.00    +0.255 C 
ATOM      2  O   UNL     1       7.682   4.517  -0.051  0.00  0.00    -0.272 OA
ATOM      3  N   UNL     1       9.809   3.886  -0.074  0.00  0.00    -0.277 N 
ATOM      4  H   UNL     1      10.454   3.162  -0.084  0.00  0.00    +0.155 HD
ENDROOT
BRANCH   3   5
ATOM      5  C   UNL     1      10.244   5.203  -0.072  0.00  0.00    +0.084 A 
ATOM      6  C   UNL     1      11.546   5.680  -0.083  0.00  0.00    +0.068 A 
ATOM      7  C   UNL     1      11.733   7.121  -0.079  0.00  0.00    -0.023 A 
ATOM      8  C   UNL     1      10.595   7.849  -0.065  0.00  0.00    -0.004 A 
ATOM      9  S   UNL     1       9.292   6.651  -0.064  0.00  0.00    -0.077 S 
ATOM     10  C   UNL     1      10.478   9.342  -0.057  0.00  0.00    +0.046 C 
ATOM     11  C   UNL     1      11.847   9.933   0.311  0.00  0.00    -0.009 C 
ATOM     12  C   UNL     1      12.923   9.251  -0.539  0.00  0.00    +0.008 C 
ATOM     13  C   UNL     1      13.098   7.799  -0.090  0.00  0.00    +0.037 C 
ATOM     14  C   UNL     1      11.847  11.437   0.034  0.00  0.00    +0.008 C 
BRANCH   6  15
ATOM     15  C   UNL     1      12.692   4.765  -0.098  0.00  0.00    +0.244 C 
ATOM     16  O   UNL     1      13.157   4.390  -1.159  0.00  0.00    -0.270 OA
ATOM     17  N   UNL     1      13.230   4.340   1.062  0.00  0.00    -0.325 N 
ATOM     18  H   UNL     1      12.860   4.639   1.907  0.00  0.00    +0.145 HD
ATOM     19  H   UNL     1      13.988   3.734   1.052  0.00  0.00    +0.145 HD
ENDBRANCH   6  15
ENDBRANCH   3   5
BRANCH   1  20
ATOM     20  C   UNL     1       8.017   2.181  -0.065  0.00  0.00    +0.328 C 
BRANCH  20  21
ATOM     21  O   UNL     1       6.565   2.151  -0.051  0.00  0.00    -0.450 OA
BRANCH  21  22
ATOM     22  C   UNL     1       5.978   0.937  -0.051  0.00  0.00    +0.376 C 
ATOM     23  O   UNL     1       6.661  -0.069  -0.062  0.00  0.00    -0.241 OA
BRANCH  22  33
ATOM     24  C   UNL     1       4.382  -1.733  -0.050  0.00  0.00    +0.048 C 
ATOM     25  C   UNL     1       3.815  -0.336  -0.036  0.00  0.00    +0.010 A 
ATOM     26  C   UNL     1       2.402   0.039  -0.021  0.00  0.00    +0.027 A 
ATOM     27  C   UNL     1       1.204  -0.682  -0.013  0.00  0.00    +0.057 A 
ATOM     28  C   UNL     1       0.002  -0.004   0.002  0.00  0.00    +0.121 A 
ATOM     29  C   UNL     1      -0.017   1.389   0.010  0.00  0.00    +0.049 A 
ATOM     30  C   UNL     1       1.158   2.108   0.002  0.00  0.00    +0.050 A 
ATOM     31  C   UNL     1       2.380   1.446  -0.013  0.00  0.00    +0.136 A 
ATOM     32  O   UNL     1       3.659   1.873  -0.023  0.00  0.00    -0.448 OA
ATOM     33  C   UNL     1       4.514   0.829  -0.037  0.00  0.00    +0.216 A 
BRANCH  28  34
ATOM     34  O   UNL     1      -1.167  -0.698   0.010  0.00  0.00    -0.495 OA
ATOM     35  C   UNL     1      -2.375   0.066   0.026  0.00  0.00    +0.277 C 
ENDBRANCH  28  34
ENDBRANCH  22  33
ENDBRANCH  21  22
ENDBRANCH  20  21
ENDBRANCH   1  20
TORSDOF 7
