REMARK  Name = ZINC01058881
REMARK  6 active torsions:
REMARK  status: ('A' for Active; 'I' for Inactive)
REMARK    1  A    between atoms: C_4  and  N_7
REMARK    2  A    between atoms: C_8  and  C_22
REMARK    3  A    between atoms: C_11  and  S_12
REMARK    4  A    between atoms: S_12  and  C_13
REMARK    5  A    between atoms: C_13  and  C_14
REMARK    6  A    between atoms: C_27  and  O_28
REMARK                            x       y       z     vdW  Elec       q    Type
REMARK                         _______ _______ _______ _____ _____    ______ ____
ROOT
ATOM      1  N   UNL     1       3.648  -0.610  -0.065  0.00  0.00    -0.270 N 
ATOM      2  C   UNL     1       4.077  -1.528  -0.999  0.00  0.00    +0.173 A 
ATOM      3  N   UNL     1       5.243  -1.974  -0.593  0.00  0.00    -0.128 NA
ATOM      4  N   UNL     1       5.569  -1.409   0.514  0.00  0.00    -0.122 NA
ATOM      5  C   UNL     1       4.636  -0.561   0.882  0.00  0.00    +0.197 A 
ENDROOT
BRANCH   1   9
ATOM      6  C   UNL     1       0.097   1.572  -0.121  0.00  0.00    +0.000 A 
ATOM      7  C   UNL     1       1.308   2.222  -0.271  0.00  0.00    +0.002 A 
ATOM      8  C   UNL     1       2.487   1.501  -0.253  0.00  0.00    +0.026 A 
ATOM      9  C   UNL     1       2.454   0.124  -0.083  0.00  0.00    +0.051 A 
ATOM     10  C   UNL     1       1.236  -0.525   0.067  0.00  0.00    +0.026 A 
ATOM     11  C   UNL     1       0.061   0.200   0.048  0.00  0.00    +0.002 A 
ENDBRANCH   1   9
BRANCH   2  12
ATOM     12  C   UNL     1       3.360  -1.933  -2.226  0.00  0.00    +0.061 A 
ATOM     13  C   UNL     1       2.816  -0.966  -3.072  0.00  0.00    +0.015 A 
ATOM     14  C   UNL     1       2.148  -1.350  -4.216  0.00  0.00    +0.001 A 
ATOM     15  C   UNL     1       2.015  -2.692  -4.529  0.00  0.00    +0.004 A 
ATOM     16  C   UNL     1       2.550  -3.659  -3.698  0.00  0.00    +0.046 A 
ATOM     17  C   UNL     1       3.228  -3.289  -2.549  0.00  0.00    +0.128 A 
BRANCH  17  18
ATOM     18  O   UNL     1       3.759  -4.239  -1.735  0.00  0.00    -0.506 OA
ATOM     19  H   UNL     1       3.156  -4.548  -1.046  0.00  0.00    +0.292 HD
ENDBRANCH  17  18
ENDBRANCH   2  12
BRANCH   5  20
ATOM     20  S   UNL     1       4.649   0.448   2.326  0.00  0.00    -0.076 S 
BRANCH  20  21
ATOM     21  C   UNL     1       6.220   0.035   3.135  0.00  0.00    +0.173 C 
BRANCH  21  22
ATOM     22  C   UNL     1       6.360   0.840   4.401  0.00  0.00    +0.229 C 
ATOM     23  O   UNL     1       5.486   1.615   4.727  0.00  0.00    -0.275 OA
ATOM     24  N   UNL     1       7.456   0.698   5.173  0.00  0.00    -0.264 N 
ATOM     25  C   UNL     1       7.585   1.440   6.341  0.00  0.00    +0.164 A 
ATOM     26  N   UNL     1       6.745   2.315   6.850  0.00  0.00    -0.233 NA
ATOM     27  C   UNL     1       7.016   2.943   7.979  0.00  0.00    +0.120 A 
ATOM     28  C   UNL     1       8.191   2.644   8.584  0.00  0.00    +0.068 A 
ATOM     29  S   UNL     1       8.850   1.431   7.451  0.00  0.00    -0.061 S 
ATOM     30  H   UNL     1       8.155   0.077   4.912  0.00  0.00    +0.157 HD
ENDBRANCH  21  22
ENDBRANCH  20  21
ENDBRANCH   5  20
TORSDOF 6
