REMARK  Name = ZINC12479683
REMARK  13 active torsions:
REMARK  status: ('A' for Active; 'I' for Inactive)
REMARK    1  A    between atoms: C_1  and  C_2
REMARK    2  A    between atoms: C_5  and  C_8
REMARK    3  A    between atoms: C_8  and  C_10
REMARK    4  A    between atoms: C_8  and  N_18
REMARK    5  A    between atoms: N_12  and  C_13
REMARK    6  A    between atoms: C_13  and  C_14
REMARK    7  A    between atoms: C_14  and  C_15
REMARK    8  A    between atoms: C_15  and  C_16
REMARK    9  A    between atoms: C_15  and  C_17
REMARK   10  A    between atoms: N_18  and  C_19
REMARK   11  A    between atoms: C_29  and  C_31
REMARK   12  A    between atoms: C_32  and  N_39
REMARK   13  A    between atoms: C_33  and  C_36
REMARK                            x       y       z     vdW  Elec       q    Type
REMARK                         _______ _______ _______ _____ _____    ______ ____
ROOT
ATOM      1  N   UNL     1      -3.030   0.661   0.238  0.00  0.00    -0.250 N 
ATOM      2  C   UNL     1      -3.927   0.160   1.111  0.00  0.00    +0.262 C 
ATOM      3  O   UNL     1      -4.820  -0.567   0.715  0.00  0.00    -0.269 OA
ENDROOT
BRANCH   1   4
ATOM      4  C   UNL     1      -2.007   1.494   0.692  0.00  0.00    +0.045 A 
ATOM      5  C   UNL     1      -0.801   0.960   1.092  0.00  0.00    +0.024 A 
ATOM      6  C   UNL     1       0.226   1.781   1.547  0.00  0.00    +0.002 A 
ATOM      7  C   UNL     1       0.070   3.133   1.609  0.00  0.00    +0.008 A 
ATOM      8  C   UNL     1      -1.144   3.718   1.209  0.00  0.00    -0.016 A 
ATOM      9  C   UNL     1      -2.197   2.892   0.745  0.00  0.00    +0.004 A 
ATOM     10  C   UNL     1      -3.408   3.478   0.347  0.00  0.00    +0.010 A 
ATOM     11  C   UNL     1      -3.556   4.830   0.411  0.00  0.00    +0.001 A 
ATOM     12  C   UNL     1      -2.521   5.643   0.868  0.00  0.00    +0.001 A 
ATOM     13  C   UNL     1      -1.333   5.110   1.262  0.00  0.00    +0.008 A 
ENDBRANCH   1   4
BRANCH   2  14
ATOM     14  C   UNL     1      -3.827   0.489   2.534  0.00  0.00    +0.116 A 
ATOM     15  C   UNL     1      -4.642   0.088   3.594  0.00  0.00    +0.076 A 
ATOM     16  C   UNL     1      -4.221   0.609   4.818  0.00  0.00    +0.155 A 
ATOM     17  N   UNL     1      -3.166   1.391   4.855  0.00  0.00    -0.203 NA
ATOM     18  S   UNL     1      -2.638   1.513   3.375  0.00  0.00    +0.019 S 
BRANCH  16  19
ATOM     19  C   UNL     1      -4.957   0.291   6.055  0.00  0.00    +0.262 C 
ATOM     20  O   UNL     1      -5.933  -0.433   6.013  0.00  0.00    -0.269 OA
ATOM     21  N   UNL     1      -4.548   0.803   7.233  0.00  0.00    -0.324 N 
ATOM     22  H   UNL     1      -3.769   1.381   7.266  0.00  0.00    +0.145 HD
ATOM     23  H   UNL     1      -5.032   0.594   8.047  0.00  0.00    +0.145 HD
ENDBRANCH  16  19
BRANCH  15  24
ATOM     24  N   UNL     1      -5.747  -0.741   3.447  0.00  0.00    -0.355 N 
ATOM     25  H   UNL     1      -5.989  -1.075   2.570  0.00  0.00    +0.142 HD
ATOM     26  H   UNL     1      -6.276  -0.985   4.223  0.00  0.00    +0.142 HD
ENDBRANCH  15  24
ENDBRANCH   2  14
BRANCH   1  27
ATOM     27  C   UNL     1      -3.130   0.332  -1.185  0.00  0.00    +0.197 C 
BRANCH  27  32
ATOM     28  C   UNL     1      -2.002  -5.283  -1.949  0.00  0.00    +0.044 C 
ATOM     29  C   UNL     1      -2.296  -3.819  -1.750  0.00  0.00    -0.050 A 
ATOM     30  C   UNL     1      -3.409  -3.251  -2.341  0.00  0.00    +0.004 A 
ATOM     31  C   UNL     1      -3.679  -1.907  -2.159  0.00  0.00    +0.006 A 
ATOM     32  C   UNL     1      -2.836  -1.132  -1.385  0.00  0.00    -0.018 A 
ATOM     33  C   UNL     1      -1.720  -1.699  -0.798  0.00  0.00    +0.006 A 
ATOM     34  C   UNL     1      -1.452  -3.043  -0.976  0.00  0.00    +0.004 A 
ENDBRANCH  27  32
BRANCH  27  35
ATOM     35  C   UNL     1      -2.135   1.155  -1.962  0.00  0.00    +0.238 C 
ATOM     36  O   UNL     1      -0.998   1.275  -1.556  0.00  0.00    -0.273 OA
ATOM     37  N   UNL     1      -2.507   1.758  -3.109  0.00  0.00    -0.313 N 
ATOM     38  H   UNL     1      -3.416   1.662  -3.434  0.00  0.00    +0.149 HD
BRANCH  37  39
ATOM     39  C   UNL     1      -1.539   2.557  -3.864  0.00  0.00    +0.104 C 
BRANCH  39  40
ATOM     40  C   UNL     1      -2.213   3.126  -5.115  0.00  0.00    +0.022 C 
BRANCH  40  41
ATOM     41  C   UNL     1      -1.202   3.961  -5.903  0.00  0.00    -0.016 C 
ATOM     42  C   UNL     1      -0.085   3.053  -6.422  0.00  0.00    +0.007 C 
ATOM     43  C   UNL     1      -1.905   4.630  -7.085  0.00  0.00    +0.007 C 
ENDBRANCH  40  41
ENDBRANCH  39  40
ENDBRANCH  37  39
ENDBRANCH  27  35
ENDBRANCH   1  27
TORSDOF 10
