REMARK  Name = ZINC60458866
REMARK  10 active torsions:
REMARK  status: ('A' for Active; 'I' for Inactive)
REMARK    1  A    between atoms: C_1  and  C_2
REMARK    2  A    between atoms: C_4  and  C_22
REMARK    3  A    between atoms: C_7  and  N_8
REMARK    4  A    between atoms: N_8  and  C_9
REMARK    5  A    between atoms: C_9  and  C_10
REMARK    6  A    between atoms: N_12  and  C_13
REMARK    7  A    between atoms: C_13  and  C_20
REMARK    8  A    between atoms: N_24  and  C_25
REMARK    9  A    between atoms: C_25  and  C_26
REMARK   10  A    between atoms: C_25  and  C_27
REMARK                            x       y       z     vdW  Elec       q    Type
REMARK                         _______ _______ _______ _____ _____    ______ ____
ROOT
ATOM      1  N   UNL     1       0.025  -0.015   2.411  0.00  0.00    -0.335 N 
ATOM      2  H   UNL     1       0.012   0.955   2.414  0.00  0.00    +0.147 HD
ENDROOT
BRANCH   1   9
ATOM      3  C   UNL     1      -0.018   1.503   0.010  0.00  0.00    +0.045 C 
ATOM      4  C   UNL     1       0.002  -0.004   0.002  0.00  0.00    -0.029 A 
ATOM      5  C   UNL     1       0.006  -0.685  -1.194  0.00  0.00    +0.018 A 
ATOM      6  C   UNL     1       0.025  -2.083  -1.201  0.00  0.00    +0.037 A 
ATOM      7  C   UNL     1       0.041  -2.784   0.008  0.00  0.00    +0.015 A 
ATOM      8  C   UNL     1       0.037  -2.098   1.201  0.00  0.00    +0.024 A 
ATOM      9  C   UNL     1       0.023  -0.706   1.204  0.00  0.00    +0.030 A 
BRANCH   6  10
ATOM     10  C   UNL     1       0.029  -2.815  -2.481  0.00  0.00    +0.244 C 
ATOM     11  O   UNL     1       0.015  -2.204  -3.532  0.00  0.00    -0.270 OA
ATOM     12  N   UNL     1       0.047  -4.163  -2.486  0.00  0.00    -0.309 N 
ATOM     13  H   UNL     1       0.059  -4.651  -1.648  0.00  0.00    +0.149 HD
BRANCH  12  14
ATOM     14  C   UNL     1       0.051  -4.891  -3.758  0.00  0.00    +0.067 C 
ATOM     15  C   UNL     1       1.487  -5.015  -4.270  0.00  0.00    +0.027 C 
ATOM     16  C   UNL     1      -0.538  -6.287  -3.547  0.00  0.00    +0.027 C 
ENDBRANCH  12  14
ENDBRANCH   6  10
ENDBRANCH   1   9
BRANCH   1  17
ATOM     17  C   UNL     1       0.047  -0.752   3.677  0.00  0.00    +0.197 C 
BRANCH  17  18
ATOM     18  C   UNL     1       0.045   0.223   4.826  0.00  0.00    +0.231 C 
ATOM     19  O   UNL     1       0.026   1.416   4.609  0.00  0.00    -0.274 OA
ATOM     20  N   UNL     1       0.063  -0.230   6.095  0.00  0.00    -0.296 N 
ATOM     21  H   UNL     1       0.077  -1.185   6.268  0.00  0.00    +0.150 HD
BRANCH  20  22
ATOM     22  C   UNL     1       0.061   0.718   7.212  0.00  0.00    +0.121 C 
ATOM     23  C   UNL     1       1.272   1.661   7.068  0.00  0.00    +0.041 C 
ATOM     24  C   UNL     1       1.005   2.907   7.869  0.00  0.00    +0.003 C 
ATOM     25  C   UNL     1       1.595   2.832   9.290  0.00  0.00    +0.000 C 
ATOM     26  C   UNL     1       1.388   1.455   9.951  0.00  0.00    +0.000 C 
ATOM     27  C   UNL     1       0.015   0.895   9.697  0.00  0.00    +0.003 C 
ATOM     28  C   UNL     1       0.083  -0.027   8.462  0.00  0.00    +0.041 C 
BRANCH  22  29
ATOM     29  C   UNL     1      -1.174   1.517   7.155  0.00  0.00    +0.088 C 
ATOM     30  N   UNL     1      -2.127   2.134   7.111  0.00  0.00    -0.194 NA
ENDBRANCH  22  29
ENDBRANCH  20  22
ENDBRANCH  17  18
ENDBRANCH   1  17
TORSDOF 7
