REMARK  Name = ZINC04693200
REMARK  6 active torsions:
REMARK  status: ('A' for Active; 'I' for Inactive)
REMARK    1  A    between atoms: C_1  and  C_2
REMARK    2  A    between atoms: C_4  and  S_10
REMARK    3  A    between atoms: C_5  and  C_9
REMARK    4  A    between atoms: S_10  and  C_11
REMARK    5  A    between atoms: C_11  and  C_12
REMARK    6  A    between atoms: C_14  and  C_23
REMARK                            x       y       z     vdW  Elec       q    Type
REMARK                         _______ _______ _______ _____ _____    ______ ____
ROOT
ATOM      1  C   UNL     1      -0.079  -1.851  -5.564  0.00  0.00    +0.084 A 
ATOM      2  C   UNL     1      -1.172  -2.511  -6.170  0.00  0.00    +0.063 A 
ATOM      3  C   UNL     1      -2.517  -2.721  -5.780  0.00  0.00    -0.030 A 
ATOM      4  C   UNL     1      -3.340  -3.416  -6.611  0.00  0.00    +0.096 A 
ATOM      5  C   UNL     1      -2.842  -3.909  -7.831  0.00  0.00    +0.339 A 
ATOM      6  O   UNL     1      -3.580  -4.531  -8.575  0.00  0.00    -0.245 OA
ATOM      7  O   UNL     1      -1.563  -3.702  -8.188  0.00  0.00    -0.404 OA
ATOM      8  C   UNL     1      -0.722  -3.018  -7.389  0.00  0.00    +0.228 A 
ATOM      9  N   UNL     1       0.577  -2.675  -7.502  0.00  0.00    -0.246 N 
ATOM     10  H   UNL     1       1.157  -2.891  -8.249  0.00  0.00    +0.192 HD
ATOM     11  N   UNL     1       0.947  -1.951  -6.363  0.00  0.00    -0.174 NA
ATOM     12  C   UNL     1      -3.028  -2.183  -4.468  0.00  0.00    +0.045 C 
ENDROOT
BRANCH   1  13
ATOM     13  C   UNL     1      -0.097  -1.149  -4.231  0.00  0.00    +0.132 C 
BRANCH  13  14
ATOM     14  S   UNL     1       0.203  -2.353  -2.909  0.00  0.00    -0.119 S 
BRANCH  14  18
ATOM     15  C   UNL     1      -0.377   2.214  -0.422  0.00  0.00    +0.045 C 
ATOM     16  C   UNL     1      -0.123   0.730  -0.347  0.00  0.00    -0.031 A 
ATOM     17  C   UNL     1      -0.083  -0.022  -1.504  0.00  0.00    +0.019 A 
ATOM     18  C   UNL     1       0.151  -1.390  -1.434  0.00  0.00    +0.011 A 
ATOM     19  C   UNL     1       0.344  -1.997  -0.199  0.00  0.00    -0.036 A 
ATOM     20  C   UNL     1       0.302  -1.239   0.955  0.00  0.00    +0.024 A 
ATOM     21  C   UNL     1       0.074   0.124   0.881  0.00  0.00    +0.044 A 
ATOM     22 CL   UNL     1       0.029   1.074   2.333  0.00  0.00    -0.083 Cl
ATOM     23  C   UNL     1       0.598  -3.480  -0.119  0.00  0.00    +0.045 C 
ENDBRANCH  14  18
ENDBRANCH  13  14
ENDBRANCH   1  13
TORSDOF 3
