REMARK  Name = ZINC40370814
REMARK  7 active torsions:
REMARK  status: ('A' for Active; 'I' for Inactive)
REMARK    1  A    between atoms: C_1  and  C_2
REMARK    2  A    between atoms: C_2  and  C_3
REMARK    3  A    between atoms: C_3  and  C_4
REMARK    4  A    between atoms: C_4  and  C_6
REMARK    5  A    between atoms: C_4  and  N_10
REMARK    6  A    between atoms: N_7  and  O_8
REMARK    7  A    between atoms: C_11  and  C_13
REMARK                            x       y       z     vdW  Elec       q    Type
REMARK                         _______ _______ _______ _____ _____    ______ ____
ROOT
ATOM      1  N   UNL     1      -0.810  -2.550   1.248  0.00  0.00    -0.302 N 
ATOM      2  C   UNL     1      -0.227  -3.765   1.284  0.00  0.00    +0.258 C 
ATOM      3  O   UNL     1      -0.200  -4.455   0.286  0.00  0.00    -0.272 OA
ATOM      4  H   UNL     1      -0.832  -1.999   2.046  0.00  0.00    +0.150 HD
ENDROOT
BRANCH   2   5
ATOM      5  C   UNL     1       0.393  -4.266   2.563  0.00  0.00    +0.296 C 
ATOM      6  C   UNL     1       1.597  -3.389   2.933  0.00  0.00    +0.283 C 
ATOM      7  O   UNL     1       2.169  -3.900   4.142  0.00  0.00    -0.484 OA
ATOM      8  C   UNL     1       2.355  -5.247   4.209  0.00  0.00    +0.162 A 
ATOM      9  C   UNL     1       3.214  -5.769   5.164  0.00  0.00    +0.049 A 
ATOM     10  C   UNL     1       3.411  -7.134   5.247  0.00  0.00    +0.004 A 
ATOM     11  C   UNL     1       2.752  -7.984   4.378  0.00  0.00    +0.004 A 
ATOM     12  C   UNL     1       1.895  -7.470   3.422  0.00  0.00    +0.049 A 
ATOM     13  C   UNL     1       1.694  -6.101   3.333  0.00  0.00    +0.163 A 
ATOM     14  O   UNL     1       0.853  -5.609   2.382  0.00  0.00    -0.473 OA
ENDBRANCH   2   5
BRANCH   1  15
ATOM     15  C   UNL     1      -1.413  -2.063   0.004  0.00  0.00    +0.139 C 
BRANCH  15  16
ATOM     16  C   UNL     1      -2.822  -2.584  -0.109  0.00  0.00    +0.152 C 
ATOM     17  N   UNL     1      -3.546  -2.723   0.952  0.00  0.00    -0.075 NA
ATOM     18  N   UNL     1      -3.338  -2.912  -1.343  0.00  0.00    -0.342 N 
ATOM     19  H   UNL     1      -2.794  -2.808  -2.139  0.00  0.00    +0.144 HD
ATOM     20  H   UNL     1      -4.245  -3.247  -1.416  0.00  0.00    +0.144 HD
BRANCH  17  21
ATOM     21  O   UNL     1      -4.871  -3.213   0.846  0.00  0.00    -0.408 OA
ATOM     22  H   UNL     1      -5.334  -3.282   1.692  0.00  0.00    +0.328 HD
ENDBRANCH  17  21
ENDBRANCH  15  16
BRANCH  15  23
ATOM     23  C   UNL     1      -1.433  -0.534   0.013  0.00  0.00    +0.030 C 
BRANCH  23  25
ATOM     24  C   UNL     1      -0.019   1.526   0.010  0.00  0.00    +0.004 C 
ATOM     25  C   UNL     1       0.002  -0.004   0.002  0.00  0.00    -0.001 C 
ENDBRANCH  23  25
ENDBRANCH  15  23
ENDBRANCH   1  15
TORSDOF 6
