REMARK  Name = ZINC38679227
REMARK  16 active torsions:
REMARK  status: ('A' for Active; 'I' for Inactive)
REMARK    1  A    between atoms: C_1  and  C_2
REMARK    2  A    between atoms: C_2  and  C_3
REMARK    3  A    between atoms: C_3  and  O_4
REMARK    4  A    between atoms: O_4  and  C_5
REMARK    5  A    between atoms: C_8  and  C_11
REMARK    6  A    between atoms: C_11  and  O_13
REMARK    7  A    between atoms: O_13  and  C_14
REMARK    8  A    between atoms: C_21  and  N_39
REMARK    9  A    between atoms: C_22  and  C_37
REMARK   10  A    between atoms: C_23  and  C_25
REMARK   11  A    between atoms: C_28  and  O_34
REMARK   12  A    between atoms: C_29  and  O_31
REMARK   13  A    between atoms: O_31  and  C_32
REMARK   14  A    between atoms: C_32  and  C_33
REMARK   15  A    between atoms: O_34  and  C_35
REMARK   16  A    between atoms: C_35  and  C_36
REMARK                            x       y       z     vdW  Elec       q    Type
REMARK                         _______ _______ _______ _____ _____    ______ ____
ROOT
ATOM      1  C   UNL     1      -7.686  -6.420   0.013  0.00  0.00    +0.135 A 
ATOM      2  C   UNL     1      -8.773  -5.560  -0.055  0.00  0.00    +0.047 A 
ATOM      3  C   UNL     1     -10.056  -6.069  -0.081  0.00  0.00    +0.012 A 
ATOM      4  C   UNL     1     -10.264  -7.437  -0.039  0.00  0.00    +0.008 A 
ATOM      5  C   UNL     1      -9.182  -8.301   0.029  0.00  0.00    +0.138 A 
ATOM      6  C   UNL     1      -7.891  -7.790   0.050  0.00  0.00    +0.093 A 
ATOM      7  O   UNL     1      -9.366  -9.643   0.072  0.00  0.00    -0.441 OA
ATOM      8  C   UNL     1     -10.533 -10.173  -0.332  0.00  0.00    +0.199 C 
ATOM      9  C   UNL     1     -11.664  -9.434  -0.420  0.00  0.00    +0.098 C 
ATOM     10  C   UNL     1     -11.671  -7.973  -0.067  0.00  0.00    +0.098 C 
ENDROOT
BRANCH  10  11
ATOM     11  C   UNL     1     -12.303  -7.790   1.289  0.00  0.00    -0.031 A 
ATOM     12  C   UNL     1     -11.734  -8.384   2.400  0.00  0.00    +0.008 A 
ATOM     13  C   UNL     1     -12.309  -8.219   3.647  0.00  0.00    +0.050 A 
ATOM     14  C   UNL     1     -13.458  -7.457   3.784  0.00  0.00    +0.162 A 
ATOM     15  C   UNL     1     -14.031  -6.859   2.665  0.00  0.00    +0.162 A 
ATOM     16  C   UNL     1     -13.446  -7.025   1.420  0.00  0.00    +0.054 A 
BRANCH  15  17
ATOM     17  O   UNL     1     -15.159  -6.111   2.795  0.00  0.00    -0.489 OA
BRANCH  17  18
ATOM     18  C   UNL     1     -15.691  -5.528   1.603  0.00  0.00    +0.226 C 
ATOM     19  C   UNL     1     -16.950  -4.729   1.945  0.00  0.00    +0.048 C 
ENDBRANCH  17  18
ENDBRANCH  15  17
BRANCH  14  20
ATOM     20  O   UNL     1     -14.026  -7.295   5.009  0.00  0.00    -0.489 OA
BRANCH  20  21
ATOM     21  C   UNL     1     -13.384  -7.938   6.112  0.00  0.00    +0.226 C 
ATOM     22  C   UNL     1     -14.161  -7.643   7.396  0.00  0.00    +0.048 C 
ENDBRANCH  20  21
ENDBRANCH  14  20
ENDBRANCH  10  11
BRANCH   8  23
ATOM     23  N   UNL     1     -10.580 -11.504  -0.665  0.00  0.00    -0.328 N 
ATOM     24  H   UNL     1      -9.778 -12.047  -0.607  0.00  0.00    +0.145 HD
ATOM     25  H   UNL     1     -11.415 -11.901  -0.958  0.00  0.00    +0.145 HD
ENDBRANCH   8  23
BRANCH   9  26
ATOM     26  C   UNL     1     -12.877 -10.056  -0.857  0.00  0.00    +0.101 C 
ATOM     27  N   UNL     1     -13.839 -10.550  -1.204  0.00  0.00    -0.191 NA
ENDBRANCH   9  26
BRANCH   1  28
ATOM     28  O   UNL     1      -6.423  -5.920   0.038  0.00  0.00    -0.422 OA
BRANCH  28  29
ATOM     29  C   UNL     1      -5.699  -5.974  -1.098  0.00  0.00    +0.344 C 
ATOM     30  O   UNL     1      -6.145  -6.539  -2.077  0.00  0.00    -0.245 OA
BRANCH  29  34
ATOM     31  C   UNL     1      -1.859  -4.171  -1.254  0.00  0.00    +0.121 A 
ATOM     32  C   UNL     1      -2.367  -4.817  -2.375  0.00  0.00    +0.046 A 
ATOM     33  C   UNL     1      -3.612  -5.403  -2.329  0.00  0.00    +0.018 A 
ATOM     34  C   UNL     1      -4.365  -5.348  -1.152  0.00  0.00    +0.060 A 
ATOM     35  C   UNL     1      -3.849  -4.698  -0.027  0.00  0.00    +0.018 A 
ATOM     36  C   UNL     1      -2.601  -4.119  -0.080  0.00  0.00    +0.046 A 
BRANCH  31  37
ATOM     37  O   UNL     1      -0.631  -3.594  -1.304  0.00  0.00    -0.492 OA
BRANCH  37  38
ATOM     38  C   UNL     1       0.078  -3.685  -2.542  0.00  0.00    +0.229 C 
BRANCH  38  40
ATOM     39  C   UNL     1       2.190  -3.080  -3.731  0.00  0.00    +0.007 C 
ATOM     40  C   UNL     1       1.431  -2.983  -2.406  0.00  0.00    +0.038 C 
ENDBRANCH  38  40
ENDBRANCH  37  38
ENDBRANCH  31  37
ENDBRANCH  29  34
ENDBRANCH  28  29
ENDBRANCH   1  28
TORSDOF 13
