REMARK  Name = ZINC66914881
REMARK  11 active torsions:
REMARK  status: ('A' for Active; 'I' for Inactive)
REMARK    1  A    between atoms: C_1  and  C_2
REMARK    2  A    between atoms: C_2  and  C_4
REMARK    3  A    between atoms: C_2  and  N_7
REMARK    4  A    between atoms: N_7  and  C_8
REMARK    5  A    between atoms: N_7  and  S_9
REMARK    6  A    between atoms: S_9  and  N_12
REMARK    7  A    between atoms: N_12  and  C_13
REMARK    8  A    between atoms: N_12  and  C_16
REMARK    9  A    between atoms: C_13  and  C_14
REMARK   10  A    between atoms: C_16  and  C_17
REMARK   11  A    between atoms: C_21  and  N_23
REMARK                            x       y       z     vdW  Elec       q    Type
REMARK                         _______ _______ _______ _____ _____    ______ ____
ROOT
ATOM      1  N   UNL     1       3.638  -0.340   1.003  0.00  0.00    -0.158 NA
ENDROOT
BRANCH   1   2
ATOM      2  S   UNL     1       2.309  -1.287   1.282  0.00  0.00    +0.100 S 
ATOM      3  O   UNL     1       1.341  -0.925   0.308  0.00  0.00    -0.141 OA
ATOM      4  O   UNL     1       2.048  -1.220   2.678  0.00  0.00    -0.141 OA
BRANCH   2   5
ATOM      5  N   UNL     1       2.745  -2.851   0.958  0.00  0.00    -0.166 NA
ATOM      6  C   UNL     1       2.490  -3.424  -0.366  0.00  0.00    +0.133 C 
BRANCH   5   8
ATOM      7  C   UNL     1       4.698  -4.237   1.456  0.00  0.00    +0.026 C 
ATOM      8  C   UNL     1       3.387  -3.663   1.995  0.00  0.00    +0.081 C 
BRANCH   8   9
ATOM      9  C   UNL     1       2.455  -4.809   2.395  0.00  0.00    +0.008 C 
ATOM     10  C   UNL     1       1.844  -4.766   3.797  0.00  0.00    +0.005 C 
ATOM     11  C   UNL     1       2.947  -5.776   3.474  0.00  0.00    +0.005 C 
ENDBRANCH   8   9
ENDBRANCH   5   8
ENDBRANCH   2   5
ENDBRANCH   1   2
BRANCH   1  12
ATOM     12  C   UNL     1       4.497   0.064   2.119  0.00  0.00    +0.137 C 
BRANCH  12  13
ATOM     13  C   UNL     1       5.653  -0.896   2.237  0.00  0.00    -0.018 C 
ATOM     14  C   UNL     1       6.883  -0.446   2.219  0.00  0.00    +0.005 C 
ENDBRANCH  12  13
ENDBRANCH   1  12
BRANCH   1  15
ATOM     15  C   UNL     1       3.955   0.094  -0.360  0.00  0.00    +0.146 C 
BRANCH  15  16
ATOM     16  C   UNL     1       3.441   1.494  -0.574  0.00  0.00    -0.029 A 
ATOM     17  C   UNL     1       2.144   1.694  -1.010  0.00  0.00    +0.005 A 
ATOM     18  C   UNL     1       1.672   2.978  -1.206  0.00  0.00    +0.003 A 
ATOM     19  C   UNL     1       2.496   4.062  -0.966  0.00  0.00    +0.033 A 
ATOM     20  C   UNL     1       3.792   3.862  -0.529  0.00  0.00    +0.126 A 
ATOM     21  C   UNL     1       4.263   2.578  -0.329  0.00  0.00    +0.037 A 
BRANCH  20  22
ATOM     22  N   UNL     1       4.674   5.022  -0.273  0.00  0.00    +0.056 N 
ATOM     23  O   UNL     1       4.261   6.145  -0.445  0.00  0.00    -0.126 OA
ATOM     24  O   UNL     1       5.808   4.847   0.110  0.00  0.00    -0.126 OA
ENDBRANCH  20  22
ENDBRANCH  15  16
ENDBRANCH   1  15
TORSDOF 9
