REMARK  Name = ZINC40286005
REMARK  2 active torsions:
REMARK  status: ('A' for Active; 'I' for Inactive)
REMARK    1  A    between atoms: C_3  and  C_6
REMARK    2  A    between atoms: C_12  and  C_14
REMARK                            x       y       z     vdW  Elec       q    Type
REMARK                         _______ _______ _______ _____ _____    ______ ____
ROOT
ATOM      1  C   UNL     1       3.735   1.820  -0.025  0.00  0.00    +0.192 A 
ATOM      2  N   UNL     1       4.120   3.049  -0.292  0.00  0.00    -0.126 NA
ATOM      3  N   UNL     1       5.402   3.134  -0.212  0.00  0.00    -0.120 NA
ATOM      4  C   UNL     1       5.898   1.975   0.106  0.00  0.00    +0.219 A 
ATOM      5  N   UNL     1       4.872   1.072   0.251  0.00  0.00    -0.185 N 
ATOM      6  N   UNL     1       5.230  -0.224   0.600  0.00  0.00    -0.155 NA
ATOM      7  C   UNL     1       6.486  -0.553   0.781  0.00  0.00    +0.139 A 
ATOM      8  S   UNL     1       7.331   0.987   0.456  0.00  0.00    -0.026 S 
ENDROOT
BRANCH   7   9
ATOM      9  C   UNL     1       7.055  -1.860   1.150  0.00  0.00    +0.047 A 
ATOM     10  C   UNL     1       8.368  -2.207   1.346  0.00  0.00    +0.019 A 
ATOM     11  C   UNL     1       8.664  -3.506   1.690  0.00  0.00    +0.023 A 
ATOM     12  C   UNL     1       7.651  -4.403   1.824  0.00  0.00    +0.056 A 
ATOM     13  S   UNL     1       6.216  -3.404   1.466  0.00  0.00    -0.079 S 
ATOM     14 BR   UNL     1       7.739  -6.236   2.281  0.00  0.00    -0.043 Br
ENDBRANCH   7   9
BRANCH   1  17
ATOM     15  C   UNL     1      -0.016   1.353   0.009  0.00  0.00    +0.008 A 
ATOM     16  C   UNL     1       1.177   2.042   0.002  0.00  0.00    +0.019 A 
ATOM     17  C   UNL     1       2.348   1.327  -0.013  0.00  0.00    +0.058 A 
ATOM     18  S   UNL     1       1.752  -0.356  -0.017  0.00  0.00    -0.093 S 
ATOM     19  C   UNL     1       0.002  -0.004   0.002  0.00  0.00    +0.046 A 
ENDBRANCH   1  17
TORSDOF 2
