REMARK  Name = ZINC20509006
REMARK  13 active torsions:
REMARK  status: ('A' for Active; 'I' for Inactive)
REMARK    1  A    between atoms: C_1  and  C_2
REMARK    2  A    between atoms: C_2  and  C_3
REMARK    3  A    between atoms: C_3  and  C_5
REMARK    4  A    between atoms: C_3  and  N_6
REMARK    5  A    between atoms: N_6  and  C_7
REMARK    6  A    between atoms: N_6  and  C_31
REMARK    7  A    between atoms: C_7  and  C_8
REMARK    8  A    between atoms: C_8  and  N_9
REMARK    9  A    between atoms: C_10  and  C_12
REMARK   10  A    between atoms: N_14  and  C_23
REMARK   11  A    between atoms: C_26  and  O_29
REMARK   12  A    between atoms: O_29  and  C_30
REMARK   13  A    between atoms: C_31  and  C_32
REMARK                            x       y       z     vdW  Elec       q    Type
REMARK                         _______ _______ _______ _____ _____    ______ ____
ROOT
ATOM      1  C   UNL     1       3.274   0.654  -1.173  0.00  0.00    +0.061 A 
ATOM      2  C   UNL     1       2.076   1.225  -0.861  0.00  0.00    +0.108 A 
ATOM      3  N   UNL     1       0.917   0.520  -0.866  0.00  0.00    -0.283 N 
ATOM      4  C   UNL     1       0.867  -0.789  -1.178  0.00  0.00    +0.263 A 
ATOM      5  O   UNL     1      -0.197  -1.380  -1.168  0.00  0.00    -0.267 OA
ATOM      6  C   UNL     1       2.103  -1.499  -1.529  0.00  0.00    +0.048 A 
ATOM      7  C   UNL     1       3.316  -0.775  -1.527  0.00  0.00    +0.001 A 
ATOM      8  C   UNL     1       4.505  -1.418  -1.855  0.00  0.00    +0.009 A 
ATOM      9  C   UNL     1       4.487  -2.758  -2.178  0.00  0.00    +0.001 A 
ATOM     10  C   UNL     1       3.296  -3.471  -2.180  0.00  0.00    +0.001 A 
ATOM     11  C   UNL     1       2.106  -2.852  -1.865  0.00  0.00    +0.014 A 
ENDROOT
BRANCH   3  12
ATOM     12  C   UNL     1      -0.274   1.180  -0.533  0.00  0.00    +0.050 A 
ATOM     13  C   UNL     1      -1.250   1.381  -1.500  0.00  0.00    +0.030 A 
ATOM     14  C   UNL     1      -2.425   2.026  -1.170  0.00  0.00    +0.047 A 
ATOM     15  C   UNL     1      -2.626   2.483   0.125  0.00  0.00    +0.120 A 
ATOM     16  C   UNL     1      -1.649   2.288   1.090  0.00  0.00    +0.047 A 
ATOM     17  C   UNL     1      -0.476   1.637   0.762  0.00  0.00    +0.030 A 
BRANCH  15  18
ATOM     18  O   UNL     1      -3.781   3.123   0.447  0.00  0.00    -0.495 OA
ATOM     19  C   UNL     1      -4.744   3.290  -0.596  0.00  0.00    +0.277 C 
ENDBRANCH  15  18
ENDBRANCH   3  12
BRANCH   1  21
ATOM     20  N   UNL     1       4.480   2.726  -0.709  0.00  0.00    -0.313 N 
ATOM     21  C   UNL     1       4.508   1.455  -1.156  0.00  0.00    +0.246 C 
ATOM     22  O   UNL     1       5.553   0.969  -1.545  0.00  0.00    -0.270 OA
ATOM     23  H   UNL     1       3.555   3.138  -0.280  0.00  0.00    +0.149 HD
BRANCH  20  24
ATOM     24  C   UNL     1       5.683   3.559  -0.794  0.00  0.00    +0.086 C 
BRANCH  24  25
ATOM     25  C   UNL     1       5.384   4.946  -0.223  0.00  0.00    -0.059 C 
BRANCH  25  26
ATOM     26  N   UNL     1       6.604   5.763  -0.256  0.00  0.00    +0.387 N 
ATOM     27  H   UNL     1       7.075   5.627  -1.241  0.00  0.00    -0.081 HD
BRANCH  26  28
ATOM     28  C   UNL     1       7.562   5.320   0.766  0.00  0.00    -0.071 C 
ATOM     29  C   UNL     1       7.295   6.068   2.073  0.00  0.00    -0.013 C 
BRANCH  28  31
ATOM     30  C   UNL     1       9.309   4.743  -0.924  0.00  0.00    +0.002 C 
ATOM     31  C   UNL     1       8.987   5.614   0.292  0.00  0.00    -0.019 C 
ENDBRANCH  28  31
ENDBRANCH  26  28
BRANCH  26  32
ATOM     32  C   UNL     1       6.289   7.189  -0.099  0.00  0.00    -0.003 C 
BRANCH  32  33
ATOM     33  C   UNL     1       7.472   8.016  -0.531  0.00  0.00    +0.089 A 
ATOM     34  C   UNL     1       7.700   8.474  -1.775  0.00  0.00    +0.042 A 
ATOM     35  C   UNL     1       8.914   9.197  -1.729  0.00  0.00    +0.041 A 
ATOM     36  C   UNL     1       9.355   9.138  -0.460  0.00  0.00    +0.195 A 
ATOM     37  O   UNL     1       8.475   8.426   0.263  0.00  0.00    -0.470 OA
ENDBRANCH  32  33
ENDBRANCH  26  32
ENDBRANCH  25  26
ENDBRANCH  24  25
ENDBRANCH  20  24
ENDBRANCH   1  21
TORSDOF 10
