REMARK  Name = ZINC65266024
REMARK  8 active torsions:
REMARK  status: ('A' for Active; 'I' for Inactive)
REMARK    1  A    between atoms: C_1  and  C_2
REMARK    2  A    between atoms: C_7  and  O_8
REMARK    3  A    between atoms: O_8  and  C_9
REMARK    4  A    between atoms: C_9  and  C_10
REMARK    5  A    between atoms: N_27  and  C_28
REMARK    6  A    between atoms: C_28  and  C_29
REMARK    7  A    between atoms: C_28  and  C_30
REMARK    8  A    between atoms: C_28  and  C_31
REMARK                            x       y       z     vdW  Elec       q    Type
REMARK                         _______ _______ _______ _____ _____    ______ ____
ROOT
ATOM      1  C   UNL     1       0.139   2.546   4.957  0.00  0.00    +0.253 C 
ATOM      2  O   UNL     1       0.336   3.706   5.249  0.00  0.00    -0.272 OA
ATOM      3  N   UNL     1       0.048   1.613   5.925  0.00  0.00    -0.296 N 
ATOM      4  C   UNL     1      -0.182   0.171   5.713  0.00  0.00    +0.110 C 
ATOM      5  C   UNL     1       0.394  -0.518   6.978  0.00  0.00    +0.050 C 
ATOM      6  C   UNL     1       0.039   0.506   8.072  0.00  0.00    +0.091 C 
ATOM      7  C   UNL     1       0.169   1.862   7.372  0.00  0.00    +0.137 C 
ATOM      8  C   UNL     1       0.946   0.396   9.250  0.00  0.00    +0.095 C 
ATOM      9  N   UNL     1       0.552  -0.454  10.254  0.00  0.00    -0.303 N 
ATOM     10  C   UNL     1      -0.248   0.043  11.280  0.00  0.00    +0.037 A 
ATOM     11  C   UNL     1       0.042  -0.271  12.600  0.00  0.00    +0.023 A 
ATOM     12  C   UNL     1      -0.757   0.208  13.619  0.00  0.00    +0.002 A 
ATOM     13  C   UNL     1      -1.848   1.001  13.311  0.00  0.00    +0.000 A 
ATOM     14  C   UNL     1      -2.133   1.317  12.000  0.00  0.00    +0.007 A 
ATOM     15  C   UNL     1      -1.333   0.849  10.961  0.00  0.00    -0.012 A 
ATOM     16  C   UNL     1      -1.707   1.282   9.567  0.00  0.00    +0.119 C 
ATOM     17  N   UNL     1      -1.346   0.289   8.547  0.00  0.00    -0.299 NA
ATOM     18  N   UNL     1       2.050   1.067   9.322  0.00  0.00    -0.370 N 
ATOM     19  H   UNL     1      -2.000   0.306   7.778  0.00  0.00    +0.123 HD
ATOM     20  H   UNL     1       2.195   1.825   8.735  0.00  0.00    +0.161 HD
ATOM     21  H   UNL     1       0.825  -1.384  10.249  0.00  0.00    +0.153 HD
ENDROOT
BRANCH  18  22
ATOM     22  C   UNL     1       3.080   0.680  10.289  0.00  0.00    +0.031 C 
ATOM     23  C   UNL     1       3.431  -0.796  10.098  0.00  0.00    +0.033 C 
ATOM     24  C   UNL     1       4.330   1.534  10.071  0.00  0.00    +0.033 C 
ATOM     25  C   UNL     1       2.554   0.900  11.709  0.00  0.00    +0.033 C 
ENDBRANCH  18  22
BRANCH   1  26
ATOM     26  C   UNL     1      -0.005   2.147   3.511  0.00  0.00    +0.324 C 
BRANCH  26  27
ATOM     27  O   UNL     1       0.129   3.303   2.682  0.00  0.00    -0.483 OA
BRANCH  27  34
ATOM     28  C   UNL     1       0.389   5.577   1.026  0.00  0.00    +0.047 C 
ATOM     29  C   UNL     1       0.143   4.195   0.477  0.00  0.00    -0.009 A 
ATOM     30  C   UNL     1       0.042   4.001  -0.888  0.00  0.00    +0.007 A 
ATOM     31  C   UNL     1      -0.184   2.734  -1.392  0.00  0.00    +0.000 A 
ATOM     32  C   UNL     1      -0.309   1.658  -0.533  0.00  0.00    +0.004 A 
ATOM     33  C   UNL     1      -0.208   1.846   0.832  0.00  0.00    +0.046 A 
ATOM     34  C   UNL     1       0.024   3.116   1.340  0.00  0.00    +0.124 A 
ENDBRANCH  27  34
ENDBRANCH  26  27
ENDBRANCH   1  26
TORSDOF 4
