REMARK  Name = ZINC02247927
REMARK  4 active torsions:
REMARK  status: ('A' for Active; 'I' for Inactive)
REMARK    1  A    between atoms: C_1  and  S_2
REMARK    2  A    between atoms: S_2  and  C_3
REMARK    3  A    between atoms: C_9  and  C_13
REMARK    4  A    between atoms: C_20  and  C_30
REMARK                            x       y       z     vdW  Elec       q    Type
REMARK                         _______ _______ _______ _____ _____    ______ ____
ROOT
ATOM      1  C   UNL     1       0.848  -0.411  -1.489  0.00  0.00    +0.174 C 
ATOM      2  N   UNL     1       1.334   0.457  -2.354  0.00  0.00    -0.192 NA
ATOM      3  C   UNL     1       1.919  -0.184  -3.381  0.00  0.00    +0.216 C 
ATOM      4  N   UNL     1       2.525   0.264  -4.460  0.00  0.00    -0.326 N 
ATOM      5  C   UNL     1       3.068  -0.528  -5.416  0.00  0.00    +0.058 C 
ATOM      6  C   UNL     1       3.031  -1.874  -5.323  0.00  0.00    +0.025 C 
ATOM      7  C   UNL     1       2.353  -2.485  -4.117  0.00  0.00    +0.159 C 
ATOM      8  N   UNL     1       1.794  -1.539  -3.144  0.00  0.00    -0.209 N 
ATOM      9  N   UNL     1       1.112  -1.680  -1.933  0.00  0.00    -0.239 N 
ATOM     10  C   UNL     1       3.654  -2.731  -6.385  0.00  0.00    +0.234 C 
ATOM     11  O   UNL     1       3.581  -2.081  -7.656  0.00  0.00    -0.479 OA
ATOM     12  C   UNL     1       3.956  -0.778  -7.717  0.00  0.00    +0.131 A 
ATOM     13  C   UNL     1       3.721   0.056  -6.616  0.00  0.00    +0.042 A 
ATOM     14  C   UNL     1       4.094   1.392  -6.659  0.00  0.00    +0.033 A 
ATOM     15  C   UNL     1       4.701   1.894  -7.796  0.00  0.00    +0.042 A 
ATOM     16  C   UNL     1       4.934   1.070  -8.884  0.00  0.00    +0.023 A 
ATOM     17  C   UNL     1       4.564  -0.262  -8.847  0.00  0.00    +0.048 A 
ATOM     18 CL   UNL     1       5.171   3.564  -7.860  0.00  0.00    -0.084 Cl
ATOM     19  H   UNL     1       2.587   1.225  -4.580  0.00  0.00    +0.169 HD
ATOM     20  H   UNL     1       0.872  -2.511  -1.494  0.00  0.00    +0.172 HD
ENDROOT
BRANCH   7  21
ATOM     21  C   UNL     1       1.233  -3.368  -4.605  0.00  0.00    -0.021 A 
ATOM     22  C   UNL     1       0.027  -2.808  -4.984  0.00  0.00    +0.008 A 
ATOM     23  C   UNL     1      -1.000  -3.616  -5.432  0.00  0.00    +0.038 A 
ATOM     24  C   UNL     1      -0.822  -4.988  -5.502  0.00  0.00    +0.123 A 
ATOM     25  C   UNL     1       0.387  -5.547  -5.122  0.00  0.00    +0.038 A 
ATOM     26  C   UNL     1       1.414  -4.737  -4.679  0.00  0.00    +0.008 A 
ATOM     27  F   UNL     1      -1.825  -5.779  -5.939  0.00  0.00    -0.205 F 
ENDBRANCH   7  21
BRANCH  10  28
ATOM     28  C   UNL     1       5.099  -2.982  -6.040  0.00  0.00    -0.003 A 
ATOM     29  C   UNL     1       6.050  -2.014  -6.302  0.00  0.00    +0.007 A 
ATOM     30  C   UNL     1       7.376  -2.244  -5.985  0.00  0.00    +0.000 A 
ATOM     31  C   UNL     1       7.750  -3.442  -5.406  0.00  0.00    +0.000 A 
ATOM     32  C   UNL     1       6.799  -4.410  -5.143  0.00  0.00    +0.000 A 
ATOM     33  C   UNL     1       5.473  -4.178  -5.456  0.00  0.00    +0.007 A 
ENDBRANCH  10  28
BRANCH   1  35
ATOM     34  C   UNL     1      -0.022   1.810   0.012  0.00  0.00    +0.093 C 
ATOM     35  S   UNL     1       0.002  -0.004   0.002  0.00  0.00    -0.092 S 
ENDBRANCH   1  35
TORSDOF 3
