REMARK  Name = ZINC51208696
REMARK  10 active torsions:
REMARK  status: ('A' for Active; 'I' for Inactive)
REMARK    1  A    between atoms: C_1  and  C_2
REMARK    2  A    between atoms: C_6  and  N_8
REMARK    3  A    between atoms: C_9  and  S_13
REMARK    4  A    between atoms: S_13  and  C_14
REMARK    5  A    between atoms: C_14  and  C_15
REMARK    6  A    between atoms: C_15  and  C_17
REMARK    7  A    between atoms: C_15  and  O_29
REMARK    8  A    between atoms: C_17  and  N_18
REMARK    9  A    between atoms: C_24  and  C_28
REMARK   10  A    between atoms: C_25  and  C_27
REMARK                            x       y       z     vdW  Elec       q    Type
REMARK                         _______ _______ _______ _____ _____    ______ ____
ROOT
ATOM      1  C   UNL     1      -2.850  -7.339   1.659  0.00  0.00    +0.144 C 
ENDROOT
BRANCH   1   2
ATOM      2  O   UNL     1      -4.017  -6.645   1.213  0.00  0.00    -0.389 OA
ATOM      3  H   UNL     1      -4.582  -6.326   1.929  0.00  0.00    +0.210 HD
ENDBRANCH   1   2
BRANCH   1   4
ATOM      4  C   UNL     1      -2.000  -6.404   2.522  0.00  0.00    +0.110 C 
BRANCH   4   5
ATOM      5  S   UNL     1      -1.507  -4.958   1.543  0.00  0.00    -0.082 S 
BRANCH   5   7
ATOM      6  N   UNL     1       0.050  -2.798   2.395  0.00  0.00    -0.187 N 
ATOM      7  C   UNL     1      -0.549  -3.992   2.662  0.00  0.00    +0.214 A 
ATOM      8  N   UNL     1      -0.276  -4.286   3.916  0.00  0.00    -0.101 NA
ATOM      9  N   UNL     1       0.446  -3.367   4.447  0.00  0.00    -0.022 NA
ATOM     10  N   UNL     1       0.692  -2.435   3.592  0.00  0.00    -0.038 NA
BRANCH   6  16
ATOM     11  C   UNL     1      -0.018   1.503   0.010  0.00  0.00    +0.044 C 
ATOM     12  C   UNL     1       0.002  -0.004   0.002  0.00  0.00    -0.048 A 
ATOM     13  C   UNL     1       0.006  -0.688  -1.200  0.00  0.00    +0.003 A 
ATOM     14  C   UNL     1       0.024  -2.071  -1.212  0.00  0.00    +0.002 A 
ATOM     15  C   UNL     1       0.039  -2.773  -0.022  0.00  0.00    +0.028 A 
ATOM     16  C   UNL     1       0.035  -2.089   1.186  0.00  0.00    +0.070 A 
ATOM     17  C   UNL     1       0.023  -0.700   1.194  0.00  0.00    +0.031 A 
ENDBRANCH   6  16
ENDBRANCH   5   7
ENDBRANCH   4   5
ENDBRANCH   1   4
BRANCH   1  18
ATOM     18  C   UNL     1      -3.265  -8.558   2.485  0.00  0.00    +0.155 C 
BRANCH  18  19
ATOM     19  N   UNL     1      -3.977  -9.509   1.627  0.00  0.00    -0.328 N 
ATOM     20  C   UNL     1      -5.325  -9.600   1.469  0.00  0.00    +0.200 A 
ATOM     21  N   UNL     1      -5.614 -10.554   0.633  0.00  0.00    -0.236 NA
ATOM     22  C   UNL     1      -4.470 -11.141   0.197  0.00  0.00    +0.089 A 
ATOM     23  C   UNL     1      -3.403 -10.475   0.825  0.00  0.00    +0.069 A 
ATOM     24  C   UNL     1      -2.097 -10.863   0.563  0.00  0.00    +0.031 A 
ATOM     25  C   UNL     1      -1.855 -11.898  -0.316  0.00  0.00    -0.045 A 
ATOM     26  C   UNL     1      -2.908 -12.553  -0.938  0.00  0.00    -0.045 A 
ATOM     27  C   UNL     1      -4.201 -12.189  -0.686  0.00  0.00    +0.033 A 
ATOM     28  C   UNL     1      -2.623 -13.681  -1.895  0.00  0.00    +0.044 C 
ATOM     29  C   UNL     1      -0.437 -12.321  -0.602  0.00  0.00    +0.044 C 
ENDBRANCH  18  19
ENDBRANCH   1  18
TORSDOF 7
