REMARK  Name = ZINC66730548
REMARK  7 active torsions:
REMARK  status: ('A' for Active; 'I' for Inactive)
REMARK    1  A    between atoms: C_3  and  C_11
REMARK    2  A    between atoms: C_11  and  O_13
REMARK    3  A    between atoms: O_13  and  C_14
REMARK    4  A    between atoms: C_17  and  N_20
REMARK    5  A    between atoms: C_21  and  O_23
REMARK    6  A    between atoms: O_23  and  C_24
REMARK    7  A    between atoms: C_24  and  C_25
REMARK                            x       y       z     vdW  Elec       q    Type
REMARK                         _______ _______ _______ _____ _____    ______ ____
ROOT
ATOM      1  C   UNL     1       5.699   2.380   2.217  0.00  0.00    +0.177 C 
ATOM      2  C   UNL     1       6.626   1.408   1.483  0.00  0.00    +0.046 C 
ATOM      3  C   UNL     1       8.036   1.999   1.419  0.00  0.00    +0.026 C 
ATOM      4  C   UNL     1       8.558   2.228   2.838  0.00  0.00    +0.076 C 
ATOM      5  C   UNL     1       7.631   3.199   3.573  0.00  0.00    +0.026 C 
ATOM      6  C   UNL     1       6.221   2.608   3.637  0.00  0.00    +0.046 C 
ENDROOT
BRANCH   4   7
ATOM      7  N   UNL     1       9.908   2.793   2.777  0.00  0.00    -0.278 N 
ATOM      8  C   UNL     1      10.758   2.622   3.809  0.00  0.00    +0.401 C 
ATOM      9  O   UNL     1      10.405   1.998   4.790  0.00  0.00    -0.226 OA
ATOM     10  H   UNL     1      10.190   3.291   1.994  0.00  0.00    +0.152 HD
BRANCH   8  11
ATOM     11  O   UNL     1      11.999   3.142   3.752  0.00  0.00    -0.441 OA
BRANCH  11  12
ATOM     12  C   UNL     1      12.847   2.922   4.881  0.00  0.00    +0.346 C 
BRANCH  12  13
ATOM     13  C   UNL     1      14.205   3.581   4.636  0.00  0.00    +0.424 C 
ATOM     14  F   UNL     1      14.028   4.956   4.446  0.00  0.00    -0.167 F 
ATOM     15  F   UNL     1      15.035   3.366   5.741  0.00  0.00    -0.167 F 
ATOM     16  F   UNL     1      14.794   3.025   3.495  0.00  0.00    -0.167 F 
ENDBRANCH  12  13
ENDBRANCH  11  12
ENDBRANCH   8  11
ENDBRANCH   4   7
BRANCH   1  17
ATOM     17  O   UNL     1       4.382   1.828   2.277  0.00  0.00    -0.461 OA
BRANCH  17  18
ATOM     18  C   UNL     1       3.552   2.121   1.264  0.00  0.00    +0.312 C 
ATOM     19  O   UNL     1       3.930   2.823   0.356  0.00  0.00    -0.250 OA
BRANCH  18  22
ATOM     20  C   UNL     1      -0.020   1.529   0.013  0.00  0.00    +0.020 C 
ATOM     21  C   UNL     1       1.417   2.056   0.003  0.00  0.00    +0.018 C 
ATOM     22  C   UNL     1       2.147   1.575   1.259  0.00  0.00    +0.115 C 
ATOM     23  C   UNL     1       2.193   0.044   1.263  0.00  0.00    +0.124 C 
ATOM     24  N   UNL     1       0.824  -0.471   1.127  0.00  0.00    -0.285 N 
ATOM     25  C   UNL     1       0.002  -0.003   0.003  0.00  0.00    +0.109 C 
ATOM     26  C   UNL     1       0.332  -1.357   2.016  0.00  0.00    +0.300 C 
ATOM     27  O   UNL     1       1.050  -1.807   2.887  0.00  0.00    -0.253 OA
ATOM     28  N   UNL     1      -0.957  -1.743   1.939  0.00  0.00    -0.313 N 
ATOM     29  H   UNL     1      -1.511  -1.442   1.201  0.00  0.00    +0.146 HD
ATOM     30  H   UNL     1      -1.331  -2.323   2.621  0.00  0.00    +0.146 HD
ENDBRANCH  18  22
ENDBRANCH  17  18
ENDBRANCH   1  17
TORSDOF 7
