REMARK  Name = ZINC22364376
REMARK  10 active torsions:
REMARK  status: ('A' for Active; 'I' for Inactive)
REMARK    1  A    between atoms: C_1  and  C_2
REMARK    2  A    between atoms: C_2  and  C_3
REMARK    3  A    between atoms: C_3  and  N_4
REMARK    4  A    between atoms: C_5  and  C_7
REMARK    5  A    between atoms: C_7  and  N_8
REMARK    6  A    between atoms: N_11  and  C_14
REMARK    7  A    between atoms: C_14  and  N_15
REMARK    8  A    between atoms: N_18  and  C_28
REMARK    9  A    between atoms: C_19  and  C_21
REMARK   10  A    between atoms: C_24  and  C_27
REMARK                            x       y       z     vdW  Elec       q    Type
REMARK                         _______ _______ _______ _____ _____    ______ ____
ROOT
ATOM      1  N   UNL     1      -7.789  -8.370  -0.315  0.00  0.00    -0.257 N 
ATOM      2  C   UNL     1      -8.383  -8.986  -1.357  0.00  0.00    +0.181 A 
ATOM      3  S   UNL     1      -9.710  -8.392  -2.261  0.00  0.00    -0.011 S 
ATOM      4  N   UNL     1      -7.742 -10.155  -1.560  0.00  0.00    -0.271 N 
ATOM      5  C   UNL     1      -6.731 -10.262  -0.623  0.00  0.00    +0.167 A 
ATOM      6  N   UNL     1      -6.746  -9.195   0.126  0.00  0.00    -0.152 NA
ENDROOT
BRANCH   5   7
ATOM      7  C   UNL     1      -5.788 -11.395  -0.495  0.00  0.00    +0.020 A 
ATOM      8  C   UNL     1      -5.959 -12.540  -1.272  0.00  0.00    +0.012 A 
ATOM      9  C   UNL     1      -5.076 -13.593  -1.149  0.00  0.00    +0.004 A 
ATOM     10  C   UNL     1      -4.023 -13.515  -0.255  0.00  0.00    -0.050 A 
ATOM     11  C   UNL     1      -3.848 -12.382   0.519  0.00  0.00    +0.004 A 
ATOM     12  C   UNL     1      -4.720 -11.320   0.400  0.00  0.00    +0.012 A 
ATOM     13  C   UNL     1      -3.062 -14.668  -0.125  0.00  0.00    +0.044 C 
ENDBRANCH   5   7
BRANCH   4  14
ATOM     14  C   UNL     1      -8.048 -11.099  -2.549  0.00  0.00    +0.051 A 
ATOM     15  C   UNL     1      -9.042 -12.043  -2.326  0.00  0.00    +0.028 A 
ATOM     16  C   UNL     1      -9.342 -12.972  -3.303  0.00  0.00    +0.022 A 
ATOM     17  C   UNL     1      -8.654 -12.962  -4.503  0.00  0.00    +0.041 A 
ATOM     18  C   UNL     1      -7.662 -12.023  -4.728  0.00  0.00    +0.022 A 
ATOM     19  C   UNL     1      -7.362 -11.088  -3.756  0.00  0.00    +0.028 A 
ATOM     20 CL   UNL     1      -9.033 -14.131  -5.729  0.00  0.00    -0.084 Cl
ENDBRANCH   4  14
BRANCH   1  21
ATOM     21  C   UNL     1      -8.163  -7.070   0.249  0.00  0.00    +0.072 C 
BRANCH  21  25
ATOM     22  N   UNL     1      -5.292  -3.995   0.406  0.00  0.00    -0.298 NA
ATOM     23  C   UNL     1      -6.614  -3.674  -0.150  0.00  0.00    +0.066 C 
ATOM     24  C   UNL     1      -7.623  -4.734   0.299  0.00  0.00    -0.061 C 
ATOM     25  N   UNL     1      -7.185  -6.056  -0.166  0.00  0.00    +0.394 N 
ATOM     26  C   UNL     1      -5.874  -6.372   0.417  0.00  0.00    -0.061 C 
ATOM     27  C   UNL     1      -4.851  -5.327  -0.031  0.00  0.00    +0.066 C 
ATOM     28  H   UNL     1      -7.113  -6.051  -1.173  0.00  0.00    -0.079 HD
BRANCH  22  29
ATOM     29  C   UNL     1      -4.306  -2.968   0.043  0.00  0.00    +0.180 C 
BRANCH  29  31
ATOM     30  N   UNL     1      -3.897  -0.577   0.525  0.00  0.00    -0.314 N 
ATOM     31  C   UNL     1      -4.665  -1.667   0.714  0.00  0.00    +0.227 C 
ATOM     32  O   UNL     1      -5.646  -1.602   1.424  0.00  0.00    -0.274 OA
ATOM     33  H   UNL     1      -3.112  -0.629  -0.043  0.00  0.00    +0.149 HD
BRANCH  30  34
ATOM     34  C   UNL     1      -4.246   0.688   1.177  0.00  0.00    +0.104 C 
BRANCH  34  36
ATOM     35  C   UNL     1      -3.584   3.078   1.480  0.00  0.00    +0.005 C 
ATOM     36  C   UNL     1      -3.219   1.757   0.799  0.00  0.00    +0.015 C 
ENDBRANCH  34  36
ENDBRANCH  30  34
ENDBRANCH  29  31
ENDBRANCH  22  29
ENDBRANCH  21  25
ENDBRANCH   1  21
TORSDOF 8
