REMARK  Name = ZINC66389522
REMARK  8 active torsions:
REMARK  status: ('A' for Active; 'I' for Inactive)
REMARK    1  A    between atoms: C_1  and  C_2
REMARK    2  A    between atoms: C_2  and  C_3
REMARK    3  A    between atoms: C_3  and  C_5
REMARK    4  A    between atoms: C_3  and  N_14
REMARK    5  A    between atoms: C_10  and  C_13
REMARK    6  A    between atoms: N_14  and  C_15
REMARK    7  A    between atoms: C_18  and  C_21
REMARK    8  A    between atoms: N_23  and  C_24
REMARK                            x       y       z     vdW  Elec       q    Type
REMARK                         _______ _______ _______ _____ _____    ______ ____
ROOT
ATOM      1  C   UNL     1       2.294   1.277  -1.676  0.00  0.00    +0.028 A 
ATOM      2  C   UNL     1       1.274   2.149  -2.046  0.00  0.00    +0.023 A 
ATOM      3  C   UNL     1       1.569   3.449  -2.390  0.00  0.00    +0.015 A 
ATOM      4  C   UNL     1       2.895   3.892  -2.369  0.00  0.00    +0.037 A 
ATOM      5  C   UNL     1       3.917   3.013  -1.998  0.00  0.00    +0.015 A 
ATOM      6  C   UNL     1       3.615   1.717  -1.649  0.00  0.00    +0.023 A 
ENDROOT
BRANCH   4   7
ATOM      7  C   UNL     1       3.215   5.284  -2.739  0.00  0.00    +0.244 C 
ATOM      8  O   UNL     1       2.325   6.047  -3.062  0.00  0.00    -0.270 OA
ATOM      9  N   UNL     1       4.494   5.709  -2.718  0.00  0.00    -0.308 N 
ATOM     10  H   UNL     1       5.203   5.101  -2.460  0.00  0.00    +0.149 HD
BRANCH   9  11
ATOM     11  C   UNL     1       4.811   7.092  -3.085  0.00  0.00    +0.073 C 
ATOM     12  C   UNL     1       4.955   7.196  -4.604  0.00  0.00    +0.022 C 
ATOM     13  C   UNL     1       5.287   8.639  -4.987  0.00  0.00    +0.002 C 
ATOM     14  C   UNL     1       6.600   9.055  -4.321  0.00  0.00    +0.000 C 
ATOM     15  C   UNL     1       6.456   8.951  -2.801  0.00  0.00    +0.002 C 
ATOM     16  C   UNL     1       6.124   7.507  -2.418  0.00  0.00    +0.022 C 
ENDBRANCH   9  11
ENDBRANCH   4   7
BRANCH   1  17
ATOM     17  N   UNL     1       1.992  -0.035  -1.328  0.00  0.00    -0.333 N 
ATOM     18  H   UNL     1       2.707  -0.668  -1.155  0.00  0.00    +0.147 HD
BRANCH  17  19
ATOM     19  C   UNL     1       0.595  -0.463  -1.224  0.00  0.00    +0.157 C 
BRANCH  19  20
ATOM     20  C   UNL     1       0.096  -0.887  -2.581  0.00  0.00    +0.239 C 
ATOM     21  O   UNL     1       0.835  -0.837  -3.541  0.00  0.00    -0.273 OA
ATOM     22  N   UNL     1      -1.171  -1.321  -2.728  0.00  0.00    -0.266 N 
ATOM     23  C   UNL     1      -1.633  -1.714  -3.984  0.00  0.00    +0.168 A 
ATOM     24  C   UNL     1      -0.884  -1.713  -5.183  0.00  0.00    +0.091 A 
ATOM     25  C   UNL     1      -1.680  -2.158  -6.172  0.00  0.00    +0.136 A 
ATOM     26  O   UNL     1      -2.884  -2.435  -5.648  0.00  0.00    -0.358 OA
ATOM     27  N   UNL     1      -2.834  -2.153  -4.261  0.00  0.00    -0.063 NA
ATOM     28  C   UNL     1      -1.287  -2.318  -7.618  0.00  0.00    +0.089 C 
ATOM     29  H   UNL     1      -1.762  -1.361  -1.960  0.00  0.00    +0.156 HD
ENDBRANCH  19  20
BRANCH  19  31
ATOM     30  C   UNL     1       0.875  -1.176   1.155  0.00  0.00    +0.006 C 
ATOM     31  C   UNL     1       0.493  -1.640  -0.252  0.00  0.00    +0.028 C 
ENDBRANCH  19  31
ENDBRANCH  17  19
ENDBRANCH   1  17
TORSDOF 6
