REMARK  Name = ZINC40067003
REMARK  14 active torsions:
REMARK  status: ('A' for Active; 'I' for Inactive)
REMARK    1  A    between atoms: C_1  and  C_2
REMARK    2  A    between atoms: C_2  and  C_3
REMARK    3  A    between atoms: C_3  and  C_4
REMARK    4  A    between atoms: C_4  and  N_5
REMARK    5  A    between atoms: C_6  and  N_26
REMARK    6  A    between atoms: C_7  and  C_15
REMARK    7  A    between atoms: C_8  and  C_14
REMARK    8  A    between atoms: C_9  and  C_12
REMARK    9  A    between atoms: N_19  and  C_23
REMARK   10  A    between atoms: C_23  and  C_24
REMARK   11  A    between atoms: N_26  and  C_27
REMARK   12  A    between atoms: C_27  and  C_28
REMARK   13  A    between atoms: C_31  and  O_34
REMARK   14  A    between atoms: O_34  and  C_35
REMARK                            x       y       z     vdW  Elec       q    Type
REMARK                         _______ _______ _______ _____ _____    ______ ____
ROOT
ATOM      1  N   UNL     1      -2.535  -2.691   0.074  0.00  0.00    -0.295 N 
ATOM      2  C   UNL     1      -3.092  -2.935   1.288  0.00  0.00    +0.109 A 
ATOM      3  C   UNL     1      -4.445  -3.298   1.392  0.00  0.00    +0.019 A 
ATOM      4  C   UNL     1      -5.222  -3.407   0.226  0.00  0.00    -0.017 A 
ATOM      5  C   UNL     1      -4.628  -3.151  -1.006  0.00  0.00    +0.120 A 
ATOM      6  C   UNL     1      -3.259  -2.783  -1.056  0.00  0.00    +0.270 A 
ATOM      7  O   UNL     1      -2.734  -2.553  -2.131  0.00  0.00    -0.266 OA
ATOM      8  C   UNL     1      -6.676  -3.796   0.309  0.00  0.00    +0.046 C 
ENDROOT
BRANCH   3   9
ATOM      9  C   UNL     1      -5.040  -3.561   2.703  0.00  0.00    +0.032 C 
ATOM     10  C   UNL     1      -4.998  -2.608   3.673  0.00  0.00    +0.077 C 
ATOM     11  C   UNL     1      -5.395  -2.687   5.043  0.00  0.00    +0.259 C 
ATOM     12  O   UNL     1      -5.852  -3.717   5.505  0.00  0.00    -0.269 OA
ATOM     13  N   UNL     1      -5.253  -1.608   5.793  0.00  0.00    -0.252 N 
ATOM     14  C   UNL     1      -4.746  -0.465   5.280  0.00  0.00    +0.121 C 
ATOM     15  S   UNL     1      -4.476   1.034   6.061  0.00  0.00    -0.027 S 
ATOM     16  S   UNL     1      -4.422  -0.918   3.582  0.00  0.00    -0.061 S 
BRANCH  13  17
ATOM     17  C   UNL     1      -5.650  -1.652   7.203  0.00  0.00    +0.141 C 
BRANCH  17  18
ATOM     18  C   UNL     1      -4.477  -2.088   8.042  0.00  0.00    -0.015 C 
ATOM     19  C   UNL     1      -4.075  -1.345   9.043  0.00  0.00    +0.005 C 
ENDBRANCH  17  18
ENDBRANCH  13  17
ENDBRANCH   3   9
BRANCH   5  20
ATOM     20  C   UNL     1      -5.392  -3.254  -2.212  0.00  0.00    +0.105 C 
ATOM     21  N   UNL     1      -5.999  -3.336  -3.169  0.00  0.00    -0.191 NA
ENDBRANCH   5  20
BRANCH   2  22
ATOM     22  N   UNL     1      -2.332  -2.827   2.416  0.00  0.00    -0.326 N 
ATOM     23  H   UNL     1      -2.224  -1.965   2.847  0.00  0.00    +0.148 HD
BRANCH  22  24
ATOM     24  C   UNL     1      -1.679  -4.013   2.975  0.00  0.00    +0.138 C 
BRANCH  24  25
ATOM     25  C   UNL     1      -0.897  -3.624   4.203  0.00  0.00    -0.030 A 
ATOM     26  C   UNL     1       0.423  -3.231   4.084  0.00  0.00    +0.009 A 
ATOM     27  C   UNL     1       1.143  -2.874   5.209  0.00  0.00    +0.046 A 
ATOM     28  C   UNL     1       0.539  -2.910   6.457  0.00  0.00    +0.120 A 
ATOM     29  C   UNL     1      -0.786  -3.306   6.573  0.00  0.00    +0.046 A 
ATOM     30  C   UNL     1      -1.502  -3.656   5.445  0.00  0.00    +0.009 A 
BRANCH  28  31
ATOM     31  O   UNL     1       1.244  -2.561   7.565  0.00  0.00    -0.495 OA
ATOM     32  C   UNL     1       0.559  -2.622   8.817  0.00  0.00    +0.277 C 
ENDBRANCH  28  31
ENDBRANCH  24  25
ENDBRANCH  22  24
ENDBRANCH   2  22
BRANCH   1  33
ATOM     33  C   UNL     1      -1.121  -2.314  -0.006  0.00  0.00    +0.126 C 
BRANCH  33  34
ATOM     34  C   UNL     1      -0.989  -0.796   0.134  0.00  0.00    +0.021 C 
BRANCH  34  36
ATOM     35  C   UNL     1       0.624   1.104   0.307  0.00  0.00    +0.004 C 
ATOM     36  C   UNL     1       0.492  -0.414   0.166  0.00  0.00    -0.002 C 
ENDBRANCH  34  36
ENDBRANCH  33  34
ENDBRANCH   1  33
TORSDOF 11
