REMARK  Name = ZINC35863132
REMARK  8 active torsions:
REMARK  status: ('A' for Active; 'I' for Inactive)
REMARK    1  A    between atoms: C_2  and  C_3
REMARK    2  A    between atoms: C_3  and  N_4
REMARK    3  A    between atoms: C_5  and  C_7
REMARK    4  A    between atoms: C_10  and  C_12
REMARK    5  A    between atoms: C_12  and  O_13
REMARK    6  A    between atoms: O_13  and  C_14
REMARK    7  A    between atoms: C_20  and  C_32
REMARK    8  A    between atoms: C_25  and  C_27
REMARK                            x       y       z     vdW  Elec       q    Type
REMARK                         _______ _______ _______ _____ _____    ______ ____
ROOT
ATOM      1  C   UNL     1       0.871  -5.098   8.044  0.00  0.00    +0.121 A 
ATOM      2  C   UNL     1      -0.050  -6.115   8.253  0.00  0.00    +0.046 A 
ATOM      3  C   UNL     1      -0.726  -6.190   9.452  0.00  0.00    +0.007 A 
ATOM      4  C   UNL     1      -0.492  -5.259  10.457  0.00  0.00    -0.040 A 
ATOM      5  C   UNL     1       0.429  -4.255  10.254  0.00  0.00    -0.016 A 
ATOM      6  C   UNL     1       1.110  -4.175   9.048  0.00  0.00    +0.051 A 
ATOM      7  C   UNL     1       0.753  -3.230  11.312  0.00  0.00    +0.137 C 
ATOM      8  N   UNL     1      -0.232  -3.312  12.396  0.00  0.00    -0.286 N 
ATOM      9  C   UNL     1      -0.595  -4.654  12.880  0.00  0.00    +0.113 C 
ATOM     10  C   UNL     1      -1.280  -5.397  11.733  0.00  0.00    +0.054 C 
ATOM     11  C   UNL     1      -0.782  -2.203  12.929  0.00  0.00    +0.254 C 
ATOM     12  O   UNL     1      -1.510  -2.291  13.900  0.00  0.00    -0.269 OA
ENDROOT
BRANCH   7  13
ATOM     13  C   UNL     1       2.129  -3.497  11.865  0.00  0.00    -0.023 A 
ATOM     14  C   UNL     1       3.078  -2.491  11.872  0.00  0.00    +0.006 A 
ATOM     15  C   UNL     1       4.340  -2.736  12.379  0.00  0.00    +0.000 A 
ATOM     16  C   UNL     1       4.654  -3.986  12.879  0.00  0.00    +0.000 A 
ATOM     17  C   UNL     1       3.705  -4.991  12.872  0.00  0.00    +0.000 A 
ATOM     18  C   UNL     1       2.442  -4.745  12.369  0.00  0.00    +0.006 A 
ENDBRANCH   7  13
BRANCH  11  19
ATOM     19  C   UNL     1      -0.503  -0.891  12.338  0.00  0.00    +0.074 A 
ATOM     20  C   UNL     1      -0.842   0.369  12.808  0.00  0.00    +0.021 A 
ATOM     21  C   UNL     1      -0.439   1.426  12.027  0.00  0.00    +0.008 A 
ATOM     22  C   UNL     1       0.242   1.177  10.882  0.00  0.00    +0.046 A 
ATOM     23  S   UNL     1       0.365  -0.498  10.831  0.00  0.00    -0.092 S 
ENDBRANCH  11  19
BRANCH   1  24
ATOM     24  O   UNL     1       1.538  -5.013   6.863  0.00  0.00    -0.484 OA
BRANCH  24  25
ATOM     25  C   UNL     1       1.238  -6.001   5.875  0.00  0.00    +0.303 C 
BRANCH  25  29
ATOM     26  C   UNL     1       2.695  -4.983   2.685  0.00  0.00    +0.190 A 
ATOM     27  C   UNL     1       3.705  -5.775   3.150  0.00  0.00    +0.055 A 
ATOM     28  C   UNL     1       3.295  -6.259   4.402  0.00  0.00    +0.049 A 
ATOM     29  C   UNL     1       2.068  -5.748   4.643  0.00  0.00    +0.143 A 
ATOM     30  O   UNL     1       1.712  -4.975   3.608  0.00  0.00    -0.452 OA
BRANCH  26  32
ATOM     31  N   UNL     1       1.620  -3.506   1.070  0.00  0.00    -0.305 N 
ATOM     32  C   UNL     1       2.683  -4.262   1.408  0.00  0.00    +0.280 C 
ATOM     33  O   UNL     1       3.634  -4.346   0.653  0.00  0.00    -0.267 OA
ATOM     34  H   UNL     1       0.862  -3.439   1.672  0.00  0.00    +0.149 HD
BRANCH  31  35
ATOM     35  C   UNL     1       1.608  -2.786  -0.205  0.00  0.00    +0.131 C 
BRANCH  35  37
ATOM     36  C   UNL     1       0.337  -0.733  -0.567  0.00  0.00    +0.005 C 
ATOM     37  C   UNL     1       0.316  -2.023  -0.340  0.00  0.00    -0.016 C 
ENDBRANCH  35  37
ENDBRANCH  31  35
ENDBRANCH  26  32
ENDBRANCH  25  29
ENDBRANCH  24  25
ENDBRANCH   1  24
TORSDOF 8
