REMARK  Name = ZINC08811961
REMARK  13 active torsions:
REMARK  status: ('A' for Active; 'I' for Inactive)
REMARK    1  A    between atoms: C_1  and  C_2
REMARK    2  A    between atoms: C_2  and  C_3
REMARK    3  A    between atoms: C_3  and  C_4
REMARK    4  A    between atoms: C_4  and  N_5
REMARK    5  A    between atoms: N_5  and  C_6
REMARK    6  A    between atoms: N_5  and  S_8
REMARK    7  A    between atoms: C_6  and  C_7
REMARK    8  A    between atoms: S_8  and  C_11
REMARK    9  A    between atoms: C_17  and  C_23
REMARK   10  A    between atoms: N_25  and  C_26
REMARK   11  A    between atoms: C_26  and  C_27
REMARK   12  A    between atoms: C_27  and  N_69
REMARK   13  A    between atoms: C_32  and  C_34
REMARK                            x       y       z     vdW  Elec       q    Type
REMARK                         _______ _______ _______ _____ _____    ______ ____
ROOT
ATOM      1  C   UNL     1      -1.520   7.624   2.853  0.00  0.00    +0.106 A 
ATOM      2  C   UNL     1      -1.655   8.948   3.249  0.00  0.00    +0.030 A 
ATOM      3  C   UNL     1      -2.360   9.843   2.475  0.00  0.00    +0.028 A 
ATOM      4  C   UNL     1      -2.944   9.420   1.284  0.00  0.00    +0.050 A 
ATOM      5  C   UNL     1      -2.809   8.077   0.889  0.00  0.00    +0.012 A 
ATOM      6  C   UNL     1      -2.084   7.187   1.688  0.00  0.00    +0.039 A 
ATOM      7  C   UNL     1      -3.419   7.628  -0.371  0.00  0.00    +0.051 A 
ATOM      8  C   UNL     1      -4.112   8.536  -1.119  0.00  0.00    +0.083 A 
ATOM      9  C   UNL     1      -4.223   9.917  -0.654  0.00  0.00    +0.250 A 
ATOM     10  O   UNL     1      -4.841  10.727  -1.320  0.00  0.00    -0.268 OA
ATOM     11  N   UNL     1      -3.652  10.306   0.500  0.00  0.00    -0.322 N 
ATOM     12  H   UNL     1      -3.740  11.228   0.786  0.00  0.00    +0.169 HD
ENDROOT
BRANCH   7  13
ATOM     13  C   UNL     1      -3.290   6.220  -0.817  0.00  0.00    +0.245 C 
ATOM     14  O   UNL     1      -2.572   5.453  -0.206  0.00  0.00    -0.270 OA
ATOM     15  N   UNL     1      -3.969   5.790  -1.899  0.00  0.00    -0.313 N 
ATOM     16  H   UNL     1      -4.484   6.418  -2.429  0.00  0.00    +0.149 HD
BRANCH  15  17
ATOM     17  C   UNL     1      -3.928   4.375  -2.275  0.00  0.00    +0.086 C 
BRANCH  17  18
ATOM     18  C   UNL     1      -4.776   4.156  -3.530  0.00  0.00    -0.059 C 
BRANCH  18  25
ATOM     19  C   UNL     1      -5.394   1.904  -2.893  0.00  0.00    -0.078 C 
ATOM     20  C   UNL     1      -5.206   0.426  -3.244  0.00  0.00    -0.019 C 
ATOM     21  C   UNL     1      -5.808   0.154  -4.625  0.00  0.00    -0.003 C 
ATOM     22  C   UNL     1      -5.140   1.069  -5.655  0.00  0.00    -0.016 C 
ATOM     23  C   UNL     1      -5.329   2.527  -5.234  0.00  0.00    -0.072 C 
ATOM     24  C   UNL     1      -4.644   3.445  -6.249  0.00  0.00    -0.013 C 
ATOM     25  N   UNL     1      -4.706   2.729  -3.908  0.00  0.00    +0.382 N 
ATOM     26  H   UNL     1      -3.721   2.445  -3.956  0.00  0.00    -0.081 HD
ENDBRANCH  18  25
ENDBRANCH  17  18
ENDBRANCH  15  17
ENDBRANCH   7  13
BRANCH   1  27
ATOM     27  S   UNL     1      -0.613   6.498   3.860  0.00  0.00    +0.061 S 
ATOM     28  O   UNL     1      -0.169   5.454   3.004  0.00  0.00    -0.153 OA
ATOM     29  O   UNL     1       0.284   7.280   4.636  0.00  0.00    -0.153 OA
BRANCH  27  30
ATOM     30  N   UNL     1      -1.686   5.816   4.921  0.00  0.00    -0.177 NA
BRANCH  30  31
ATOM     31  C   UNL     1      -2.392   4.585   4.559  0.00  0.00    +0.106 C 
ATOM     32  C   UNL     1      -1.633   3.379   5.119  0.00  0.00    +0.022 C 
ENDBRANCH  30  31
BRANCH  30  33
ATOM     33  C   UNL     1      -1.930   6.445   6.222  0.00  0.00    +0.109 C 
BRANCH  33  34
ATOM     34  C   UNL     1      -3.160   7.351   6.128  0.00  0.00    +0.017 C 
BRANCH  34  36
ATOM     35  C   UNL     1      -4.644   8.912   7.392  0.00  0.00    +0.004 C 
ATOM     36  C   UNL     1      -3.414   8.007   7.486  0.00  0.00    -0.002 C 
ENDBRANCH  34  36
ENDBRANCH  33  34
ENDBRANCH  30  33
ENDBRANCH  27  30
ENDBRANCH   1  27
TORSDOF 10
