REMARK  Name = ZINC41584409
REMARK  19 active torsions:
REMARK  status: ('A' for Active; 'I' for Inactive)
REMARK    1  A    between atoms: C_1  and  C_2
REMARK    2  A    between atoms: C_2  and  C_3
REMARK    3  A    between atoms: C_3  and  O_4
REMARK    4  A    between atoms: O_4  and  C_5
REMARK    5  A    between atoms: C_5  and  C_7
REMARK    6  A    between atoms: C_10  and  O_13
REMARK    7  A    between atoms: O_13  and  C_14
REMARK    8  A    between atoms: C_15  and  C_36
REMARK    9  A    between atoms: C_23  and  O_35
REMARK   10  A    between atoms: C_24  and  C_25
REMARK   11  A    between atoms: C_25  and  N_26
REMARK   12  A    between atoms: N_26  and  C_27
REMARK   13  A    between atoms: N_26  and  C_31
REMARK   14  A    between atoms: C_27  and  C_28
REMARK   15  A    between atoms: C_28  and  O_29
REMARK   16  A    between atoms: O_29  and  C_30
REMARK   17  A    between atoms: C_31  and  C_32
REMARK   18  A    between atoms: C_32  and  O_33
REMARK   19  A    between atoms: O_33  and  C_34
REMARK                            x       y       z     vdW  Elec       q    Type
REMARK                         _______ _______ _______ _____ _____    ______ ____
ROOT
ATOM      1  C   UNL     1       1.319  -8.713   3.832  0.00  0.00    +0.213 A 
ATOM      2  C   UNL     1       1.967  -8.053   4.812  0.00  0.00    +0.148 A 
ATOM      3  O   UNL     1       2.680  -8.678   5.758  0.00  0.00    -0.456 OA
ATOM      4  C   UNL     1       2.803 -10.020   5.802  0.00  0.00    +0.144 A 
ATOM      5  C   UNL     1       2.168 -10.812   4.828  0.00  0.00    +0.068 A 
ATOM      6  C   UNL     1       1.377 -10.136   3.785  0.00  0.00    +0.235 A 
ATOM      7  O   UNL     1       0.800 -10.767   2.916  0.00  0.00    -0.283 OA
ATOM      8  C   UNL     1       2.288 -12.201   4.864  0.00  0.00    +0.019 A 
ATOM      9  C   UNL     1       3.025 -12.793   5.850  0.00  0.00    +0.046 A 
ATOM     10  C   UNL     1       3.658 -12.016   6.819  0.00  0.00    +0.122 A 
ATOM     11  C   UNL     1       3.549 -10.636   6.797  0.00  0.00    +0.020 A 
ATOM     12  C   UNL     1       1.887  -6.548   4.844  0.00  0.00    +0.090 C 
ENDROOT
BRANCH  10  13
ATOM     13  O   UNL     1       4.387 -12.618   7.792  0.00  0.00    -0.506 OA
ATOM     14  H   UNL     1       5.318 -12.744   7.565  0.00  0.00    +0.292 HD
ENDBRANCH  10  13
BRANCH   1  15
ATOM     15  O   UNL     1       0.609  -8.026   2.896  0.00  0.00    -0.449 OA
BRANCH  15  19
ATOM     16  C   UNL     1       1.959  -8.106  -1.004  0.00  0.00    +0.059 A 
ATOM     17  C   UNL     1       0.754  -7.469  -0.693  0.00  0.00    +0.018 A 
ATOM     18  C   UNL     1       0.307  -7.445   0.609  0.00  0.00    +0.047 A 
ATOM     19  C   UNL     1       1.053  -8.052   1.614  0.00  0.00    +0.129 A 
ATOM     20  C   UNL     1       2.252  -8.687   1.308  0.00  0.00    +0.047 A 
ATOM     21  C   UNL     1       2.702  -8.721   0.007  0.00  0.00    +0.018 A 
BRANCH  16  22
ATOM     22  C   UNL     1       2.441  -8.135  -2.398  0.00  0.00    +0.339 C 
ATOM     23  O   UNL     1       3.486  -8.693  -2.668  0.00  0.00    -0.245 OA
BRANCH  22  24
ATOM     24  O   UNL     1       1.722  -7.542  -3.371  0.00  0.00    -0.461 OA
BRANCH  24  25
ATOM     25  C   UNL     1       2.249  -7.608  -4.698  0.00  0.00    +0.232 C 
BRANCH  25  27
ATOM     26  C   UNL     1       1.867  -6.956  -7.080  0.00  0.00    +0.007 C 
ATOM     27  C   UNL     1       1.303  -6.885  -5.659  0.00  0.00    +0.038 C 
ENDBRANCH  25  27
ENDBRANCH  24  25
ENDBRANCH  22  24
ENDBRANCH  16  22
ENDBRANCH  15  19
ENDBRANCH   1  15
BRANCH  11  28
ATOM     28  C   UNL     1       4.238  -9.806   7.849  0.00  0.00    -0.035 C 
BRANCH  28  29
ATOM     29  N   UNL     1       3.333  -9.613   8.990  0.00  0.00    +0.385 N 
ATOM     30  H   UNL     1       2.465  -9.213   8.667  0.00  0.00    -0.081 HD
BRANCH  29  31
ATOM     31  C   UNL     1       3.067 -10.909   9.629  0.00  0.00    -0.050 C 
BRANCH  31  32
ATOM     32  C   UNL     1       2.022 -10.729  10.732  0.00  0.00    +0.141 C 
BRANCH  32  33
ATOM     33  O   UNL     1       0.780 -10.325  10.150  0.00  0.00    -0.385 OA
ATOM     34  C   UNL     1      -0.237 -10.020  11.106  0.00  0.00    +0.193 C 
ENDBRANCH  32  33
ENDBRANCH  31  32
ENDBRANCH  29  31
BRANCH  29  35
ATOM     35  C   UNL     1       3.957  -8.706   9.963  0.00  0.00    -0.050 C 
BRANCH  35  36
ATOM     36  C   UNL     1       4.131  -7.323   9.332  0.00  0.00    +0.141 C 
BRANCH  36  37
ATOM     37  O   UNL     1       2.847  -6.757   9.063  0.00  0.00    -0.385 OA
ATOM     38  C   UNL     1       2.896  -5.508   8.370  0.00  0.00    +0.193 C 
ENDBRANCH  36  37
ENDBRANCH  35  36
ENDBRANCH  29  35
ENDBRANCH  28  29
ENDBRANCH  11  28
TORSDOF 15
