REMARK  Name = ZINC01895183
REMARK  12 active torsions:
REMARK  status: ('A' for Active; 'I' for Inactive)
REMARK    1  A    between atoms: C_1  and  C_2
REMARK    2  A    between atoms: C_3  and  C_29
REMARK    3  A    between atoms: C_4  and  N_11
REMARK    4  A    between atoms: C_6  and  C_7
REMARK    5  A    between atoms: C_7  and  O_9
REMARK    6  A    between atoms: O_9  and  C_10
REMARK    7  A    between atoms: C_12  and  C_14
REMARK    8  A    between atoms: C_14  and  S_15
REMARK    9  A    between atoms: S_15  and  C_16
REMARK   10  A    between atoms: C_23  and  C_25
REMARK   11  A    between atoms: C_29  and  O_31
REMARK   12  A    between atoms: O_31  and  C_32
REMARK                            x       y       z     vdW  Elec       q    Type
REMARK                         _______ _______ _______ _____ _____    ______ ____
ROOT
ATOM      1  N   UNL     1       0.002  -0.004   0.002  0.00  0.00    -0.279 N 
ATOM      2  C   UNL     1      -1.156  -0.694   0.009  0.00  0.00    +0.228 C 
ATOM      3  O   UNL     1      -2.214  -0.102   0.023  0.00  0.00    -0.275 OA
ATOM      4  H   UNL     1       0.849  -0.478  -0.009  0.00  0.00    +0.155 HD
ENDROOT
BRANCH   1   8
ATOM      5  C   UNL     1       1.894   4.644   0.009  0.00  0.00    +0.046 C 
ATOM      6  C   UNL     1       0.787   3.621   0.014  0.00  0.00    -0.014 A 
ATOM      7  C   UNL     1       1.066   2.264   0.004  0.00  0.00    +0.091 A 
ATOM      8  C   UNL     1      -0.017   1.377   0.010  0.00  0.00    +0.087 A 
ATOM      9  S   UNL     1      -1.387   2.438   0.021  0.00  0.00    -0.066 S 
ATOM     10  C   UNL     1      -0.528   4.000   0.029  0.00  0.00    +0.102 A 
BRANCH  10  11
ATOM     11  C   UNL     1      -1.089   5.351   0.041  0.00  0.00    +0.346 C 
ATOM     12  O   UNL     1      -0.350   6.317   0.039  0.00  0.00    -0.244 OA
BRANCH  11  13
ATOM     13  O   UNL     1      -2.427   5.526   0.055  0.00  0.00    -0.464 OA
ATOM     14  C   UNL     1      -2.906   6.872   0.066  0.00  0.00    +0.280 C 
ENDBRANCH  11  13
ENDBRANCH  10  11
BRANCH   7  15
ATOM     15  C   UNL     1       2.449   1.773  -0.011  0.00  0.00    +0.342 C 
ATOM     16  O   UNL     1       3.012   1.575  -1.071  0.00  0.00    -0.245 OA
BRANCH  15  17
ATOM     17  O   UNL     1       3.095   1.541   1.149  0.00  0.00    -0.464 OA
ATOM     18  C   UNL     1       4.460   1.056   1.058  0.00  0.00    +0.280 C 
ENDBRANCH  15  17
ENDBRANCH   7  15
ENDBRANCH   1   8
BRANCH   2  19
ATOM     19  C   UNL     1      -1.135  -2.201   0.001  0.00  0.00    +0.172 C 
BRANCH  19  20
ATOM     20  S   UNL     1      -2.833  -2.827   0.014  0.00  0.00    -0.096 S 
BRANCH  20  21
ATOM     21  C   UNL     1      -2.520  -4.561   0.002  0.00  0.00    +0.109 A 
ATOM     22  C   UNL     1      -3.597  -5.490   0.013  0.00  0.00    +0.043 A 
ATOM     23  C   UNL     1      -5.043  -5.214   0.024  0.00  0.00    -0.025 A 
ATOM     24  C   UNL     1      -5.864  -6.277   0.023  0.00  0.00    -0.004 A 
ATOM     25  S   UNL     1      -4.788  -7.692   0.002  0.00  0.00    -0.073 S 
ATOM     26  C   UNL     1      -3.230  -6.847  -0.006  0.00  0.00    +0.113 A 
ATOM     27  N   UNL     1      -1.964  -7.219  -0.019  0.00  0.00    -0.225 NA
ATOM     28  C   UNL     1      -1.006  -6.312  -0.022  0.00  0.00    +0.128 A 
ATOM     29  N   UNL     1      -1.278  -5.020  -0.013  0.00  0.00    -0.225 NA
ATOM     30  C   UNL     1       0.433  -6.762  -0.038  0.00  0.00    +0.088 C 
ATOM     31  C   UNL     1      -7.314  -5.874   0.036  0.00  0.00    +0.043 C 
ATOM     32  C   UNL     1      -7.309  -4.390  -0.391  0.00  0.00    +0.010 C 
ATOM     33  C   UNL     1      -5.899  -3.944   0.045  0.00  0.00    +0.037 C 
ENDBRANCH  20  21
ENDBRANCH  19  20
ENDBRANCH   2  19
TORSDOF 8
