REMARK  Name = ZINC29693771
REMARK  10 active torsions:
REMARK  status: ('A' for Active; 'I' for Inactive)
REMARK    1  A    between atoms: C_1  and  C_2
REMARK    2  A    between atoms: C_2  and  C_4
REMARK    3  A    between atoms: C_2  and  N_20
REMARK    4  A    between atoms: N_6  and  C_7
REMARK    5  A    between atoms: C_7  and  C_8
REMARK    6  A    between atoms: N_10  and  C_11
REMARK    7  A    between atoms: C_26  and  C_28
REMARK    8  A    between atoms: C_28  and  C_29
REMARK    9  A    between atoms: C_28  and  C_30
REMARK   10  A    between atoms: C_28  and  C_31
REMARK                            x       y       z     vdW  Elec       q    Type
REMARK                         _______ _______ _______ _____ _____    ______ ____
ROOT
ATOM      1  C   UNL     1      -4.240   0.231   1.298  0.00  0.00    -0.004 C 
ATOM      2  C   UNL     1      -4.366   1.304   0.215  0.00  0.00    +0.016 C 
ENDROOT
BRANCH   2   3
ATOM      3  N   UNL     1      -5.747   1.806   0.181  0.00  0.00    +0.389 N 
ATOM      4  C   UNL     1      -6.130   2.379   1.479  0.00  0.00    -0.058 C 
ATOM      5  C   UNL     1      -7.502   3.050   1.351  0.00  0.00    +0.089 C 
ATOM      6  N   UNL     1      -8.451   2.073   0.798  0.00  0.00    -0.304 N 
ATOM      7  C   UNL     1      -8.075   1.355  -0.429  0.00  0.00    +0.089 C 
ATOM      8  C   UNL     1      -6.681   0.750  -0.232  0.00  0.00    -0.058 C 
ATOM      9  C   UNL     1      -9.634   1.840   1.400  0.00  0.00    +0.225 C 
ATOM     10  O   UNL     1     -10.360   0.959   0.992  0.00  0.00    -0.275 OA
ATOM     11  H   UNL     1      -5.798   2.610  -0.568  0.00  0.00    -0.081 HD
BRANCH   9  12
ATOM     12  C   UNL     1     -10.055   2.676   2.582  0.00  0.00    +0.066 C 
ATOM     13  C   UNL     1     -10.030   4.156   2.195  0.00  0.00    +0.025 C 
ATOM     14  C   UNL     1     -11.473   2.283   3.004  0.00  0.00    +0.025 C 
BRANCH  12  15
ATOM     15  C   UNL     1      -9.106   2.439   3.728  0.00  0.00    -0.033 A 
ATOM     16  C   UNL     1      -8.153   1.441   3.642  0.00  0.00    +0.004 A 
ATOM     17  C   UNL     1      -7.279   1.228   4.692  0.00  0.00    +0.000 A 
ATOM     18  C   UNL     1      -7.364   2.006   5.831  0.00  0.00    +0.000 A 
ATOM     19  C   UNL     1      -8.320   3.001   5.919  0.00  0.00    +0.000 A 
ATOM     20  C   UNL     1      -9.191   3.217   4.867  0.00  0.00    +0.004 A 
ENDBRANCH  12  15
ENDBRANCH   9  12
ENDBRANCH   2   3
BRANCH   2  21
ATOM     21  C   UNL     1      -3.426   2.441   0.522  0.00  0.00    +0.200 C 
ATOM     22  O   UNL     1      -3.862   3.559   0.696  0.00  0.00    -0.278 OA
ATOM     23  N   UNL     1      -2.100   2.215   0.604  0.00  0.00    -0.308 N 
ATOM     24  H   UNL     1      -1.704   1.201   0.446  0.00  0.00    +0.149 HD
BRANCH  23  25
ATOM     25  C   UNL     1      -1.185   3.320   0.903  0.00  0.00    +0.200 C 
BRANCH  25  26
ATOM     26  C   UNL     1       0.231   2.805   0.937  0.00  0.00    +0.234 C 
ATOM     27  O   UNL     1       0.454   1.630   0.732  0.00  0.00    -0.274 OA
ATOM     28  N   UNL     1       1.249   3.650   1.190  0.00  0.00    -0.282 N 
ATOM     29  H   UNL     1       1.056   4.728   1.298  0.00  0.00    +0.155 HD
BRANCH  28  30
ATOM     30  C   UNL     1       2.555   3.157   1.316  0.00  0.00    +0.072 A 
ATOM     31  C   UNL     1       2.957   2.057   0.571  0.00  0.00    +0.029 A 
ATOM     32  C   UNL     1       4.245   1.573   0.692  0.00  0.00    +0.043 A 
ATOM     33  C   UNL     1       5.135   2.178   1.564  0.00  0.00    +0.161 A 
ATOM     34  C   UNL     1       4.736   3.274   2.314  0.00  0.00    +0.195 A 
ATOM     35  C   UNL     1       3.447   3.764   2.192  0.00  0.00    +0.182 A 
ATOM     36  F   UNL     1       3.057   4.832   2.922  0.00  0.00    -0.200 F 
ATOM     37  F   UNL     1       5.605   3.862   3.165  0.00  0.00    -0.199 F 
ATOM     38  F   UNL     1       6.393   1.700   1.684  0.00  0.00    -0.202 F 
ENDBRANCH  28  30
ENDBRANCH  25  26
ENDBRANCH  23  25
ENDBRANCH   2  21
TORSDOF 7
