REMARK  Name = ZINC01512153
REMARK  3 active torsions:
REMARK  status: ('A' for Active; 'I' for Inactive)
REMARK    1  A    between atoms: C_3  and  C_10
REMARK    2  A    between atoms: C_5  and  N_7
REMARK    3  A    between atoms: N_12  and  N_13
REMARK                            x       y       z     vdW  Elec       q    Type
REMARK                         _______ _______ _______ _____ _____    ______ ____
ROOT
ATOM      1  C   UNL     1       3.656   2.159  -0.022  0.00  0.00    +0.263 C 
ATOM      2  O   UNL     1       4.715   1.563  -0.035  0.00  0.00    -0.268 OA
ATOM      3  N   UNL     1       3.642   3.507  -0.015  0.00  0.00    -0.202 N 
ATOM      4  H   UNL     1       2.796   3.983  -0.004  0.00  0.00    +0.178 HD
ENDROOT
BRANCH   3   5
ATOM      5  N   UNL     1       4.847   4.221  -0.023  0.00  0.00    -0.174 NA
ATOM      6  C   UNL     1       4.833   5.532  -0.016  0.00  0.00    +0.153 C 
ATOM      7  C   UNL     1       5.998   6.447  -0.029  0.00  0.00    +0.029 A 
ATOM      8  C   UNL     1       7.372   6.238  -0.050  0.00  0.00    +0.027 A 
ATOM      9  C   UNL     1       8.230   7.321  -0.057  0.00  0.00    +0.019 A 
ATOM     10  C   UNL     1       7.721   8.609  -0.043  0.00  0.00    +0.017 A 
ATOM     11  C   UNL     1       6.358   8.826  -0.021  0.00  0.00    +0.025 A 
ATOM     12  C   UNL     1       5.479   7.748  -0.015  0.00  0.00    +0.043 A 
ATOM     13  N   UNL     1       4.090   7.689   0.005  0.00  0.00    -0.280 N 
ATOM     14  C   UNL     1       3.652   6.418  -0.001  0.00  0.00    +0.269 C 
ATOM     15  O   UNL     1       2.489   6.061   0.008  0.00  0.00    -0.268 OA
ATOM     16 BR   UNL     1      10.100   7.045  -0.086  0.00  0.00    -0.050 Br
ATOM     17  H   UNL     1       3.510   8.466   0.018  0.00  0.00    +0.155 HD
ENDBRANCH   3   5
BRANCH   1  20
ATOM     18  C   UNL     1      -0.017   1.379   0.010  0.00  0.00    +0.003 A 
ATOM     19  C   UNL     1       1.167   2.088   0.002  0.00  0.00    +0.013 A 
ATOM     20  C   UNL     1       2.385   1.407  -0.013  0.00  0.00    +0.041 A 
ATOM     21  C   UNL     1       2.397   0.010  -0.021  0.00  0.00    +0.045 A 
ATOM     22  C   UNL     1       1.206  -0.686  -0.013  0.00  0.00    +0.127 A 
ATOM     23  C   UNL     1       0.002  -0.004   0.002  0.00  0.00    +0.033 A 
BRANCH  22  24
ATOM     24  N   UNL     1       1.216  -2.166  -0.021  0.00  0.00    +0.056 N 
ATOM     25  O   UNL     1       2.268  -2.763  -0.035  0.00  0.00    -0.126 OA
ATOM     26  O   UNL     1       0.174  -2.778  -0.015  0.00  0.00    -0.126 OA
ENDBRANCH  22  24
ENDBRANCH   1  20
TORSDOF 3
