REMARK  Name = ZINC08820544
REMARK  10 active torsions:
REMARK  status: ('A' for Active; 'I' for Inactive)
REMARK    1  A    between atoms: C_1  and  C_2
REMARK    2  A    between atoms: C_5  and  S_8
REMARK    3  A    between atoms: S_8  and  N_11
REMARK    4  A    between atoms: N_11  and  N_12
REMARK    5  A    between atoms: C_13  and  C_15
REMARK    6  A    between atoms: C_15  and  C_16
REMARK    7  A    between atoms: C_16  and  C_17
REMARK    8  A    between atoms: C_17  and  N_18
REMARK    9  A    between atoms: C_22  and  C_23
REMARK   10  A    between atoms: C_24  and  C_25
REMARK                            x       y       z     vdW  Elec       q    Type
REMARK                         _______ _______ _______ _____ _____    ______ ____
ROOT
ATOM      1  C   UNL     1       4.701  -4.279  -4.709  0.00  0.00    +0.029 C 
ENDROOT
BRANCH   1   2
ATOM      2  C   UNL     1       4.075  -3.040  -4.066  0.00  0.00    +0.098 C 
BRANCH   2   4
ATOM      3  N   UNL     1       2.260  -2.530  -2.465  0.00  0.00    -0.232 N 
ATOM      4  C   UNL     1       2.960  -3.461  -3.144  0.00  0.00    +0.228 C 
ATOM      5  O   UNL     1       2.692  -4.636  -3.014  0.00  0.00    -0.274 OA
ATOM      6  H   UNL     1       2.475  -1.590  -2.569  0.00  0.00    +0.171 HD
BRANCH   3   7
ATOM      7  N   UNL     1       1.223  -2.922  -1.608  0.00  0.00    -0.108 NA
ATOM      8  H   UNL     1       0.500  -3.474  -1.943  0.00  0.00    +0.172 HD
BRANCH   7   9
ATOM      9  S   UNL     1       1.232  -2.441  -0.023  0.00  0.00    +0.074 S 
ATOM     10  O   UNL     1       2.489  -2.833   0.513  0.00  0.00    -0.152 OA
ATOM     11  O   UNL     1      -0.002  -2.867   0.538  0.00  0.00    -0.152 OA
BRANCH   9  16
ATOM     12  C   UNL     1       1.151   3.592   0.010  0.00  0.00    +0.044 C 
ATOM     13  C   UNL     1       1.171   2.086   0.002  0.00  0.00    -0.050 A 
ATOM     14  C   UNL     1      -0.017   1.378   0.010  0.00  0.00    +0.005 A 
ATOM     15  C   UNL     1       0.002  -0.004   0.002  0.00  0.00    +0.029 A 
ATOM     16  C   UNL     1       1.208  -0.679  -0.014  0.00  0.00    +0.107 A 
ATOM     17  C   UNL     1       2.396   0.029  -0.021  0.00  0.00    +0.029 A 
ATOM     18  C   UNL     1       2.377   1.411  -0.014  0.00  0.00    +0.005 A 
ENDBRANCH   9  16
ENDBRANCH   7   9
ENDBRANCH   3   7
ENDBRANCH   2   4
ENDBRANCH   1   2
BRANCH   1  19
ATOM     19  C   UNL     1       5.834  -3.852  -5.644  0.00  0.00    +0.115 C 
BRANCH  19  20
ATOM     20  N   UNL     1       6.433  -5.039  -6.260  0.00  0.00    -0.255 N 
ATOM     21  C   UNL     1       7.450  -5.634  -5.660  0.00  0.00    +0.258 C 
ATOM     22  O   UNL     1       7.902  -5.221  -4.608  0.00  0.00    -0.269 OA
ATOM     23  C   UNL     1       8.006  -6.826  -6.327  0.00  0.00    +0.077 C 
ATOM     24  C   UNL     1       9.038  -7.634  -5.946  0.00  0.00    +0.020 C 
ATOM     25  S   UNL     1       6.961  -6.919  -7.774  0.00  0.00    -0.061 S 
ATOM     26  C   UNL     1       5.938  -5.497  -7.428  0.00  0.00    +0.121 C 
ATOM     27  S   UNL     1       4.643  -4.867  -8.354  0.00  0.00    -0.027 S 
BRANCH  24  28
ATOM     28  C   UNL     1       9.408  -8.730  -6.750  0.00  0.00    +0.002 C 
ATOM     29  C   UNL     1      10.431  -9.532  -6.372  0.00  0.00    +0.008 C 
BRANCH  29  30
ATOM     30  C   UNL     1      10.817 -10.676  -7.211  0.00  0.00    -0.025 A 
ATOM     31  C   UNL     1      10.126 -10.944  -8.398  0.00  0.00    +0.008 A 
ATOM     32  C   UNL     1      10.498 -12.015  -9.181  0.00  0.00    +0.001 A 
ATOM     33  C   UNL     1      11.544 -12.833  -8.791  0.00  0.00    +0.000 A 
ATOM     34  C   UNL     1      12.230 -12.578  -7.616  0.00  0.00    +0.001 A 
ATOM     35  C   UNL     1      11.875 -11.507  -6.824  0.00  0.00    +0.008 A 
ENDBRANCH  29  30
ENDBRANCH  24  28
ENDBRANCH  19  20
ENDBRANCH   1  19
TORSDOF 9
