REMARK  Name = ZINC65190087
REMARK  5 active torsions:
REMARK  status: ('A' for Active; 'I' for Inactive)
REMARK    1  A    between atoms: C_1  and  C_2
REMARK    2  A    between atoms: C_2  and  N_3
REMARK    3  A    between atoms: N_6  and  N_7
REMARK    4  A    between atoms: C_8  and  C_10
REMARK    5  A    between atoms: C_23  and  C_24
REMARK                            x       y       z     vdW  Elec       q    Type
REMARK                         _______ _______ _______ _____ _____    ______ ____
ROOT
ATOM      1  C   UNL     1      -6.352  -0.944   0.061  0.00  0.00    +0.052 A 
ATOM      2  C   UNL     1      -6.672  -0.176  -1.142  0.00  0.00    +0.013 A 
ATOM      3  C   UNL     1      -6.079  -0.462  -2.375  0.00  0.00    +0.011 A 
ATOM      4  C   UNL     1      -6.408   0.281  -3.470  0.00  0.00    +0.001 A 
ATOM      5  C   UNL     1      -7.329   1.322  -3.374  0.00  0.00    +0.002 A 
ATOM      6  C   UNL     1      -7.925   1.627  -2.190  0.00  0.00    +0.028 A 
ATOM      7  C   UNL     1      -7.610   0.882  -1.037  0.00  0.00    +0.072 A 
ATOM      8  N   UNL     1      -8.178   1.156   0.135  0.00  0.00    -0.247 NA
ATOM      9  C   UNL     1      -7.908   0.476   1.245  0.00  0.00    +0.072 A 
ATOM     10  C   UNL     1      -6.995  -0.591   1.238  0.00  0.00    -0.009 A 
ATOM     11  C   UNL     1      -6.889  -1.181   2.623  0.00  0.00    +0.043 C 
ATOM     12  C   UNL     1      -7.842  -0.369   3.510  0.00  0.00    +0.042 C 
ATOM     13  C   UNL     1      -8.456   0.667   2.602  0.00  0.00    -0.021 C 
ATOM     14  C   UNL     1      -9.356   1.597   2.964  0.00  0.00    +0.013 C 
ENDROOT
BRANCH  14  15
ATOM     15  C   UNL     1      -9.714   1.763   4.384  0.00  0.00    -0.025 A 
ATOM     16  C   UNL     1      -8.721   1.726   5.367  0.00  0.00    +0.008 A 
ATOM     17  C   UNL     1      -9.063   1.883   6.694  0.00  0.00    +0.001 A 
ATOM     18  C   UNL     1     -10.386   2.076   7.053  0.00  0.00    +0.000 A 
ATOM     19  C   UNL     1     -11.374   2.113   6.085  0.00  0.00    +0.001 A 
ATOM     20  C   UNL     1     -11.047   1.963   4.754  0.00  0.00    +0.008 A 
ENDBRANCH  14  15
BRANCH   1  22
ATOM     21  N   UNL     1      -4.076  -1.827   0.254  0.00  0.00    -0.229 N 
ATOM     22  C   UNL     1      -5.383  -2.061   0.022  0.00  0.00    +0.261 C 
ATOM     23  O   UNL     1      -5.765  -3.189  -0.220  0.00  0.00    -0.269 OA
ATOM     24  H   UNL     1      -3.771  -0.927   0.447  0.00  0.00    +0.173 HD
BRANCH  21  28
ATOM     25  N   UNL     1      -1.427  -1.400   0.717  0.00  0.00    -0.298 N 
ATOM     26  C   UNL     1      -1.851  -2.651   0.449  0.00  0.00    +0.316 C 
ATOM     27  O   UNL     1      -1.054  -3.569   0.417  0.00  0.00    -0.251 OA
ATOM     28  N   UNL     1      -3.158  -2.885   0.217  0.00  0.00    -0.218 N 
ATOM     29  H   UNL     1      -2.063  -0.668   0.743  0.00  0.00    +0.150 HD
ATOM     30  H   UNL     1      -3.463  -3.785   0.024  0.00  0.00    +0.174 HD
BRANCH  25  32
ATOM     31  C   UNL     1       0.204   0.344   1.245  0.00  0.00    +0.024 C 
ATOM     32  C   UNL     1      -0.007  -1.146   0.970  0.00  0.00    +0.102 C 
ENDBRANCH  25  32
ENDBRANCH  21  28
ENDBRANCH   1  22
TORSDOF 4
