REMARK  Name = ZINC64110482
REMARK  7 active torsions:
REMARK  status: ('A' for Active; 'I' for Inactive)
REMARK    1  A    between atoms: C_1  and  C_2
REMARK    2  A    between atoms: C_2  and  C_3
REMARK    3  A    between atoms: C_2  and  C_4
REMARK    4  A    between atoms: C_7  and  C_9
REMARK    5  A    between atoms: C_9  and  N_10
REMARK    6  A    between atoms: C_23  and  C_25
REMARK    7  A    between atoms: N_34  and  C_35
REMARK                            x       y       z     vdW  Elec       q    Type
REMARK                         _______ _______ _______ _____ _____    ______ ____
ROOT
ATOM      1  N   UNL     1      -3.498  -4.375  -0.465  0.00  0.00    -0.288 NA
ATOM      2  C   UNL     1      -2.068  -4.549  -0.196  0.00  0.00    +0.090 C 
ATOM      3  C   UNL     1      -1.863  -5.501   0.997  0.00  0.00    +0.049 C 
ATOM      4  C   UNL     1      -2.701  -6.721   0.710  0.00  0.00    -0.036 C 
ATOM      5  C   UNL     1      -2.429  -8.018   0.737  0.00  0.00    -0.001 A 
ATOM      6  C   UNL     1      -1.243  -8.763   1.190  0.00  0.00    +0.010 A 
ATOM      7  C   UNL     1      -1.293 -10.114   1.047  0.00  0.00    +0.001 A 
ATOM      8  C   UNL     1      -2.391 -10.791   0.506  0.00  0.00    +0.002 A 
ATOM      9  C   UNL     1      -3.526 -10.187   0.073  0.00  0.00    +0.026 A 
ATOM     10  C   UNL     1      -3.597  -8.768   0.182  0.00  0.00    +0.043 A 
ATOM     11  N   UNL     1      -4.561  -7.948  -0.123  0.00  0.00    -0.376 N 
ATOM     12  C   UNL     1      -4.157  -6.599   0.267  0.00  0.00    +0.127 C 
ATOM     13  C   UNL     1      -4.164  -5.613  -0.902  0.00  0.00    +0.122 C 
ATOM     14  H   UNL     1      -5.403  -8.191  -0.538  0.00  0.00    +0.160 HD
ENDROOT
BRANCH  13  15
ATOM     15  C   UNL     1      -3.409  -6.214  -2.089  0.00  0.00    +0.178 C 
ATOM     16  N   UNL     1      -2.008  -6.461  -1.725  0.00  0.00    -0.323 N 
ATOM     17  C   UNL     1      -1.212  -5.689  -2.582  0.00  0.00    +0.050 A 
ATOM     18  C   UNL     1       0.170  -5.560  -2.657  0.00  0.00    +0.025 A 
ATOM     19  C   UNL     1       0.739  -4.724  -3.599  0.00  0.00    +0.002 A 
ATOM     20  C   UNL     1      -0.065  -4.013  -4.471  0.00  0.00    +0.002 A 
ATOM     21  C   UNL     1      -1.439  -4.135  -4.404  0.00  0.00    +0.025 A 
ATOM     22  C   UNL     1      -2.020  -4.973  -3.459  0.00  0.00    +0.052 A 
ATOM     23  N   UNL     1      -3.370  -5.257  -3.202  0.00  0.00    -0.312 N 
ATOM     24  C   UNL     1      -4.527  -4.704  -3.911  0.00  0.00    +0.131 C 
ATOM     25  H   UNL     1      -1.693  -7.050  -1.022  0.00  0.00    +0.148 HD
ENDBRANCH  13  15
BRANCH   1  26
ATOM     26  C   UNL     1      -3.725  -3.288  -1.427  0.00  0.00    +0.147 C 
BRANCH  26  30
ATOM     27  C   UNL     1      -1.786  -0.291  -0.344  0.00  0.00    +0.051 A 
ATOM     28  C   UNL     1      -2.796   0.308   0.336  0.00  0.00    +0.070 A 
ATOM     29  S   UNL     1      -4.108  -0.877   0.089  0.00  0.00    -0.079 S 
ATOM     30  C   UNL     1      -3.245  -1.987  -0.837  0.00  0.00    +0.093 A 
ATOM     31  N   UNL     1      -2.057  -1.443  -0.924  0.00  0.00    -0.247 NA
BRANCH  27  33
ATOM     32  C   UNL     1      -0.558   1.858  -0.501  0.00  0.00    +0.014 C 
ATOM     33  C   UNL     1      -0.418   0.336  -0.438  0.00  0.00    +0.032 C 
ATOM     34  C   UNL     1       0.405  -0.050   0.793  0.00  0.00    +0.014 C 
ENDBRANCH  27  33
ENDBRANCH  26  30
ENDBRANCH   1  26
TORSDOF 4
