REMARK  Name = ZINC16614563
REMARK  8 active torsions:
REMARK  status: ('A' for Active; 'I' for Inactive)
REMARK    1  A    between atoms: C_1  and  C_2
REMARK    2  A    between atoms: C_6  and  C_8
REMARK    3  A    between atoms: C_14  and  C_16
REMARK    4  A    between atoms: C_16  and  C_18
REMARK    5  A    between atoms: C_16  and  N_21
REMARK    6  A    between atoms: C_18  and  C_19
REMARK    7  A    between atoms: C_18  and  C_20
REMARK    8  A    between atoms: N_24  and  C_25
REMARK                            x       y       z     vdW  Elec       q    Type
REMARK                         _______ _______ _______ _____ _____    ______ ____
ROOT
ATOM      1  C   UNL     1      -0.578  11.459   0.681  0.00  0.00    +0.163 C 
ENDROOT
BRANCH   1   8
ATOM      2  C   UNL     1      -0.659   5.105   1.018  0.00  0.00    +0.134 A 
ATOM      3  N   UNL     1       0.290   5.860   0.478  0.00  0.00    -0.140 NA
ATOM      4  N   UNL     1       0.190   7.119   0.495  0.00  0.00    -0.125 NA
ATOM      5  C   UNL     1      -0.842   7.732   1.051  0.00  0.00    +0.188 A 
ATOM      6  S   UNL     1      -1.776   6.373   1.604  0.00  0.00    -0.030 S 
ATOM      7  N   UNL     1      -1.107   9.091   1.163  0.00  0.00    -0.262 N 
ATOM      8  C   UNL     1      -0.239   9.991   0.658  0.00  0.00    +0.239 C 
ATOM      9  O   UNL     1       0.814   9.619   0.187  0.00  0.00    -0.273 OA
ATOM     10  H   UNL     1      -1.917   9.393   1.604  0.00  0.00    +0.157 HD
BRANCH   2  16
ATOM     11  C   UNL     1       1.226   0.579   0.091  0.00  0.00    +0.044 C 
ATOM     12  C   UNL     1       0.143   1.452   0.669  0.00  0.00    -0.050 A 
ATOM     13  C   UNL     1      -0.950   0.876   1.292  0.00  0.00    +0.003 A 
ATOM     14  C   UNL     1      -1.952   1.671   1.820  0.00  0.00    +0.001 A 
ATOM     15  C   UNL     1      -1.861   3.046   1.739  0.00  0.00    +0.010 A 
ATOM     16  C   UNL     1      -0.760   3.633   1.113  0.00  0.00    +0.009 A 
ATOM     17  C   UNL     1       0.244   2.825   0.577  0.00  0.00    +0.014 A 
ENDBRANCH   2  16
ENDBRANCH   1   8
BRANCH   1  18
ATOM     18  N   UNL     1       0.649  12.246   0.534  0.00  0.00    -0.288 N 
ATOM     19  C   UNL     1       0.704  13.505   1.010  0.00  0.00    +0.304 C 
ATOM     20  O   UNL     1      -0.266  13.989   1.563  0.00  0.00    -0.252 OA
ATOM     21  N   UNL     1       1.833  14.229   0.875  0.00  0.00    -0.268 N 
ATOM     22  H   UNL     1       1.422  11.860   0.093  0.00  0.00    +0.151 HD
ATOM     23  H   UNL     1       2.577  13.875   0.364  0.00  0.00    +0.156 HD
BRANCH  21  24
ATOM     24  C   UNL     1       1.930  15.492   1.471  0.00  0.00    +0.049 A 
ATOM     25  C   UNL     1       1.078  15.838   2.511  0.00  0.00    +0.024 A 
ATOM     26  C   UNL     1       1.181  17.083   3.101  0.00  0.00    +0.002 A 
ATOM     27  C   UNL     1       2.123  17.988   2.649  0.00  0.00    +0.001 A 
ATOM     28  C   UNL     1       2.970  17.649   1.610  0.00  0.00    +0.017 A 
ATOM     29  C   UNL     1       2.877  16.403   1.019  0.00  0.00    +0.039 A 
ATOM     30 BR   UNL     1       4.034  15.940  -0.403  0.00  0.00    -0.048 Br
ENDBRANCH  21  24
ENDBRANCH   1  18
BRANCH   1  31
ATOM     31  C   UNL     1      -1.531  11.781  -0.471  0.00  0.00    +0.012 C 
ATOM     32  C   UNL     1      -1.963  13.246  -0.383  0.00  0.00    +0.009 C 
ATOM     33  C   UNL     1      -0.820  11.539  -1.804  0.00  0.00    +0.009 C 
ENDBRANCH   1  31
TORSDOF 5
