REMARK  Name = ZINC61595632
REMARK  5 active torsions:
REMARK  status: ('A' for Active; 'I' for Inactive)
REMARK    1  A    between atoms: C_1  and  C_2
REMARK    2  A    between atoms: C_2  and  N_3
REMARK    3  A    between atoms: C_9  and  S_10
REMARK    4  A    between atoms: S_10  and  C_11
REMARK    5  A    between atoms: C_12  and  C_20
REMARK                            x       y       z     vdW  Elec       q    Type
REMARK                         _______ _______ _______ _____ _____    ______ ____
ROOT
ATOM      1  C   UNL     1      -3.080  -0.956  -3.711  0.00  0.00    +0.115 A 
ATOM      2  C   UNL     1      -2.983  -1.061  -5.109  0.00  0.00    +0.045 A 
ATOM      3  C   UNL     1      -4.064  -1.596  -5.816  0.00  0.00    +0.019 A 
ATOM      4  C   UNL     1      -5.184  -2.000  -5.108  0.00  0.00    -0.025 A 
ATOM      5  C   UNL     1      -5.209  -1.867  -3.731  0.00  0.00    +0.046 A 
ATOM      6  N   UNL     1      -4.171  -1.362  -3.083  0.00  0.00    -0.244 NA
ATOM      7  C   UNL     1      -6.533  -2.377  -3.196  0.00  0.00    +0.056 C 
ATOM      8  C   UNL     1      -7.473  -2.423  -4.419  0.00  0.00    +0.011 C 
ATOM      9  C   UNL     1      -6.484  -2.605  -5.591  0.00  0.00    +0.037 C 
ENDROOT
BRANCH   2  10
ATOM     10  C   UNL     1      -1.767  -0.616  -5.815  0.00  0.00    +0.097 C 
ATOM     11  N   UNL     1      -0.580  -1.125  -5.484  0.00  0.00    -0.387 N 
ATOM     12  N   UNL     1      -1.855   0.295  -6.785  0.00  0.00    -0.344 N 
ATOM     13  H   UNL     1       0.228  -0.777  -5.894  0.00  0.00    +0.157 HD
ATOM     14  H   UNL     1      -2.719   0.665  -7.026  0.00  0.00    +0.144 HD
ATOM     15  H   UNL     1      -1.055   0.587  -7.250  0.00  0.00    +0.144 HD
ATOM     16  H   UNL     1      -0.524  -1.841  -4.833  0.00  0.00    +0.157 HD
ENDBRANCH   2  10
BRANCH   1  17
ATOM     17  S   UNL     1      -1.736  -0.287  -2.788  0.00  0.00    -0.030 S 
BRANCH  17  24
ATOM     18  N   UNL     1      -1.577   0.059  -0.016  0.00  0.00    -0.271 N 
ATOM     19  C   UNL     1      -2.331  -0.148   1.082  0.00  0.00    +0.345 A 
ATOM     20  O   UNL     1      -2.016   0.109   2.231  0.00  0.00    -0.245 OA
ATOM     21  N   UNL     1      -3.498  -0.691   0.678  0.00  0.00    -0.226 N 
ATOM     22  H   UNL     1      -4.239  -0.948   1.248  0.00  0.00    +0.194 HD
ATOM     23  N   UNL     1      -3.442  -0.815  -0.717  0.00  0.00    -0.144 NA
ATOM     24  C   UNL     1      -2.291  -0.358  -1.116  0.00  0.00    +0.198 A 
BRANCH  18  26
ATOM     25  C   UNL     1      -0.327   2.155  -0.174  0.00  0.00    +0.027 C 
ATOM     26  C   UNL     1      -0.230   0.635  -0.035  0.00  0.00    +0.125 C 
ENDBRANCH  18  26
ENDBRANCH  17  24
ENDBRANCH   1  17
TORSDOF 4
