REMARK  Name = ZINC61658664
REMARK  5 active torsions:
REMARK  status: ('A' for Active; 'I' for Inactive)
REMARK    1  A    between atoms: C_3  and  C_11
REMARK    2  A    between atoms: C_4  and  C_7
REMARK    3  A    between atoms: N_8  and  O_9
REMARK    4  A    between atoms: C_11  and  O_12
REMARK    5  A    between atoms: O_12  and  C_13
REMARK                            x       y       z     vdW  Elec       q    Type
REMARK                         _______ _______ _______ _____ _____    ______ ____
ROOT
ATOM      1  C   UNL     1      -0.009   1.390   0.022  0.00  0.00    +0.020 A 
ATOM      2  C   UNL     1       1.194   2.082   0.011  0.00  0.00    +0.010 A 
ATOM      3  C   UNL     1       2.373   1.357  -0.011  0.00  0.00    +0.018 A 
ATOM      4  C   UNL     1       2.312  -0.035  -0.021  0.00  0.00    +0.113 A 
ATOM      5  N   UNL     1       1.140  -0.659  -0.010  0.00  0.00    -0.252 NA
ATOM      6  C   UNL     1       0.004   0.007   0.011  0.00  0.00    +0.111 A 
ENDROOT
BRANCH   4   7
ATOM      7  C   UNL     1       3.564  -0.826  -0.045  0.00  0.00    +0.181 C 
ATOM      8  N   UNL     1       4.079  -1.262   1.067  0.00  0.00    -0.070 NA
ATOM      9  N   UNL     1       4.187  -1.101  -1.251  0.00  0.00    -0.339 N 
ATOM     10  H   UNL     1       3.803  -0.775  -2.080  0.00  0.00    +0.144 HD
ATOM     11  H   UNL     1       5.007  -1.618  -1.266  0.00  0.00    +0.144 HD
BRANCH   8  12
ATOM     12  O   UNL     1       3.386  -1.077   2.288  0.00  0.00    -0.408 OA
ATOM     13  H   UNL     1       3.809  -1.500   3.048  0.00  0.00    +0.328 HD
ENDBRANCH   8  12
ENDBRANCH   4   7
BRANCH   3  14
ATOM     14  C   UNL     1       3.704   2.063  -0.024  0.00  0.00    +0.267 C 
BRANCH  14  15
ATOM     15  O   UNL     1       3.495   3.473  -0.133  0.00  0.00    -0.484 OA
BRANCH  15  16
ATOM     16  C   UNL     1       4.602   4.261  -0.158  0.00  0.00    +0.158 A 
ATOM     17  C   UNL     1       5.137   4.746   1.027  0.00  0.00    +0.085 A 
ATOM     18  C   UNL     1       6.263   5.548   0.998  0.00  0.00    +0.043 A 
ATOM     19  C   UNL     1       6.857   5.867  -0.211  0.00  0.00    +0.044 A 
ATOM     20  C   UNL     1       6.324   5.385  -1.393  0.00  0.00    +0.043 A 
ATOM     21  C   UNL     1       5.202   4.577  -1.369  0.00  0.00    +0.085 A 
ATOM     22 CL   UNL     1       4.540   3.965  -2.853  0.00  0.00    -0.080 Cl
ATOM     23 CL   UNL     1       8.270   6.874  -0.243  0.00  0.00    -0.083 Cl
ATOM     24 CL   UNL     1       4.393   4.348   2.543  0.00  0.00    -0.080 Cl
ENDBRANCH  15  16
ENDBRANCH  14  15
ENDBRANCH   3  14
TORSDOF 5
