REMARK  Name = ZINC66699351
REMARK  10 active torsions:
REMARK  status: ('A' for Active; 'I' for Inactive)
REMARK    1  A    between atoms: C_1  and  C_2
REMARK    2  A    between atoms: C_2  and  C_4
REMARK    3  A    between atoms: C_2  and  N_14
REMARK    4  A    between atoms: C_7  and  O_10
REMARK    5  A    between atoms: O_10  and  C_11
REMARK    6  A    between atoms: C_11  and  C_12
REMARK    7  A    between atoms: C_11  and  C_13
REMARK    8  A    between atoms: N_17  and  C_18
REMARK    9  A    between atoms: C_18  and  C_19
REMARK   10  A    between atoms: C_23  and  C_25
REMARK                            x       y       z     vdW  Elec       q    Type
REMARK                         _______ _______ _______ _____ _____    ______ ____
ROOT
ATOM      1  N   UNL     1       0.606  -0.255  -1.305  0.00  0.00    -0.293 N 
ATOM      2  C   UNL     1       1.946  -0.355  -1.420  0.00  0.00    +0.300 C 
ATOM      3  O   UNL     1       2.651  -0.233  -0.437  0.00  0.00    -0.253 OA
ATOM      4  N   UNL     1       2.503  -0.591  -2.624  0.00  0.00    -0.292 N 
ATOM      5  H   UNL     1       0.044  -0.353  -2.089  0.00  0.00    +0.151 HD
ATOM      6  H   UNL     1       1.940  -0.688  -3.408  0.00  0.00    +0.151 HD
ENDROOT
BRANCH   1   8
ATOM      7  C   UNL     1      -0.011   1.506   0.275  0.00  0.00    +0.033 C 
ATOM      8  C   UNL     1       0.000   0.001   0.004  0.00  0.00    +0.102 C 
BRANCH   8   9
ATOM      9  C   UNL     1      -1.413  -0.522   0.014  0.00  0.00    -0.027 A 
ATOM     10  C   UNL     1      -2.214  -0.367  -1.102  0.00  0.00    +0.009 A 
ATOM     11  C   UNL     1      -3.510  -0.845  -1.095  0.00  0.00    +0.046 A 
ATOM     12  C   UNL     1      -4.008  -1.482   0.033  0.00  0.00    +0.121 A 
ATOM     13  C   UNL     1      -3.201  -1.636   1.151  0.00  0.00    +0.046 A 
ATOM     14  C   UNL     1      -1.904  -1.161   1.137  0.00  0.00    +0.009 A 
BRANCH  12  15
ATOM     15  O   UNL     1      -5.282  -1.952   0.042  0.00  0.00    -0.489 OA
BRANCH  15  16
ATOM     16  C   UNL     1      -6.015  -1.866  -1.182  0.00  0.00    +0.167 C 
ATOM     17  C   UNL     1      -7.110  -2.935  -1.197  0.00  0.00    +0.051 C 
ATOM     18  C   UNL     1      -6.654  -0.480  -1.297  0.00  0.00    +0.051 C 
ENDBRANCH  15  16
ENDBRANCH  12  15
ENDBRANCH   8   9
ENDBRANCH   1   8
BRANCH   4  19
ATOM     19  C   UNL     1       3.959  -0.700  -2.749  0.00  0.00    +0.181 C 
BRANCH  19  20
ATOM     20  C   UNL     1       4.321  -0.963  -4.188  0.00  0.00    +0.143 A 
ATOM     21  N   UNL     1       4.673  -0.033  -5.094  0.00  0.00    -0.261 N 
ATOM     22  H   UNL     1       4.740   0.924  -4.947  0.00  0.00    +0.190 HD
ATOM     23  N   UNL     1       4.923  -0.718  -6.294  0.00  0.00    -0.152 NA
ATOM     24  C   UNL     1       4.714  -1.995  -6.051  0.00  0.00    +0.188 A 
ATOM     25  N   UNL     1       4.354  -2.134  -4.766  0.00  0.00    -0.209 NA
BRANCH  24  26
ATOM     26  C   UNL     1       4.858  -3.094  -7.030  0.00  0.00    +0.058 A 
ATOM     27  C   UNL     1       5.230  -3.033  -8.346  0.00  0.00    +0.019 A 
ATOM     28  C   UNL     1       5.296  -4.204  -9.070  0.00  0.00    +0.008 A 
ATOM     29  C   UNL     1       4.990  -5.377  -8.460  0.00  0.00    +0.046 A 
ATOM     30  S   UNL     1       4.600  -4.845  -6.801  0.00  0.00    -0.093 S 
ENDBRANCH  24  26
ENDBRANCH  19  20
ENDBRANCH   4  19
TORSDOF 7
