REMARK  Name = ZINC64953195
REMARK  14 active torsions:
REMARK  status: ('A' for Active; 'I' for Inactive)
REMARK    1  A    between atoms: C_1  and  C_2
REMARK    2  A    between atoms: C_2  and  C_3
REMARK    3  A    between atoms: C_3  and  N_4
REMARK    4  A    between atoms: C_8  and  C_26
REMARK    5  A    between atoms: C_13  and  C_14
REMARK    6  A    between atoms: C_13  and  C_15
REMARK    7  A    between atoms: N_17  and  C_18
REMARK    8  A    between atoms: C_18  and  C_19
REMARK    9  A    between atoms: C_22  and  C_25
REMARK   10  A    between atoms: N_28  and  C_29
REMARK   11  A    between atoms: C_29  and  C_30
REMARK   12  A    between atoms: C_33  and  N_36
REMARK   13  A    between atoms: N_36  and  C_37
REMARK   14  A    between atoms: N_36  and  C_38
REMARK                            x       y       z     vdW  Elec       q    Type
REMARK                         _______ _______ _______ _____ _____    ______ ____
ROOT
ATOM      1  N   UNL     1       0.838  -2.232  -2.081  0.00  0.00    -0.281 N 
ATOM      2  C   UNL     1       1.883  -2.952  -1.606  0.00  0.00    +0.266 C 
ATOM      3  O   UNL     1       2.891  -2.419  -1.184  0.00  0.00    -0.268 OA
ATOM      4  C   UNL     1       1.729  -4.416  -1.628  0.00  0.00    +0.137 A 
ATOM      5  C   UNL     1       2.479  -5.427  -1.088  0.00  0.00    +0.155 A 
ATOM      6  N   UNL     1       1.862  -6.584  -1.406  0.00  0.00    -0.230 NA
ATOM      7  C   UNL     1       0.787  -6.330  -2.110  0.00  0.00    +0.200 A 
ATOM      8  N   UNL     1       0.668  -5.012  -2.282  0.00  0.00    -0.323 N 
ATOM      9  C   UNL     1      -0.328  -4.223  -3.009  0.00  0.00    +0.158 C 
ATOM     10  C   UNL     1      -0.457  -2.846  -2.351  0.00  0.00    +0.128 C 
ATOM     11  C   UNL     1      -1.220  -2.992  -1.033  0.00  0.00    +0.043 C 
ENDROOT
BRANCH  10  12
ATOM     12  C   UNL     1      -1.243  -1.942  -3.266  0.00  0.00    +0.238 C 
ATOM     13  O   UNL     1      -2.397  -1.673  -3.008  0.00  0.00    -0.273 OA
ATOM     14  N   UNL     1      -0.663  -1.432  -4.370  0.00  0.00    -0.309 N 
ATOM     15  H   UNL     1       0.235  -1.704  -4.616  0.00  0.00    +0.149 HD
BRANCH  14  16
ATOM     16  C   UNL     1      -1.388  -0.467  -5.200  0.00  0.00    +0.139 C 
BRANCH  16  17
ATOM     17  C   UNL     1      -0.525  -0.055  -6.364  0.00  0.00    -0.030 A 
ATOM     18  C   UNL     1       0.326   1.028  -6.245  0.00  0.00    +0.005 A 
ATOM     19  C   UNL     1       1.118   1.406  -7.313  0.00  0.00    +0.003 A 
ATOM     20  C   UNL     1       1.060   0.700  -8.500  0.00  0.00    -0.050 A 
ATOM     21  C   UNL     1       0.211  -0.384  -8.619  0.00  0.00    +0.003 A 
ATOM     22  C   UNL     1      -0.579  -0.764  -7.549  0.00  0.00    +0.005 A 
ATOM     23  C   UNL     1       1.924   1.111  -9.665  0.00  0.00    +0.044 C 
ENDBRANCH  16  17
ENDBRANCH  14  16
ENDBRANCH  10  12
BRANCH   5  24
ATOM     24  C   UNL     1       3.726  -5.279  -0.307  0.00  0.00    +0.265 C 
ATOM     25  O   UNL     1       4.179  -4.173  -0.090  0.00  0.00    -0.268 OA
ATOM     26  N   UNL     1       4.359  -6.371   0.164  0.00  0.00    -0.306 N 
ATOM     27  H   UNL     1       3.998  -7.254  -0.009  0.00  0.00    +0.149 HD
BRANCH  26  28
ATOM     28  C   UNL     1       5.595  -6.224   0.938  0.00  0.00    +0.140 C 
BRANCH  28  29
ATOM     29  C   UNL     1       6.098  -7.586   1.344  0.00  0.00    -0.030 A 
ATOM     30  C   UNL     1       5.683  -8.147   2.538  0.00  0.00    +0.007 A 
ATOM     31  C   UNL     1       6.142  -9.394   2.913  0.00  0.00    +0.023 A 
ATOM     32  C   UNL     1       7.022 -10.085   2.089  0.00  0.00    +0.029 A 
ATOM     33  C   UNL     1       7.436  -9.519   0.890  0.00  0.00    +0.023 A 
ATOM     34  C   UNL     1       6.969  -8.274   0.519  0.00  0.00    +0.007 A 
BRANCH  32  35
ATOM     35  N   UNL     1       7.489 -11.347   2.466  0.00  0.00    -0.336 N 
ATOM     36  C   UNL     1       7.192 -11.869   3.802  0.00  0.00    +0.129 C 
ATOM     37  C   UNL     1       8.275 -12.148   1.524  0.00  0.00    +0.129 C 
ENDBRANCH  32  35
ENDBRANCH  28  29
ENDBRANCH  26  28
ENDBRANCH   5  24
BRANCH   1  38
ATOM     38  C   UNL     1       1.012  -0.798  -2.324  0.00  0.00    +0.109 C 
BRANCH  38  40
ATOM     39  C   UNL     1       0.709   1.486  -1.357  0.00  0.00    +0.005 C 
ATOM     40  C   UNL     1       0.527  -0.011  -1.104  0.00  0.00    +0.016 C 
ENDBRANCH  38  40
ENDBRANCH   1  38
TORSDOF 9
