REMARK  Name = ZINC38650866
REMARK  16 active torsions:
REMARK  status: ('A' for Active; 'I' for Inactive)
REMARK    1  A    between atoms: C_1  and  C_2
REMARK    2  A    between atoms: C_2  and  C_3
REMARK    3  A    between atoms: C_3  and  C_4
REMARK    4  A    between atoms: C_4  and  O_5
REMARK    5  A    between atoms: O_5  and  C_6
REMARK    6  A    between atoms: C_9  and  C_12
REMARK    7  A    between atoms: C_17  and  O_26
REMARK    8  A    between atoms: C_21  and  N_25
REMARK    9  A    between atoms: C_22  and  C_23
REMARK   10  A    between atoms: O_26  and  C_27
REMARK   11  A    between atoms: C_27  and  C_29
REMARK   12  A    between atoms: C_29  and  C_31
REMARK   13  A    between atoms: C_29  and  O_32
REMARK   14  A    between atoms: O_32  and  C_33
REMARK   15  A    between atoms: C_36  and  C_39
REMARK   16  A    between atoms: C_39  and  C_40
REMARK                            x       y       z     vdW  Elec       q    Type
REMARK                         _______ _______ _______ _____ _____    ______ ____
ROOT
ATOM      1  C   UNL     1       2.109  -8.048  -3.240  0.00  0.00    +0.098 C 
ATOM      2  C   UNL     1       1.360  -8.458  -4.480  0.00  0.00    +0.008 A 
ATOM      3  C   UNL     1      -0.015  -8.601  -4.428  0.00  0.00    +0.012 A 
ATOM      4  C   UNL     1      -0.719  -8.976  -5.556  0.00  0.00    +0.047 A 
ATOM      5  C   UNL     1      -0.046  -9.213  -6.747  0.00  0.00    +0.135 A 
ATOM      6  C   UNL     1       1.331  -9.071  -6.801  0.00  0.00    +0.093 A 
ATOM      7  C   UNL     1       2.037  -8.693  -5.667  0.00  0.00    +0.138 A 
ATOM      8  O   UNL     1       3.384  -8.559  -5.737  0.00  0.00    -0.441 OA
ATOM      9  C   UNL     1       4.119  -8.580  -4.613  0.00  0.00    +0.199 C 
ATOM     10  C   UNL     1       3.574  -8.345  -3.400  0.00  0.00    +0.098 C 
ENDROOT
BRANCH   1  14
ATOM     11  C   UNL     1       1.577  -3.858  -2.586  0.00  0.00    +0.121 A 
ATOM     12  C   UNL     1       1.157  -4.770  -1.628  0.00  0.00    +0.046 A 
ATOM     13  C   UNL     1       1.330  -6.124  -1.842  0.00  0.00    +0.008 A 
ATOM     14  C   UNL     1       1.921  -6.571  -3.009  0.00  0.00    -0.034 A 
ATOM     15  C   UNL     1       2.341  -5.664  -3.965  0.00  0.00    +0.008 A 
ATOM     16  C   UNL     1       2.165  -4.309  -3.759  0.00  0.00    +0.046 A 
BRANCH  11  17
ATOM     17  O   UNL     1       1.408  -2.526  -2.378  0.00  0.00    -0.492 OA
BRANCH  17  18
ATOM     18  C   UNL     1       0.795  -2.135  -1.147  0.00  0.00    +0.229 C 
BRANCH  18  19
ATOM     19  C   UNL     1       0.690  -0.609  -1.093  0.00  0.00    +0.041 C 
BRANCH  19  21
ATOM     20  C   UNL     1      -0.071   1.336   0.278  0.00  0.00    +0.004 C 
ATOM     21  C   UNL     1       0.034  -0.190   0.224  0.00  0.00    -0.000 C 
ENDBRANCH  19  21
ENDBRANCH  18  19
ENDBRANCH  17  18
ENDBRANCH  11  17
ENDBRANCH   1  14
BRANCH   9  22
ATOM     22  N   UNL     1       5.463  -8.847  -4.700  0.00  0.00    -0.328 N 
ATOM     23  H   UNL     1       5.868  -9.018  -5.565  0.00  0.00    +0.145 HD
ATOM     24  H   UNL     1       6.007  -8.866  -3.897  0.00  0.00    +0.145 HD
ENDBRANCH   9  22
BRANCH  10  25
ATOM     25  C   UNL     1       4.413  -8.380  -2.240  0.00  0.00    +0.101 C 
ATOM     26  N   UNL     1       5.079  -8.408  -1.319  0.00  0.00    -0.191 NA
ENDBRANCH  10  25
BRANCH   5  27
ATOM     27  O   UNL     1      -0.737  -9.583  -7.857  0.00  0.00    -0.423 OA
BRANCH  27  28
ATOM     28  C   UNL     1      -0.548 -10.824  -8.332  0.00  0.00    +0.353 C 
ATOM     29  O   UNL     1       0.141 -11.607  -7.721  0.00  0.00    -0.246 OA
BRANCH  28  30
ATOM     30  C   UNL     1      -1.196 -11.242  -9.627  0.00  0.00    +0.279 C 
ATOM     31  C   UNL     1      -0.614 -10.418 -10.777  0.00  0.00    +0.064 C 
BRANCH  30  32
ATOM     32  O   UNL     1      -0.944 -12.629  -9.860  0.00  0.00    -0.478 OA
BRANCH  32  33
ATOM     33  C   UNL     1      -1.806 -13.283 -10.682  0.00  0.00    +0.122 A 
ATOM     34  C   UNL     1      -1.581 -14.613 -11.008  0.00  0.00    +0.046 A 
ATOM     35  C   UNL     1      -2.459 -15.275 -11.844  0.00  0.00    +0.007 A 
ATOM     36  C   UNL     1      -3.561 -14.615 -12.356  0.00  0.00    -0.047 A 
ATOM     37  C   UNL     1      -3.786 -13.289 -12.033  0.00  0.00    +0.007 A 
ATOM     38  C   UNL     1      -2.915 -12.624 -11.193  0.00  0.00    +0.046 A 
BRANCH  36  39
ATOM     39  C   UNL     1      -4.516 -15.340 -13.268  0.00  0.00    +0.032 C 
ATOM     40  C   UNL     1      -5.618 -15.997 -12.433  0.00  0.00    +0.009 C 
ENDBRANCH  36  39
ENDBRANCH  32  33
ENDBRANCH  30  32
ENDBRANCH  28  30
ENDBRANCH  27  28
ENDBRANCH   5  27
TORSDOF 13
