REMARK  Name = ZINC39652954
REMARK  9 active torsions:
REMARK  status: ('A' for Active; 'I' for Inactive)
REMARK    1  A    between atoms: C_1  and  O_2
REMARK    2  A    between atoms: O_2  and  C_3
REMARK    3  A    between atoms: C_6  and  C_9
REMARK    4  A    between atoms: C_9  and  C_10
REMARK    5  A    between atoms: C_10  and  C_11
REMARK    6  A    between atoms: C_15  and  C_24
REMARK    7  A    between atoms: N_26  and  C_27
REMARK    8  A    between atoms: C_27  and  C_28
REMARK    9  A    between atoms: C_28  and  C_29
REMARK                            x       y       z     vdW  Elec       q    Type
REMARK                         _______ _______ _______ _____ _____    ______ ____
ROOT
ATOM      1  C   UNL     1      -6.931  -3.610  -1.359  0.00  0.00    +0.216 C 
ATOM      2  O   UNL     1      -7.457  -3.954  -0.322  0.00  0.00    -0.276 OA
ATOM      3  N   UNL     1      -7.491  -3.939  -2.540  0.00  0.00    -0.300 N 
ATOM      4  C   UNL     1      -6.998  -3.618  -3.900  0.00  0.00    +0.121 C 
ATOM      5  C   UNL     1      -7.279  -4.891  -4.728  0.00  0.00    +0.100 C 
ATOM      6  C   UNL     1      -8.424  -5.599  -3.985  0.00  0.00    -0.004 C 
ATOM      7  C   UNL     1      -8.737  -4.709  -2.772  0.00  0.00    +0.115 C 
ATOM      8  C   UNL     1      -9.648  -5.714  -4.887  0.00  0.00    -0.010 C 
ATOM      9  C   UNL     1     -10.753  -6.472  -4.145  0.00  0.00    -0.082 C 
ATOM     10  N   UNL     1     -10.268  -7.806  -3.772  0.00  0.00    +0.379 N 
ATOM     11  C   UNL     1      -9.149  -7.687  -2.831  0.00  0.00    -0.082 C 
ATOM     12  C   UNL     1      -7.976  -6.980  -3.517  0.00  0.00    -0.010 C 
ATOM     13  H   UNL     1     -11.017  -8.326  -3.338  0.00  0.00    -0.086 HD
ATOM     14  H   UNL     1      -9.960  -8.294  -4.600  0.00  0.00    -0.086 HD
ENDROOT
BRANCH   5  15
ATOM     15  C   UNL     1      -7.705  -4.525  -6.126  0.00  0.00    +0.218 C 
ATOM     16  O   UNL     1      -8.308  -3.491  -6.325  0.00  0.00    -0.275 OA
ATOM     17  N   UNL     1      -7.418  -5.346  -7.156  0.00  0.00    -0.315 N 
ATOM     18  H   UNL     1      -6.936  -6.173  -6.997  0.00  0.00    +0.149 HD
BRANCH  17  19
ATOM     19  C   UNL     1      -7.833  -4.989  -8.515  0.00  0.00    +0.109 C 
BRANCH  19  20
ATOM     20  C   UNL     1      -7.386  -6.082  -9.488  0.00  0.00    +0.054 C 
BRANCH  20  21
ATOM     21  C   UNL     1      -7.813  -5.716 -10.886  0.00  0.00    -0.046 A 
ATOM     22  C   UNL     1      -9.049  -6.116 -11.358  0.00  0.00    +0.005 A 
ATOM     23  C   UNL     1      -9.441  -5.780 -12.640  0.00  0.00    +0.015 A 
ATOM     24  C   UNL     1      -8.596  -5.043 -13.451  0.00  0.00    +0.018 A 
ATOM     25  C   UNL     1      -7.359  -4.643 -12.978  0.00  0.00    +0.015 A 
ATOM     26  C   UNL     1      -6.970  -4.975 -11.694  0.00  0.00    +0.005 A 
ATOM     27 BR   UNL     1      -9.132  -4.583 -15.205  0.00  0.00    -0.050 Br
ENDBRANCH  20  21
ENDBRANCH  19  20
ENDBRANCH  17  19
ENDBRANCH   5  15
BRANCH   1  28
ATOM     28  C   UNL     1      -5.652  -2.815  -1.327  0.00  0.00    +0.100 C 
BRANCH  28  29
ATOM     29  C   UNL     1      -5.234  -2.579   0.125  0.00  0.00    +0.044 C 
BRANCH  29  33
ATOM     30  C   UNL     1      -1.605  -0.324   0.216  0.00  0.00    +0.120 A 
ATOM     31  C   UNL     1      -2.829   0.329   0.218  0.00  0.00    +0.046 A 
ATOM     32  C   UNL     1      -4.000  -0.402   0.188  0.00  0.00    +0.007 A 
ATOM     33  C   UNL     1      -3.954  -1.784   0.157  0.00  0.00    -0.047 A 
ATOM     34  C   UNL     1      -2.735  -2.437   0.155  0.00  0.00    +0.007 A 
ATOM     35  C   UNL     1      -1.561  -1.710   0.179  0.00  0.00    +0.046 A 
BRANCH  30  37
ATOM     36  C   UNL     1      -0.572   1.816   0.282  0.00  0.00    +0.277 C 
ATOM     37  O   UNL     1      -0.451   0.393   0.244  0.00  0.00    -0.495 OA
ENDBRANCH  30  37
ENDBRANCH  29  33
ENDBRANCH  28  29
ENDBRANCH   1  28
TORSDOF 8
