REMARK  Name = ZINC60211222
REMARK  5 active torsions:
REMARK  status: ('A' for Active; 'I' for Inactive)
REMARK    1  A    between atoms: C_1  and  N_2
REMARK    2  A    between atoms: N_11  and  C_12
REMARK    3  A    between atoms: C_12  and  C_14
REMARK    4  A    between atoms: C_14  and  C_15
REMARK    5  A    between atoms: C_15  and  C_16
REMARK                            x       y       z     vdW  Elec       q    Type
REMARK                         _______ _______ _______ _____ _____    ______ ____
ROOT
ATOM      1  C   UNL     1       3.378  -1.200   0.062  0.00  0.00    +0.239 C 
ATOM      2  O   UNL     1       3.161  -2.396   0.058  0.00  0.00    -0.274 OA
ENDROOT
BRANCH   1  13
ATOM      3  C   UNL     1      -0.017   1.461   0.032  0.00  0.00    +0.152 C 
ATOM      4  N   UNL     1       0.002  -0.003   0.017  0.00  0.00    -0.315 N 
ATOM      5  C   UNL     1      -1.114  -0.834   0.020  0.00  0.00    +0.068 A 
ATOM      6  C   UNL     1      -2.480  -0.584   0.037  0.00  0.00    +0.029 A 
ATOM      7  C   UNL     1      -3.371  -1.638   0.035  0.00  0.00    +0.022 A 
ATOM      8  C   UNL     1      -2.909  -2.944   0.018  0.00  0.00    +0.043 A 
ATOM      9  C   UNL     1      -1.552  -3.203   0.001  0.00  0.00    +0.047 A 
ATOM     10  C   UNL     1      -0.648  -2.150   0.002  0.00  0.00    +0.067 A 
ATOM     11  N   UNL     1       0.742  -2.092  -0.012  0.00  0.00    -0.326 N 
ATOM     12  C   UNL     1       1.114  -0.785  -0.008  0.00  0.00    +0.201 A 
ATOM     13  N   UNL     1       2.368  -0.341  -0.023  0.00  0.00    -0.147 NA
ATOM     14 CL   UNL     1      -4.040  -4.262   0.017  0.00  0.00    -0.083 Cl
ATOM     15  H   UNL     1       1.342  -2.853  -0.025  0.00  0.00    +0.169 HD
ENDBRANCH   1  13
BRANCH   1  16
ATOM     16  C   UNL     1       4.793  -0.691   0.164  0.00  0.00    +0.103 C 
BRANCH  16  17
ATOM     17  C   UNL     1       5.756  -1.877   0.250  0.00  0.00    +0.046 C 
BRANCH  17  18
ATOM     18  C   UNL     1       7.171  -1.369   0.352  0.00  0.00    -0.022 A 
ATOM     19  C   UNL     1       8.032  -1.193  -0.663  0.00  0.00    +0.087 A 
ATOM     20  N   UNL     1       9.223  -0.717  -0.188  0.00  0.00    -0.360 N 
ATOM     21  H   UNL     1       9.999  -0.513  -0.733  0.00  0.00    +0.165 HD
ATOM     22  C   UNL     1       9.157  -0.570   1.179  0.00  0.00    +0.047 A 
ATOM     23  C   UNL     1       7.866  -0.966   1.577  0.00  0.00    +0.003 A 
ATOM     24  C   UNL     1       7.507  -0.916   2.925  0.00  0.00    +0.010 A 
ATOM     25  C   UNL     1       8.410  -0.480   3.852  0.00  0.00    +0.001 A 
ATOM     26  C   UNL     1       9.683  -0.084   3.465  0.00  0.00    +0.002 A 
ATOM     27  C   UNL     1      10.062  -0.134   2.141  0.00  0.00    +0.026 A 
ENDBRANCH  17  18
ENDBRANCH  16  17
ENDBRANCH   1  16
TORSDOF 4
