REMARK  Name = ZINC36692478
REMARK  10 active torsions:
REMARK  status: ('A' for Active; 'I' for Inactive)
REMARK    1  A    between atoms: C_1  and  C_2
REMARK    2  A    between atoms: C_2  and  C_3
REMARK    3  A    between atoms: C_3  and  C_4
REMARK    4  A    between atoms: C_4  and  C_6
REMARK    5  A    between atoms: C_4  and  N_7
REMARK    6  A    between atoms: C_8  and  C_10
REMARK    7  A    between atoms: C_10  and  N_11
REMARK    8  A    between atoms: C_16  and  C_23
REMARK    9  A    between atoms: C_19  and  C_21
REMARK   10  A    between atoms: C_19  and  C_22
REMARK                            x       y       z     vdW  Elec       q    Type
REMARK                         _______ _______ _______ _____ _____    ______ ____
ROOT
ATOM      1  N   UNL     1      -2.406  -5.634   0.444  0.00  0.00    -0.215 N 
ATOM      2  C   UNL     1      -2.735  -5.886  -0.842  0.00  0.00    +0.247 C 
ATOM      3  O   UNL     1      -3.173  -5.088  -1.641  0.00  0.00    -0.273 OA
ATOM      4  C   UNL     1      -2.444  -7.353  -1.050  0.00  0.00    +0.113 C 
ATOM      5  C   UNL     1      -3.635  -8.059  -1.680  0.00  0.00    +0.038 C 
ATOM      6  C   UNL     1      -3.757  -7.665  -3.152  0.00  0.00    -0.011 C 
ATOM      7  C   UNL     1      -2.498  -8.121  -3.886  0.00  0.00    +0.009 C 
ATOM      8  C   UNL     1      -1.258  -7.437  -3.322  0.00  0.00    -0.032 C 
ATOM      9  C   UNL     1      -1.153  -7.573  -1.813  0.00  0.00    +0.041 C 
ATOM     10  C   UNL     1      -1.236  -5.963  -3.737  0.00  0.00    +0.011 C 
ATOM     11  C   UNL     1      -0.021  -8.114  -3.951  0.00  0.00    +0.011 C 
ATOM     12  C   UNL     1      -4.979  -8.360  -3.762  0.00  0.00    +0.007 C 
ATOM     13  N   UNL     1      -2.268  -7.855   0.332  0.00  0.00    -0.285 N 
ATOM     14  C   UNL     1      -2.190  -6.769   1.121  0.00  0.00    +0.310 C 
ATOM     15  O   UNL     1      -1.951  -6.811   2.312  0.00  0.00    -0.252 OA
ATOM     16  H   UNL     1      -2.220  -8.783   0.598  0.00  0.00    +0.151 HD
ENDROOT
BRANCH   1  17
ATOM     17  C   UNL     1      -2.325  -4.294   1.028  0.00  0.00    +0.213 C 
BRANCH  17  19
ATOM     18  N   UNL     1      -0.605  -2.548   1.364  0.00  0.00    -0.311 N 
ATOM     19  C   UNL     1      -0.918  -3.772   0.893  0.00  0.00    +0.231 C 
ATOM     20  O   UNL     1      -0.066  -4.453   0.362  0.00  0.00    -0.274 OA
ATOM     21  H   UNL     1      -1.286  -2.004   1.789  0.00  0.00    +0.149 HD
BRANCH  18  22
ATOM     22  C   UNL     1       0.763  -2.041   1.233  0.00  0.00    +0.070 C 
ATOM     23  C   UNL     1       1.608  -2.546   2.404  0.00  0.00    +0.028 C 
BRANCH  22  24
ATOM     24  C   UNL     1       0.742  -0.511   1.242  0.00  0.00    +0.022 C 
BRANCH  24  26
ATOM     25  C   UNL     1      -0.019   1.526   0.010  0.00  0.00    +0.004 C 
ATOM     26  C   UNL     1       0.002  -0.004   0.002  0.00  0.00    -0.002 C 
ENDBRANCH  24  26
ENDBRANCH  22  24
ENDBRANCH  18  22
ENDBRANCH  17  19
ENDBRANCH   1  17
TORSDOF 5
