REMARK  Name = ZINC13069291
REMARK  9 active torsions:
REMARK  status: ('A' for Active; 'I' for Inactive)
REMARK    1  A    between atoms: C_1  and  C_2
REMARK    2  A    between atoms: C_2  and  N_3
REMARK    3  A    between atoms: C_4  and  C_22
REMARK    4  A    between atoms: N_6  and  C_9
REMARK    5  A    between atoms: C_9  and  N_50
REMARK    6  A    between atoms: C_10  and  N_50
REMARK    7  A    between atoms: C_11  and  C_12
REMARK    8  A    between atoms: C_11  and  N_50
REMARK    9  A    between atoms: N_14  and  C_15
REMARK                            x       y       z     vdW  Elec       q    Type
REMARK                         _______ _______ _______ _____ _____    ______ ____
ROOT
ATOM      1  C   UNL     1       4.464  -1.859  -0.183  0.00  0.00    +0.072 C 
ENDROOT
BRANCH   1   5
ATOM      2  N   UNL     1       3.717   1.642   0.203  0.00  0.00    -0.303 N 
ATOM      3  C   UNL     1       2.447   1.121   0.048  0.00  0.00    +0.163 A 
ATOM      4  N   UNL     1       2.546  -0.170  -0.110  0.00  0.00    -0.152 NA
ATOM      5  N   UNL     1       3.904  -0.511  -0.053  0.00  0.00    -0.257 N 
ATOM      6  C   UNL     1       4.601   0.626   0.145  0.00  0.00    +0.177 A 
ATOM      7  S   UNL     1       6.302   0.758   0.288  0.00  0.00    -0.011 S 
BRANCH   3   8
ATOM      8  C   UNL     1       1.188   1.897   0.053  0.00  0.00    +0.019 A 
ATOM      9  C   UNL     1       1.147   3.162   0.640  0.00  0.00    +0.013 A 
ATOM     10  C   UNL     1      -0.031   3.879   0.647  0.00  0.00    +0.021 A 
ATOM     11  C   UNL     1      -1.171   3.349   0.065  0.00  0.00    +0.041 A 
ATOM     12  C   UNL     1      -1.136   2.094  -0.519  0.00  0.00    +0.021 A 
ATOM     13  C   UNL     1       0.035   1.366  -0.527  0.00  0.00    +0.013 A 
ATOM     14 CL   UNL     1      -2.649   4.259   0.072  0.00  0.00    -0.084 Cl
ENDBRANCH   3   8
BRANCH   2  16
ATOM     15  C   UNL     1       4.173   3.345   1.898  0.00  0.00    +0.027 C 
ATOM     16  C   UNL     1       4.045   3.056   0.401  0.00  0.00    +0.122 C 
ENDBRANCH   2  16
ENDBRANCH   1   5
BRANCH   1  18
ATOM     17  C   UNL     1       5.825  -1.261  -2.094  0.00  0.00    -0.093 C 
ATOM     18  N   UNL     1       4.730  -2.128  -1.612  0.00  0.00    +0.397 N 
ATOM     19  H   UNL     1       3.882  -1.927  -2.153  0.00  0.00    -0.079 HD
BRANCH  18  20
ATOM     20  C   UNL     1       5.092  -3.549  -1.799  0.00  0.00    +0.021 C 
BRANCH  20  21
ATOM     21  C   UNL     1       5.142  -3.848  -3.275  0.00  0.00    +0.201 C 
ATOM     22  O   UNL     1       4.918  -2.969  -4.080  0.00  0.00    -0.278 OA
ATOM     23  N   UNL     1       5.436  -5.093  -3.701  0.00  0.00    -0.287 N 
ATOM     24  H   UNL     1       5.551  -5.811  -3.059  0.00  0.00    +0.155 HD
BRANCH  23  25
ATOM     25  C   UNL     1       5.574  -5.349  -5.070  0.00  0.00    +0.033 A 
ATOM     26  C   UNL     1       4.774  -4.681  -5.988  0.00  0.00    +0.025 A 
ATOM     27  C   UNL     1       4.916  -4.932  -7.338  0.00  0.00    +0.022 A 
ATOM     28  C   UNL     1       5.848  -5.856  -7.777  0.00  0.00    +0.041 A 
ATOM     29  C   UNL     1       6.643  -6.527  -6.864  0.00  0.00    +0.022 A 
ATOM     30  C   UNL     1       6.509  -6.276  -5.513  0.00  0.00    +0.025 A 
ATOM     31 CL   UNL     1       6.020  -6.174  -9.475  0.00  0.00    -0.084 Cl
ENDBRANCH  23  25
ENDBRANCH  20  21
ENDBRANCH  18  20
ENDBRANCH   1  18
TORSDOF 7
