REMARK  Name = ZINC40947166
REMARK  15 active torsions:
REMARK  status: ('A' for Active; 'I' for Inactive)
REMARK    1  A    between atoms: C_1  and  C_2
REMARK    2  A    between atoms: C_2  and  C_3
REMARK    3  A    between atoms: C_3  and  C_4
REMARK    4  A    between atoms: C_4  and  C_5
REMARK    5  A    between atoms: C_5  and  C_6
REMARK    6  A    between atoms: C_6  and  O_7
REMARK    7  A    between atoms: O_7  and  C_8
REMARK    8  A    between atoms: C_9  and  O_28
REMARK    9  A    between atoms: C_11  and  C_15
REMARK   10  A    between atoms: N_16  and  N_17
REMARK   11  A    between atoms: C_18  and  C_20
REMARK   12  A    between atoms: C_20  and  S_21
REMARK   13  A    between atoms: S_21  and  C_22
REMARK   14  A    between atoms: O_28  and  C_29
REMARK   15  A    between atoms: C_29  and  C_30
REMARK                            x       y       z     vdW  Elec       q    Type
REMARK                         _______ _______ _______ _____ _____    ______ ____
ROOT
ATOM      1  C   UNL     1      -4.328  -5.968   0.011  0.00  0.00    +0.176 A 
ATOM      2  C   UNL     1      -4.415  -6.652  -1.199  0.00  0.00    +0.164 A 
ATOM      3  C   UNL     1      -4.578  -8.024  -1.207  0.00  0.00    +0.059 A 
ATOM      4  C   UNL     1      -4.654  -8.723   0.001  0.00  0.00    -0.001 A 
ATOM      5  C   UNL     1      -4.565  -8.031   1.211  0.00  0.00    +0.028 A 
ATOM      6  C   UNL     1      -4.397  -6.661   1.211  0.00  0.00    +0.064 A 
ATOM      7 BR   UNL     1      -4.270  -5.727   2.850  0.00  0.00    -0.046 Br
ENDROOT
BRANCH   4   8
ATOM      8  C   UNL     1      -4.828 -10.187  -0.003  0.00  0.00    +0.138 C 
ATOM      9  N   UNL     1      -4.898 -10.835   1.120  0.00  0.00    -0.188 NA
BRANCH   9  10
ATOM     10  N   UNL     1      -5.063 -12.226   1.117  0.00  0.00    -0.206 N 
ATOM     11  C   UNL     1      -5.137 -12.898   2.283  0.00  0.00    +0.242 C 
ATOM     12  O   UNL     1      -5.060 -12.299   3.335  0.00  0.00    -0.273 OA
ATOM     13  H   UNL     1      -5.125 -12.705   0.276  0.00  0.00    +0.177 HD
BRANCH  11  14
ATOM     14  C   UNL     1      -5.314 -14.395   2.280  0.00  0.00    +0.173 C 
BRANCH  14  15
ATOM     15  S   UNL     1      -5.377 -15.000   3.989  0.00  0.00    -0.088 S 
BRANCH  15  16
ATOM     16  C   UNL     1      -5.584 -16.741   3.817  0.00  0.00    +0.160 A 
ATOM     17  N   UNL     1      -5.671 -17.469   2.720  0.00  0.00    -0.133 NA
ATOM     18  N   UNL     1      -5.833 -18.831   2.814  0.00  0.00    -0.125 NA
ATOM     19  C   UNL     1      -5.901 -19.404   3.999  0.00  0.00    +0.180 A 
ATOM     20  S   UNL     1      -5.726 -17.994   5.082  0.00  0.00    -0.025 S 
ATOM     21  N   UNL     1      -6.061 -20.747   4.321  0.00  0.00    -0.336 N 
ATOM     22  H   UNL     1      -6.139 -21.409   3.616  0.00  0.00    +0.144 HD
ATOM     23  H   UNL     1      -6.094 -21.023   5.250  0.00  0.00    +0.144 HD
ENDBRANCH  15  16
ENDBRANCH  14  15
ENDBRANCH  11  14
ENDBRANCH   9  10
ENDBRANCH   4   8
BRANCH   1  24
ATOM     24  O   UNL     1      -4.168  -4.617   0.017  0.00  0.00    -0.487 OA
BRANCH  24  25
ATOM     25  C   UNL     1      -2.827  -4.123   0.007  0.00  0.00    +0.229 C 
BRANCH  25  26
ATOM     26  C   UNL     1      -2.848  -2.593   0.015  0.00  0.00    +0.041 C 
BRANCH  26  27
ATOM     27  C   UNL     1      -1.413  -2.063   0.004  0.00  0.00    +0.003 C 
BRANCH  27  28
ATOM     28  C   UNL     1      -1.433  -0.534   0.013  0.00  0.00    -0.000 C 
BRANCH  28  30
ATOM     29  C   UNL     1      -0.019   1.526   0.010  0.00  0.00    +0.004 C 
ATOM     30  C   UNL     1       0.002  -0.004   0.002  0.00  0.00    -0.003 C 
ENDBRANCH  28  30
ENDBRANCH  27  28
ENDBRANCH  26  27
ENDBRANCH  25  26
ENDBRANCH  24  25
ENDBRANCH   1  24
BRANCH   2  31
ATOM     31  O   UNL     1      -4.341  -5.969  -2.373  0.00  0.00    -0.489 OA
BRANCH  31  32
ATOM     32  C   UNL     1      -4.438  -6.734  -3.576  0.00  0.00    +0.226 C 
ATOM     33  C   UNL     1      -4.335  -5.801  -4.784  0.00  0.00    +0.048 C 
ENDBRANCH  31  32
ENDBRANCH   2  31
TORSDOF 13
