REMARK  Name = ZINC14159777
REMARK  6 active torsions:
REMARK  status: ('A' for Active; 'I' for Inactive)
REMARK    1  A    between atoms: C_1  and  C_2
REMARK    2  A    between atoms: C_4  and  C_30
REMARK    3  A    between atoms: N_10  and  C_11
REMARK    4  A    between atoms: C_11  and  N_13
REMARK    5  A    between atoms: N_13  and  C_14
REMARK    6  A    between atoms: N_22  and  C_25
REMARK                            x       y       z     vdW  Elec       q    Type
REMARK                         _______ _______ _______ _____ _____    ______ ____
ROOT
ATOM      1  C   UNL     1      -3.324   6.773  -0.464  0.00  0.00    +0.066 C 
ATOM      2  C   UNL     1      -2.800   7.599  -1.611  0.00  0.00    +0.044 A 
ATOM      3  C   UNL     1      -3.613   7.888  -2.695  0.00  0.00    +0.046 A 
ATOM      4  C   UNL     1      -3.092   8.650  -3.729  0.00  0.00    +0.044 A 
ATOM      5  N   UNL     1      -1.843   9.077  -3.649  0.00  0.00    -0.219 NA
ATOM      6  C   UNL     1      -1.092   8.783  -2.599  0.00  0.00    +0.222 A 
ATOM      7  N   UNL     1      -1.558   8.053  -1.597  0.00  0.00    -0.219 NA
ATOM      8  N   UNL     1       0.215   9.247  -2.548  0.00  0.00    -0.258 N 
ATOM      9  C   UNL     1       1.039   8.863  -1.524  0.00  0.00    +0.180 C 
ATOM     10  N   UNL     1       2.256   9.370  -1.430  0.00  0.00    -0.164 NA
ATOM     11  N   UNL     1       0.603   7.957  -0.601  0.00  0.00    -0.302 N 
ATOM     12  C   UNL     1       0.263   8.378   0.767  0.00  0.00    +0.126 C 
ATOM     13  C   UNL     1       1.008   7.472   1.754  0.00  0.00    +0.125 C 
ATOM     14  N   UNL     1       0.711   6.067   1.444  0.00  0.00    -0.314 N 
ATOM     15  C   UNL     1       1.198   5.702   0.107  0.00  0.00    +0.125 C 
ATOM     16  C   UNL     1       0.462   6.535  -0.947  0.00  0.00    +0.126 C 
ATOM     17  C   UNL     1      -3.939   8.990  -4.928  0.00  0.00    +0.066 C 
ATOM     18  H   UNL     1       0.545   9.842  -3.239  0.00  0.00    +0.157 HD
ENDROOT
BRANCH  14  19
ATOM     19  C   UNL     1       1.236   5.221   2.414  0.00  0.00    +0.099 A 
ATOM     20  C   UNL     1       1.058   3.846   2.299  0.00  0.00    +0.042 A 
ATOM     21  C   UNL     1       1.590   3.016   3.269  0.00  0.00    +0.005 A 
ATOM     22  C   UNL     1       2.275   3.591   4.331  0.00  0.00    +0.018 A 
ATOM     23  C   UNL     1       2.412   4.964   4.383  0.00  0.00    +0.084 A 
ATOM     24  N   UNL     1       1.908   5.810   3.445  0.00  0.00    -0.350 N 
ATOM     25  H   UNL     1       2.026   6.828   3.509  0.00  0.00    +0.166 HD
ENDBRANCH  14  19
BRANCH  10  26
ATOM     26  C   UNL     1       3.123   8.870  -0.538  0.00  0.00    +0.157 C 
ATOM     27  S   UNL     1       3.562   7.217  -0.605  0.00  0.00    -0.017 S 
BRANCH  26  28
ATOM     28  N   UNL     1       3.649   9.669   0.412  0.00  0.00    -0.322 N 
ATOM     29  H   UNL     1       3.400  10.606   0.450  0.00  0.00    +0.148 HD
BRANCH  28  30
ATOM     30  C   UNL     1       4.596   9.123   1.386  0.00  0.00    +0.072 C 
ATOM     31  C   UNL     1       3.835   8.548   2.599  0.00  0.00    +0.022 C 
ATOM     32  C   UNL     1       4.731   8.901   3.812  0.00  0.00    +0.002 C 
ATOM     33  C   UNL     1       5.259  10.311   3.449  0.00  0.00    +0.002 C 
ATOM     34  C   UNL     1       5.502  10.243   1.927  0.00  0.00    +0.022 C 
ENDBRANCH  28  30
ENDBRANCH  26  28
ENDBRANCH  10  26
TORSDOF 4
