REMARK  Name = ZINC49057031
REMARK  4 active torsions:
REMARK  status: ('A' for Active; 'I' for Inactive)
REMARK    1  A    between atoms: C_1  and  C_2
REMARK    2  A    between atoms: C_7  and  N_8
REMARK    3  A    between atoms: N_11  and  C_12
REMARK    4  A    between atoms: C_12  and  C_13
REMARK                            x       y       z     vdW  Elec       q    Type
REMARK                         _______ _______ _______ _____ _____    ______ ____
ROOT
ATOM      1  N   UNL     1       0.026  -0.014   2.417  0.00  0.00    -0.269 N 
ATOM      2  C   UNL     1      -0.056  -0.693   3.579  0.00  0.00    +0.304 C 
ATOM      3  O   UNL     1      -0.040  -1.909   3.574  0.00  0.00    -0.253 OA
ATOM      4  N   UNL     1      -0.155  -0.025   4.745  0.00  0.00    -0.297 N 
ATOM      5  H   UNL     1       0.079   0.955   2.425  0.00  0.00    +0.156 HD
ATOM      6  H   UNL     1      -0.168   0.945   4.748  0.00  0.00    +0.150 HD
ENDROOT
BRANCH   1  13
ATOM      7  C   UNL     1      -1.266   1.183   0.182  0.00  0.00    +0.046 C 
ATOM      8  C   UNL     1      -0.585  -0.158   0.085  0.00  0.00    -0.028 A 
ATOM      9  C   UNL     1      -0.570  -0.840  -1.116  0.00  0.00    +0.025 A 
ATOM     10  C   UNL     1       0.055  -2.071  -1.206  0.00  0.00    +0.041 A 
ATOM     11  C   UNL     1       0.667  -2.623  -0.094  0.00  0.00    +0.022 A 
ATOM     12  C   UNL     1       0.655  -1.944   1.109  0.00  0.00    +0.025 A 
ATOM     13  C   UNL     1       0.034  -0.706   1.200  0.00  0.00    +0.038 A 
ATOM     14 CL   UNL     1       0.071  -2.926  -2.717  0.00  0.00    -0.084 Cl
ENDBRANCH   1  13
BRANCH   4  15
ATOM     15  C   UNL     1      -0.244  -0.763   6.007  0.00  0.00    +0.137 C 
BRANCH  15  16
ATOM     16  C   UNL     1      -0.346   0.226   7.170  0.00  0.00    +0.135 C 
ATOM     17  C   UNL     1      -0.314  -0.540   8.495  0.00  0.00    +0.033 C 
ATOM     18  C   UNL     1      -0.478   0.451   9.652  0.00  0.00    +0.005 C 
ATOM     19  C   UNL     1      -1.784   1.229   9.463  0.00  0.00    +0.028 C 
ATOM     20  C   UNL     1      -1.759   1.926   8.100  0.00  0.00    +0.160 C 
ATOM     21  O   UNL     1      -1.573   0.952   7.071  0.00  0.00    -0.375 OA
ENDBRANCH  15  16
ENDBRANCH   4  15
TORSDOF 3
