REMARK  Name = ZINC14540039
REMARK  14 active torsions:
REMARK  status: ('A' for Active; 'I' for Inactive)
REMARK    1  A    between atoms: C_1  and  C_2
REMARK    2  A    between atoms: C_3  and  C_8
REMARK    3  A    between atoms: C_4  and  C_7
REMARK    4  A    between atoms: C_8  and  O_9
REMARK    5  A    between atoms: O_9  and  C_10
REMARK    6  A    between atoms: N_13  and  C_23
REMARK    7  A    between atoms: N_17  and  C_19
REMARK    8  A    between atoms: C_19  and  C_20
REMARK    9  A    between atoms: C_20  and  C_21
REMARK   10  A    between atoms: C_20  and  C_22
REMARK   11  A    between atoms: C_23  and  C_24
REMARK   12  A    between atoms: C_25  and  C_37
REMARK   13  A    between atoms: N_26  and  C_36
REMARK   14  A    between atoms: N_27  and  C_30
REMARK                            x       y       z     vdW  Elec       q    Type
REMARK                         _______ _______ _______ _____ _____    ______ ____
ROOT
ATOM      1  C   UNL     1       2.126  -0.021  -4.332  0.00  0.00    +0.150 C 
ATOM      2  C   UNL     1       3.165   1.078  -4.452  0.00  0.00    +0.118 C 
ATOM      3  N   UNL     1       3.232   1.688  -5.774  0.00  0.00    -0.287 NA
ATOM      4  C   UNL     1       3.739   0.761  -6.794  0.00  0.00    +0.181 C 
ATOM      5  C   UNL     1       2.581  -0.056  -7.326  0.00  0.00    +0.230 C 
ATOM      6  O   UNL     1       2.167   0.141  -8.449  0.00  0.00    -0.274 OA
ATOM      7  N   UNL     1       2.012  -0.994  -6.563  0.00  0.00    -0.298 N 
ATOM      8  C   UNL     1       2.509  -1.226  -5.196  0.00  0.00    +0.140 C 
ENDROOT
BRANCH   1   9
ATOM      9  O   UNL     1       2.030  -0.431  -2.967  0.00  0.00    -0.369 OA
BRANCH   9  10
ATOM     10  C   UNL     1       0.731  -0.890  -2.588  0.00  0.00    +0.200 C 
BRANCH  10  13
ATOM     11  C   UNL     1       0.101   1.004  -0.117  0.00  0.00    +0.069 C 
ATOM     12  C   UNL     1       0.466  -0.457  -0.042  0.00  0.00    +0.086 A 
ATOM     13  C   UNL     1       0.745  -1.295  -1.136  0.00  0.00    +0.042 A 
ATOM     14  C   UNL     1       1.028  -2.524  -0.661  0.00  0.00    +0.140 A 
ATOM     15  O   UNL     1       0.935  -2.482   0.677  0.00  0.00    -0.359 OA
ATOM     16  N   UNL     1       0.584  -1.161   1.048  0.00  0.00    -0.083 NA
ATOM     17  C   UNL     1       1.384  -3.732  -1.487  0.00  0.00    +0.089 C 
ENDBRANCH  10  13
ENDBRANCH   9  10
ENDBRANCH   1   9
BRANCH   7  18
ATOM     18  C   UNL     1       0.898  -1.790  -7.085  0.00  0.00    +0.111 C 
BRANCH  18  19
ATOM     19  C   UNL     1       1.445  -3.043  -7.771  0.00  0.00    +0.000 C 
ATOM     20  C   UNL     1       2.128  -3.936  -6.733  0.00  0.00    +0.009 C 
ATOM     21  C   UNL     1       0.293  -3.810  -8.423  0.00  0.00    +0.009 C 
ENDBRANCH  18  19
ENDBRANCH   7  18
BRANCH   3  22
ATOM     22  C   UNL     1       4.025   2.924  -5.744  0.00  0.00    +0.127 C 
BRANCH  22  23
ATOM     23  C   UNL     1       3.871   3.651  -7.055  0.00  0.00    +0.053 A 
ATOM     24  C   UNL     1       2.996   4.645  -7.310  0.00  0.00    +0.043 A 
ATOM     25  N   UNL     1       3.162   5.044  -8.606  0.00  0.00    -0.284 N 
ATOM     26  N   UNL     1       4.179   4.267  -9.176  0.00  0.00    -0.217 N 
ATOM     27  C   UNL     1       4.622   3.415  -8.229  0.00  0.00    +0.276 A 
ATOM     28  O   UNL     1       5.508   2.589  -8.363  0.00  0.00    -0.265 OA
ATOM     29  C   UNL     1       2.407   6.102  -9.283  0.00  0.00    +0.171 C 
ATOM     30  C   UNL     1       2.004   5.219  -6.332  0.00  0.00    +0.065 C 
BRANCH  26  31
ATOM     31  C   UNL     1       4.652   4.361 -10.489  0.00  0.00    +0.067 A 
ATOM     32  C   UNL     1       4.809   3.215 -11.256  0.00  0.00    +0.028 A 
ATOM     33  C   UNL     1       5.277   3.312 -12.552  0.00  0.00    +0.002 A 
ATOM     34  C   UNL     1       5.590   4.549 -13.085  0.00  0.00    +0.000 A 
ATOM     35  C   UNL     1       5.436   5.692 -12.323  0.00  0.00    +0.002 A 
ATOM     36  C   UNL     1       4.962   5.603 -11.029  0.00  0.00    +0.028 A 
ENDBRANCH  26  31
ENDBRANCH  22  23
ENDBRANCH   3  22
TORSDOF 8
