REMARK  Name = ZINC16572384
REMARK  9 active torsions:
REMARK  status: ('A' for Active; 'I' for Inactive)
REMARK    1  A    between atoms: C_1  and  C_2
REMARK    2  A    between atoms: C_2  and  C_3
REMARK    3  A    between atoms: C_3  and  C_5
REMARK    4  A    between atoms: C_3  and  C_6
REMARK    5  A    between atoms: C_6  and  C_8
REMARK    6  A    between atoms: C_6  and  N_23
REMARK    7  A    between atoms: C_14  and  C_16
REMARK    8  A    between atoms: N_26  and  C_27
REMARK    9  A    between atoms: C_30  and  C_33
REMARK                            x       y       z     vdW  Elec       q    Type
REMARK                         _______ _______ _______ _____ _____    ______ ____
ROOT
ATOM      1  C   UNL     1       3.532   6.270   0.315  0.00  0.00    +0.163 C 
ENDROOT
BRANCH   1   2
ATOM      2  C   UNL     1       3.315   7.676  -0.180  0.00  0.00    +0.239 C 
ATOM      3  O   UNL     1       2.222   8.017  -0.580  0.00  0.00    -0.273 OA
ATOM      4  N   UNL     1       4.336   8.556  -0.179  0.00  0.00    -0.262 N 
ATOM      5  C   UNL     1       4.136   9.853  -0.636  0.00  0.00    +0.188 A 
ATOM      6  N   UNL     1       3.041  10.428  -1.116  0.00  0.00    -0.125 NA
ATOM      7  N   UNL     1       3.029  11.633  -1.488  0.00  0.00    -0.140 NA
ATOM      8  C   UNL     1       4.115  12.395  -1.433  0.00  0.00    +0.134 A 
ATOM      9  S   UNL     1       5.285  11.222  -0.753  0.00  0.00    -0.030 S 
ATOM     10  H   UNL     1       5.210   8.284   0.140  0.00  0.00    +0.157 HD
BRANCH   8  11
ATOM     11  C   UNL     1       4.305  13.808  -1.822  0.00  0.00    +0.009 A 
ATOM     12  C   UNL     1       5.553  14.415  -1.669  0.00  0.00    +0.012 A 
ATOM     13  C   UNL     1       5.725  15.733  -2.038  0.00  0.00    +0.016 A 
ATOM     14  C   UNL     1       4.661  16.457  -2.549  0.00  0.00    +0.018 A 
ATOM     15  C   UNL     1       3.420  15.861  -2.699  0.00  0.00    +0.016 A 
ATOM     16  C   UNL     1       3.236  14.543  -2.338  0.00  0.00    +0.012 A 
ATOM     17 BR   UNL     1       4.904  18.265  -3.045  0.00  0.00    -0.050 Br
ENDBRANCH   8  11
ENDBRANCH   1   2
BRANCH   1  18
ATOM     18  N   UNL     1       2.279   5.517   0.212  0.00  0.00    -0.288 N 
ATOM     19  C   UNL     1       2.307   4.174   0.104  0.00  0.00    +0.304 C 
ATOM     20  O   UNL     1       3.372   3.587   0.091  0.00  0.00    -0.252 OA
ATOM     21  N   UNL     1       1.155   3.482   0.009  0.00  0.00    -0.269 N 
ATOM     22  H   UNL     1       1.430   5.985   0.222  0.00  0.00    +0.151 HD
ATOM     23  H   UNL     1       0.309   3.953  -0.048  0.00  0.00    +0.156 HD
BRANCH  21  24
ATOM     24  C   UNL     1       1.178   2.086  -0.007  0.00  0.00    +0.035 A 
ATOM     25  C   UNL     1       2.224   1.417  -0.634  0.00  0.00    +0.024 A 
ATOM     26  C   UNL     1       2.251   0.041  -0.652  0.00  0.00    +0.020 A 
ATOM     27  C   UNL     1       1.225  -0.684  -0.038  0.00  0.00    +0.052 A 
ATOM     28  C   UNL     1       0.176  -0.009   0.591  0.00  0.00    +0.020 A 
ATOM     29  C   UNL     1       0.156   1.368   0.605  0.00  0.00    +0.024 A 
BRANCH  27  30
ATOM     30  C   UNL     1       1.250  -2.116  -0.055  0.00  0.00    +0.099 C 
ATOM     31  N   UNL     1       1.269  -3.252  -0.068  0.00  0.00    -0.191 NA
ENDBRANCH  27  30
ENDBRANCH  21  24
ENDBRANCH   1  18
BRANCH   1  32
ATOM     32  C   UNL     1       3.986   6.308   1.776  0.00  0.00    +0.015 C 
ATOM     33  C   UNL     1       4.326   4.890   2.241  0.00  0.00    +0.010 C 
BRANCH  32  35
ATOM     34  C   UNL     1       3.357   7.028   4.084  0.00  0.00    +0.004 C 
ATOM     35  C   UNL     1       2.861   6.874   2.645  0.00  0.00    +0.002 C 
ENDBRANCH  32  35
ENDBRANCH   1  32
TORSDOF 7
