REMARK  Name = ZINC01330434
REMARK  7 active torsions:
REMARK  status: ('A' for Active; 'I' for Inactive)
REMARK    1  A    between atoms: C_1  and  C_2
REMARK    2  A    between atoms: C_2  and  O_3
REMARK    3  A    between atoms: O_3  and  C_4
REMARK    4  A    between atoms: C_11  and  C_16
REMARK    5  A    between atoms: C_17  and  N_26
REMARK    6  A    between atoms: C_19  and  C_25
REMARK    7  A    between atoms: N_26  and  C_27
REMARK                            x       y       z     vdW  Elec       q    Type
REMARK                         _______ _______ _______ _____ _____    ______ ____
ROOT
ATOM      1  C   UNL     1      -3.082   0.708  -0.398  0.00  0.00    +0.117 A 
ATOM      2  C   UNL     1      -3.898   1.525   0.359  0.00  0.00    +0.132 A 
ATOM      3  N   UNL     1      -4.455   0.739   1.329  0.00  0.00    -0.285 N 
ATOM      4  C   UNL     1      -5.331   1.011   2.345  0.00  0.00    +0.024 A 
ATOM      5  C   UNL     1      -5.734   0.035   3.184  0.00  0.00    +0.021 A 
ATOM      6  C   UNL     1      -5.258  -1.279   3.025  0.00  0.00    +0.005 A 
ATOM      7  C   UNL     1      -4.388  -1.566   2.020  0.00  0.00    +0.047 A 
ATOM      8  C   UNL     1      -3.973  -0.538   1.148  0.00  0.00    +0.140 A 
ATOM      9  N   UNL     1      -3.158  -0.537   0.107  0.00  0.00    -0.226 NA
ATOM     10  C   UNL     1      -5.850   2.414   2.529  0.00  0.00    +0.064 C 
ENDROOT
BRANCH   1  18
ATOM     11  C   UNL     1       1.931   1.440  -3.880  0.00  0.00    +0.121 A 
ATOM     12  C   UNL     1       1.297   2.084  -4.941  0.00  0.00    +0.047 A 
ATOM     13  C   UNL     1      -0.057   2.331  -4.901  0.00  0.00    +0.030 A 
ATOM     14  C   UNL     1      -0.807   1.937  -3.796  0.00  0.00    +0.049 A 
ATOM     15  C   UNL     1      -0.172   1.287  -2.722  0.00  0.00    +0.003 A 
ATOM     16  C   UNL     1       1.207   1.042  -2.776  0.00  0.00    +0.055 A 
ATOM     17  C   UNL     1      -0.927   0.882  -1.592  0.00  0.00    +0.025 A 
ATOM     18  C   UNL     1      -2.272   1.126  -1.564  0.00  0.00    +0.069 A 
ATOM     19  C   UNL     1      -2.904   1.812  -2.696  0.00  0.00    +0.259 A 
ATOM     20  O   UNL     1      -4.101   2.038  -2.678  0.00  0.00    -0.267 OA
ATOM     21  N   UNL     1      -2.167   2.186  -3.758  0.00  0.00    -0.322 N 
ATOM     22  H   UNL     1      -2.607   2.648  -4.528  0.00  0.00    +0.169 HD
BRANCH  11  23
ATOM     23  O   UNL     1       3.268   1.204  -3.934  0.00  0.00    -0.492 OA
BRANCH  23  25
ATOM     24  C   UNL     1       5.442   1.291  -4.987  0.00  0.00    +0.048 C 
ATOM     25  C   UNL     1       3.958   1.642  -5.107  0.00  0.00    +0.225 C 
ENDBRANCH  23  25
ENDBRANCH  11  23
ENDBRANCH   1  18
BRANCH   2  26
ATOM     26  N   UNL     1      -4.113   2.890   0.170  0.00  0.00    -0.326 N 
ATOM     27  H   UNL     1      -4.432   3.080  -0.768  0.00  0.00    +0.148 HD
BRANCH  26  28
ATOM     28  C   UNL     1      -2.901   3.661   0.480  0.00  0.00    +0.072 C 
ATOM     29  C   UNL     1      -2.728   3.752   1.998  0.00  0.00    +0.022 C 
ATOM     30  C   UNL     1      -1.467   4.555   2.321  0.00  0.00    +0.002 C 
ATOM     31  C   UNL     1      -1.595   5.963   1.737  0.00  0.00    +0.000 C 
ATOM     32  C   UNL     1      -1.768   5.873   0.219  0.00  0.00    +0.002 C 
ATOM     33  C   UNL     1      -3.030   5.070  -0.103  0.00  0.00    +0.022 C 
ENDBRANCH  26  28
ENDBRANCH   2  26
TORSDOF 5
