REMARK  Name = ZINC12314710
REMARK  6 active torsions:
REMARK  status: ('A' for Active; 'I' for Inactive)
REMARK    1  A    between atoms: C_1  and  C_2
REMARK    2  A    between atoms: C_6  and  C_28
REMARK    3  A    between atoms: C_7  and  C_12
REMARK    4  A    between atoms: C_10  and  C_11
REMARK    5  A    between atoms: C_17  and  C_20
REMARK    6  A    between atoms: C_17  and  N_60
REMARK                            x       y       z     vdW  Elec       q    Type
REMARK                         _______ _______ _______ _____ _____    ______ ____
ROOT
ATOM      1  C   UNL     1       2.350   4.593  -0.326  0.00  0.00    +0.282 C 
ATOM      2  O   UNL     1       2.520   3.399  -0.485  0.00  0.00    -0.267 OA
ATOM      3  N   UNL     1       1.114   5.071  -0.081  0.00  0.00    -0.295 N 
ATOM      4  C   UNL     1      -0.031   4.158   0.043  0.00  0.00    +0.107 C 
ATOM      5  C   UNL     1      -0.739   4.441   1.376  0.00  0.00    +0.016 C 
ATOM      6  C   UNL     1      -1.109   5.925   1.446  0.00  0.00    +0.015 C 
ATOM      7  C   UNL     1       0.165   6.772   1.389  0.00  0.00    +0.016 C 
ATOM      8  C   UNL     1       0.884   6.515   0.061  0.00  0.00    +0.107 C 
ENDROOT
BRANCH   1  15
ATOM      9  C   UNL     1       6.993  10.246  -1.502  0.00  0.00    +0.044 C 
ATOM     10  C   UNL     1       6.471   8.907  -1.048  0.00  0.00    -0.044 A 
ATOM     11  C   UNL     1       7.319   8.027  -0.389  0.00  0.00    +0.004 A 
ATOM     12  C   UNL     1       6.864   6.809   0.030  0.00  0.00    +0.012 A 
ATOM     13  C   UNL     1       5.536   6.448  -0.207  0.00  0.00    +0.024 A 
ATOM     14  C   UNL     1       4.733   5.262   0.091  0.00  0.00    +0.008 A 
ATOM     15  C   UNL     1       3.493   5.514  -0.401  0.00  0.00    +0.194 A 
ATOM     16  O   UNL     1       3.467   6.738  -0.968  0.00  0.00    -0.450 OA
ATOM     17  C   UNL     1       4.671   7.335  -0.875  0.00  0.00    +0.139 A 
ATOM     18  C   UNL     1       5.158   8.569  -1.292  0.00  0.00    -0.005 A 
ATOM     19  C   UNL     1       4.250   9.535  -2.010  0.00  0.00    +0.048 C 
ATOM     20  C   UNL     1       5.190   4.014   0.801  0.00  0.00    +0.048 C 
ENDBRANCH   1  15
BRANCH   6  26
ATOM     21  C   UNL     1      -0.992   5.830   3.863  0.00  0.00    -0.077 C 
ATOM     22  C   UNL     1      -1.701   6.256   5.150  0.00  0.00    -0.019 C 
ATOM     23  C   UNL     1      -3.062   5.560   5.232  0.00  0.00    -0.004 C 
ATOM     24  C   UNL     1      -3.885   5.916   3.990  0.00  0.00    -0.019 C 
ATOM     25  C   UNL     1      -3.112   5.500   2.737  0.00  0.00    -0.077 C 
ATOM     26  N   UNL     1      -1.823   6.223   2.705  0.00  0.00    +0.389 N 
ATOM     27  H   UNL     1      -2.006   7.232   2.753  0.00  0.00    -0.080 HD
ENDBRANCH   6  26
BRANCH   6  28
ATOM     28  C   UNL     1      -1.999   6.276   0.283  0.00  0.00    +0.200 C 
ATOM     29  O   UNL     1      -2.075   5.529  -0.670  0.00  0.00    -0.278 OA
ATOM     30  N   UNL     1      -2.711   7.421   0.300  0.00  0.00    -0.330 N 
ATOM     31  H   UNL     1      -2.609   8.043   1.037  0.00  0.00    +0.145 HD
ATOM     32  H   UNL     1      -3.324   7.622  -0.424  0.00  0.00    +0.145 HD
ENDBRANCH   6  28
TORSDOF 3
