REMARK  Name = ZINC65192374
REMARK  7 active torsions:
REMARK  status: ('A' for Active; 'I' for Inactive)
REMARK    1  A    between atoms: C_4  and  C_18
REMARK    2  A    between atoms: C_5  and  C_7
REMARK    3  A    between atoms: C_7  and  S_8
REMARK    4  A    between atoms: S_8  and  C_9
REMARK    5  A    between atoms: N_20  and  N_21
REMARK    6  A    between atoms: N_24  and  C_25
REMARK    7  A    between atoms: C_25  and  C_26
REMARK                            x       y       z     vdW  Elec       q    Type
REMARK                         _______ _______ _______ _____ _____    ______ ____
ROOT
ATOM      1  C   UNL     1       0.064   1.470  -0.247  0.00  0.00    +0.000 A 
ATOM      2  C   UNL     1       1.275   2.091   0.004  0.00  0.00    +0.001 A 
ATOM      3  C   UNL     1       2.403   1.336   0.247  0.00  0.00    +0.013 A 
ATOM      4  C   UNL     1       2.322  -0.058   0.239  0.00  0.00    +0.042 A 
ATOM      5  C   UNL     1       1.098  -0.678  -0.015  0.00  0.00    -0.025 A 
ATOM      6  C   UNL     1      -0.023   0.089  -0.257  0.00  0.00    +0.005 A 
ENDROOT
BRANCH   4   7
ATOM      7  C   UNL     1       3.528  -0.874   0.498  0.00  0.00    +0.260 C 
ATOM      8  O   UNL     1       3.434  -2.081   0.600  0.00  0.00    -0.269 OA
ATOM      9  N   UNL     1       4.730  -0.278   0.622  0.00  0.00    -0.229 N 
ATOM     10  H   UNL     1       4.805   0.686   0.541  0.00  0.00    +0.173 HD
BRANCH   9  11
ATOM     11  N   UNL     1       5.873  -1.051   0.868  0.00  0.00    -0.218 N 
ATOM     12  C   UNL     1       7.075  -0.456   0.992  0.00  0.00    +0.316 C 
ATOM     13  O   UNL     1       8.067  -1.126   1.205  0.00  0.00    -0.251 OA
ATOM     14  N   UNL     1       7.179   0.884   0.879  0.00  0.00    -0.298 N 
ATOM     15  H   UNL     1       5.798  -2.015   0.949  0.00  0.00    +0.174 HD
ATOM     16  H   UNL     1       6.388   1.419   0.709  0.00  0.00    +0.150 HD
BRANCH  14  17
ATOM     17  C   UNL     1       8.486   1.531   1.014  0.00  0.00    +0.109 C 
BRANCH  17  18
ATOM     18  C   UNL     1       8.326   3.043   0.845  0.00  0.00    +0.006 C 
ATOM     19  C   UNL     1       9.026   3.699  -0.347  0.00  0.00    +0.005 C 
ATOM     20  C   UNL     1       9.565   3.914   1.068  0.00  0.00    +0.005 C 
ENDBRANCH  17  18
ENDBRANCH  14  17
ENDBRANCH   9  11
ENDBRANCH   4   7
BRANCH   5  21
ATOM     21  C   UNL     1       1.001  -2.182  -0.026  0.00  0.00    +0.114 C 
BRANCH  21  22
ATOM     22  S   UNL     1       0.807  -2.787   1.673  0.00  0.00    -0.062 S 
BRANCH  22  23
ATOM     23  C   UNL     1       0.709  -4.537   1.493  0.00  0.00    +0.258 A 
ATOM     24  N   UNL     1       0.776  -5.180   0.354  0.00  0.00    -0.203 NA
ATOM     25  C   UNL     1       0.666  -6.514   0.598  0.00  0.00    +0.110 A 
ATOM     26  C   UNL     1       0.670  -7.647  -0.217  0.00  0.00    +0.031 A 
ATOM     27  C   UNL     1       0.535  -8.896   0.347  0.00  0.00    +0.002 A 
ATOM     28  C   UNL     1       0.394  -9.034   1.719  0.00  0.00    +0.004 A 
ATOM     29  C   UNL     1       0.388  -7.922   2.538  0.00  0.00    +0.048 A 
ATOM     30  C   UNL     1       0.524  -6.658   1.986  0.00  0.00    +0.156 A 
ATOM     31  O   UNL     1       0.560  -5.410   2.506  0.00  0.00    -0.431 OA
ENDBRANCH  22  23
ENDBRANCH  21  22
ENDBRANCH   5  21
TORSDOF 7
