REMARK  Name = ZINC36664642
REMARK  5 active torsions:
REMARK  status: ('A' for Active; 'I' for Inactive)
REMARK    1  A    between atoms: C_1  and  C_2
REMARK    2  A    between atoms: C_4  and  C_7
REMARK    3  A    between atoms: C_7  and  N_13
REMARK    4  A    between atoms: C_14  and  C_16
REMARK    5  A    between atoms: C_23  and  C_26
REMARK                            x       y       z     vdW  Elec       q    Type
REMARK                         _______ _______ _______ _____ _____    ______ ____
ROOT
ATOM      1  N   UNL     1      -2.507  -3.159   1.129  0.00  0.00    -0.298 N 
ATOM      2  C   UNL     1      -3.336  -2.103   1.238  0.00  0.00    +0.251 C 
ATOM      3  O   UNL     1      -3.321  -1.227   0.393  0.00  0.00    -0.270 OA
ATOM      4  H   UNL     1      -2.519  -3.857   1.802  0.00  0.00    +0.150 HD
ENDROOT
BRANCH   2   5
ATOM      5  C   UNL     1      -4.256  -2.008   2.376  0.00  0.00    +0.074 A 
ATOM      6  C   UNL     1      -5.181  -1.022   2.669  0.00  0.00    +0.024 A 
ATOM      7  C   UNL     1      -5.928  -1.190   3.826  0.00  0.00    -0.036 A 
ATOM      8  C   UNL     1      -5.677  -2.311   4.560  0.00  0.00    -0.006 A 
ATOM      9  S   UNL     1      -4.481  -3.136   3.737  0.00  0.00    -0.088 S 
ATOM     10  C   UNL     1      -6.347  -2.714   5.841  0.00  0.00    +0.043 C 
ATOM     11  C   UNL     1      -7.092  -1.495   6.403  0.00  0.00    +0.009 C 
ATOM     12  C   UNL     1      -7.915  -0.859   5.280  0.00  0.00    -0.009 C 
ATOM     13  C   UNL     1      -6.985  -0.183   4.273  0.00  0.00    +0.039 C 
ATOM     14  C   UNL     1      -8.865   0.184   5.873  0.00  0.00    +0.008 C 
ENDBRANCH   2   5
BRANCH   1  15
ATOM     15  C   UNL     1      -1.588  -3.254  -0.008  0.00  0.00    +0.098 C 
ATOM     16  C   UNL     1      -2.389  -3.276  -1.311  0.00  0.00    +0.034 C 
ATOM     17  C   UNL     1      -3.328  -4.483  -1.313  0.00  0.00    +0.003 C 
ATOM     18  C   UNL     1      -2.506  -5.769  -1.198  0.00  0.00    +0.000 C 
ATOM     19  C   UNL     1      -1.705  -5.747   0.105  0.00  0.00    +0.003 C 
ATOM     20  C   UNL     1      -0.766  -4.540   0.107  0.00  0.00    +0.034 C 
BRANCH  15  24
ATOM     21  C   UNL     1      -0.018   1.503   0.010  0.00  0.00    +0.112 C 
ATOM     22  C   UNL     1       0.002  -0.004   0.002  0.00  0.00    +0.224 A 
ATOM     23  N   UNL     1      -1.044  -0.783   0.003  0.00  0.00    -0.194 NA
ATOM     24  C   UNL     1      -0.663  -2.065  -0.006  0.00  0.00    +0.195 A 
ATOM     25  N   UNL     1       0.638  -2.118  -0.012  0.00  0.00    -0.059 NA
ATOM     26  O   UNL     1       1.097  -0.774  -0.013  0.00  0.00    -0.338 OA
ENDBRANCH  15  24
ENDBRANCH   1  15
TORSDOF 3
