REMARK  Name = ZINC63385193
REMARK  6 active torsions:
REMARK  status: ('A' for Active; 'I' for Inactive)
REMARK    1  A    between atoms: C_10  and  C_15
REMARK    2  A    between atoms: C_12  and  O_14
REMARK    3  A    between atoms: C_15  and  C_16
REMARK    4  A    between atoms: N_18  and  C_19
REMARK    5  A    between atoms: C_19  and  C_20
REMARK    6  A    between atoms: C_20  and  C_21
REMARK                            x       y       z     vdW  Elec       q    Type
REMARK                         _______ _______ _______ _____ _____    ______ ____
ROOT
ATOM      1  C   UNL     1       1.630  -2.144   3.511  0.00  0.00    +0.215 C 
ATOM      2  O   UNL     1       1.513  -3.347   3.401  0.00  0.00    -0.276 OA
ATOM      3  N   UNL     1       0.999  -1.495   4.510  0.00  0.00    -0.315 N 
ATOM      4  H   UNL     1       1.092  -0.533   4.597  0.00  0.00    +0.149 HD
ENDROOT
BRANCH   1   5
ATOM      5  C   UNL     1       2.479  -1.377   2.531  0.00  0.00    +0.127 C 
BRANCH   5  15
ATOM      6  C   UNL     1      -0.017   1.371   0.010  0.00  0.00    +0.001 A 
ATOM      7  C   UNL     1       1.172   2.085   0.002  0.00  0.00    +0.002 A 
ATOM      8  C   UNL     1       2.377   1.423  -0.020  0.00  0.00    +0.028 A 
ATOM      9  C   UNL     1       2.421   0.020  -0.033  0.00  0.00    +0.079 A 
ATOM     10  C   UNL     1       1.221  -0.701  -0.013  0.00  0.00    +0.062 A 
ATOM     11  C   UNL     1       0.002  -0.004   0.002  0.00  0.00    +0.015 A 
ATOM     12  C   UNL     1       1.168  -2.167   0.003  0.00  0.00    +0.247 C 
ATOM     13  O   UNL     1       0.312  -2.715  -0.665  0.00  0.00    -0.270 OA
ATOM     14  N   UNL     1       2.002  -2.936   0.706  0.00  0.00    -0.299 N 
ATOM     15  C   UNL     1       3.076  -2.344   1.506  0.00  0.00    +0.167 C 
ATOM     16  C   UNL     1       4.008  -1.601   0.591  0.00  0.00    +0.209 C 
ATOM     17  N   UNL     1       3.646  -0.565  -0.071  0.00  0.00    -0.215 NA
ATOM     18  H   UNL     1       1.896  -3.900   0.687  0.00  0.00    +0.150 HD
BRANCH  16  19
ATOM     19  O   UNL     1       5.274  -2.042   0.461  0.00  0.00    -0.494 OA
ATOM     20  H   UNL     1       5.814  -1.515  -0.144  0.00  0.00    +0.293 HD
ENDBRANCH  16  19
ENDBRANCH   5  15
ENDBRANCH   1   5
BRANCH   3  21
ATOM     21  C   UNL     1       0.174  -2.241   5.462  0.00  0.00    +0.108 C 
BRANCH  21  22
ATOM     22  C   UNL     1      -0.423  -1.274   6.487  0.00  0.00    +0.052 C 
BRANCH  22  23
ATOM     23  C   UNL     1      -1.272  -2.042   7.467  0.00  0.00    -0.040 C 
ATOM     24  C   UNL     1      -0.893  -2.512   8.677  0.00  0.00    +0.000 A 
ATOM     25  C   UNL     1       0.374  -2.452   9.414  0.00  0.00    +0.030 A 
ATOM     26  C   UNL     1       0.451  -3.030  10.636  0.00  0.00    +0.042 A 
ATOM     27  C   UNL     1      -0.648  -3.683  11.213  0.00  0.00    +0.022 A 
ATOM     28  C   UNL     1      -1.845  -3.778  10.596  0.00  0.00    +0.027 A 
ATOM     29  C   UNL     1      -2.038  -3.206   9.308  0.00  0.00    +0.043 A 
ATOM     30  N   UNL     1      -3.084  -3.167   8.519  0.00  0.00    -0.380 N 
ATOM     31  C   UNL     1      -2.723  -2.436   7.299  0.00  0.00    +0.144 C 
ATOM     32 CL   UNL     1       1.949  -2.962  11.511  0.00  0.00    -0.084 Cl
ATOM     33  H   UNL     1      -3.953  -3.553   8.711  0.00  0.00    +0.160 HD
ENDBRANCH  22  23
ENDBRANCH  21  22
ENDBRANCH   3  21
TORSDOF 6
