REMARK  Name = ZINC09833961
REMARK  4 active torsions:
REMARK  status: ('A' for Active; 'I' for Inactive)
REMARK    1  A    between atoms: C_5  and  N_7
REMARK    2  A    between atoms: C_11  and  S_13
REMARK    3  A    between atoms: S_13  and  C_14
REMARK    4  A    between atoms: C_14  and  C_15
REMARK                            x       y       z     vdW  Elec       q    Type
REMARK                         _______ _______ _______ _____ _____    ______ ____
ROOT
ATOM      1  S   UNL     1      -3.111  -5.882   0.480  0.00  0.00    -0.089 S 
ENDROOT
BRANCH   1   6
ATOM      2  N   UNL     1       1.237  -2.079  -0.021  0.00  0.00    -0.290 N 
ATOM      3  C   UNL     1       0.050  -2.794   0.091  0.00  0.00    +0.187 A 
ATOM      4  N   UNL     1      -1.192  -2.352   0.119  0.00  0.00    -0.125 NA
ATOM      5  N   UNL     1      -2.234  -3.243   0.237  0.00  0.00    -0.133 NA
ATOM      6  C   UNL     1      -1.985  -4.536   0.322  0.00  0.00    +0.160 A 
ATOM      7  S   UNL     1      -0.201  -4.557   0.229  0.00  0.00    -0.024 S 
ATOM      8  H   UNL     1       2.088  -2.538   0.056  0.00  0.00    +0.154 HD
BRANCH   2  13
ATOM      9  C   UNL     1      -0.026   1.290  -0.777  0.00  0.00    +0.002 A 
ATOM     10  C   UNL     1       1.137   2.033  -0.690  0.00  0.00    +0.003 A 
ATOM     11  C   UNL     1       2.335   1.414  -0.382  0.00  0.00    +0.040 A 
ATOM     12  C   UNL     1       2.373   0.050  -0.159  0.00  0.00    +0.144 A 
ATOM     13  C   UNL     1       1.204  -0.699  -0.245  0.00  0.00    +0.068 A 
ATOM     14  C   UNL     1       0.004  -0.073  -0.556  0.00  0.00    +0.026 A 
ATOM     15  F   UNL     1       3.543  -0.555   0.143  0.00  0.00    -0.204 F 
ENDBRANCH   2  13
ENDBRANCH   1   6
BRANCH   1  16
ATOM     16  C   UNL     1      -4.742  -5.089   0.500  0.00  0.00    +0.150 C 
BRANCH  16  17
ATOM     17  C   UNL     1      -5.811  -6.143   0.632  0.00  0.00    +0.121 A 
ATOM     18  N   UNL     1      -7.116  -5.768   0.663  0.00  0.00    -0.310 N 
ATOM     19  H   UNL     1      -7.342  -4.827   0.598  0.00  0.00    +0.170 HD
ATOM     20  C   UNL     1      -8.103  -6.677   0.780  0.00  0.00    +0.260 A 
ATOM     21  O   UNL     1      -9.270  -6.326   0.806  0.00  0.00    -0.267 OA
ATOM     22  C   UNL     1      -7.756  -8.064   0.874  0.00  0.00    +0.075 A 
ATOM     23  C   UNL     1      -8.658  -9.218   1.007  0.00  0.00    -0.023 A 
ATOM     24  C   UNL     1      -8.085 -10.431   1.078  0.00  0.00    -0.004 A 
ATOM     25  S   UNL     1      -6.337 -10.121   0.971  0.00  0.00    -0.073 S 
ATOM     26  C   UNL     1      -6.386  -8.354   0.834  0.00  0.00    +0.116 A 
ATOM     27  N   UNL     1      -5.466  -7.400   0.711  0.00  0.00    -0.226 NA
ATOM     28  C   UNL     1      -9.101 -11.533   1.217  0.00  0.00    +0.043 C 
ATOM     29  C   UNL     1     -10.395 -10.813   1.658  0.00  0.00    +0.010 C 
ATOM     30  C   UNL     1     -10.176  -9.398   1.086  0.00  0.00    +0.037 C 
ENDBRANCH  16  17
ENDBRANCH   1  16
TORSDOF 4
