REMARK  Name = ZINC22345241
REMARK  9 active torsions:
REMARK  status: ('A' for Active; 'I' for Inactive)
REMARK    1  A    between atoms: C_1  and  C_2
REMARK    2  A    between atoms: C_2  and  C_3
REMARK    3  A    between atoms: C_3  and  N_4
REMARK    4  A    between atoms: N_4  and  C_5
REMARK    5  A    between atoms: C_5  and  C_6
REMARK    6  A    between atoms: C_6  and  C_7
REMARK    7  A    between atoms: C_8  and  C_10
REMARK    8  A    between atoms: C_12  and  C_15
REMARK    9  A    between atoms: C_18  and  C_21
REMARK                            x       y       z     vdW  Elec       q    Type
REMARK                         _______ _______ _______ _____ _____    ______ ____
ROOT
ATOM      1  C   UNL     1       1.180   1.777   0.510  0.00  0.00    +0.168 A 
ATOM      2  C   UNL     1       2.065   0.690   0.732  0.00  0.00    +0.086 A 
ATOM      3  C   UNL     1       1.231  -0.375   0.933  0.00  0.00    +0.168 A 
ATOM      4  O   UNL     1      -0.022   0.101   0.828  0.00  0.00    -0.354 OA
ATOM      5  N   UNL     1      -0.033   1.287   0.595  0.00  0.00    -0.073 NA
ENDROOT
BRANCH   3   6
ATOM      6  C   UNL     1       1.628  -1.772   1.211  0.00  0.00    +0.020 A 
ATOM      7  C   UNL     1       2.979  -2.115   1.284  0.00  0.00    +0.012 A 
ATOM      8  C   UNL     1       3.342  -3.419   1.549  0.00  0.00    +0.004 A 
ATOM      9  C   UNL     1       2.372  -4.388   1.732  0.00  0.00    -0.044 A 
ATOM     10  C   UNL     1       1.031  -4.055   1.655  0.00  0.00    +0.004 A 
ATOM     11  C   UNL     1       0.654  -2.754   1.396  0.00  0.00    +0.012 A 
BRANCH   9  12
ATOM     12  C   UNL     1       2.776  -5.811   2.015  0.00  0.00    +0.019 C 
ATOM     13  C   UNL     1       3.598  -5.861   3.305  0.00  0.00    +0.008 C 
ATOM     14  C   UNL     1       4.009  -7.306   3.593  0.00  0.00    +0.001 C 
ATOM     15  C   UNL     1       4.851  -7.838   2.431  0.00  0.00    +0.000 C 
ATOM     16  C   UNL     1       4.029  -7.788   1.141  0.00  0.00    +0.001 C 
ATOM     17  C   UNL     1       3.618  -6.343   0.853  0.00  0.00    +0.008 C 
ENDBRANCH   9  12
ENDBRANCH   3   6
BRANCH   1  19
ATOM     18  N   UNL     1       0.601   4.085  -0.083  0.00  0.00    -0.296 N 
ATOM     19  C   UNL     1       1.553   3.186   0.236  0.00  0.00    +0.268 C 
ATOM     20  O   UNL     1       2.717   3.530   0.300  0.00  0.00    -0.268 OA
BRANCH  18  21
ATOM     21  C   UNL     1       0.979   5.455  -0.442  0.00  0.00    +0.108 C 
BRANCH  21  23
ATOM     22  C   UNL     1       1.600   6.972  -2.327  0.00  0.00    +0.005 C 
ATOM     23  C   UNL     1       1.206   5.542  -1.952  0.00  0.00    +0.016 C 
ENDBRANCH  21  23
ENDBRANCH  18  21
BRANCH  18  24
ATOM     24  C   UNL     1      -0.810   3.693  -0.071  0.00  0.00    +0.108 C 
BRANCH  24  25
ATOM     25  C   UNL     1      -1.355   3.791   1.355  0.00  0.00    +0.016 C 
ATOM     26  C   UNL     1      -2.829   3.381   1.367  0.00  0.00    +0.005 C 
ENDBRANCH  24  25
ENDBRANCH  18  24
ENDBRANCH   1  19
TORSDOF 7
