REMARK  Name = ZINC04000148
REMARK  7 active torsions:
REMARK  status: ('A' for Active; 'I' for Inactive)
REMARK    1  A    between atoms: C_1  and  C_2
REMARK    2  A    between atoms: C_8  and  C_25
REMARK    3  A    between atoms: C_8  and  C_26
REMARK    4  A    between atoms: C_9  and  C_15
REMARK    5  A    between atoms: C_16  and  C_17
REMARK    6  A    between atoms: C_20  and  S_23
REMARK    7  A    between atoms: S_23  and  C_24
REMARK                            x       y       z     vdW  Elec       q    Type
REMARK                         _______ _______ _______ _____ _____    ______ ____
ROOT
ATOM      1  C   UNL     1       0.815   9.678   5.622  0.00  0.00    +0.044 C 
ATOM      2  C   UNL     1       0.688   9.431   4.140  0.00  0.00    -0.050 A 
ATOM      3  C   UNL     1       1.818   9.404   3.343  0.00  0.00    +0.005 A 
ATOM      4  C   UNL     1       1.707   9.183   1.987  0.00  0.00    +0.024 A 
ATOM      5  C   UNL     1       0.453   8.984   1.409  0.00  0.00    +0.036 A 
ATOM      6  C   UNL     1      -0.674   9.004   2.220  0.00  0.00    -0.016 A 
ATOM      7  C   UNL     1      -0.558   9.231   3.576  0.00  0.00    +0.009 A 
ATOM      8  C   UNL     1      -1.884   8.738   1.346  0.00  0.00    +0.034 C 
ATOM      9  C   UNL     1      -1.257   8.160   0.057  0.00  0.00    +0.131 C 
ATOM     10  N   UNL     1       0.108   8.753   0.072  0.00  0.00    -0.296 N 
ATOM     11  C   UNL     1      -0.080  10.044  -0.632  0.00  0.00    +0.203 C 
ATOM     12  C   UNL     1      -1.276   9.827  -1.532  0.00  0.00    +0.232 C 
ATOM     13  O   UNL     1      -1.589  10.523  -2.474  0.00  0.00    -0.274 OA
ATOM     14  N   UNL     1      -1.931   8.718  -1.119  0.00  0.00    -0.289 N 
ATOM     15  C   UNL     1      -2.812   7.714   2.003  0.00  0.00    +0.020 C 
ATOM     16  C   UNL     1      -2.633  10.038   1.048  0.00  0.00    +0.020 C 
ATOM     17  H   UNL     1      -2.733   8.355  -1.528  0.00  0.00    +0.151 HD
ENDROOT
BRANCH   9  18
ATOM     18  C   UNL     1      -1.237   6.654   0.049  0.00  0.00    +0.020 C 
ATOM     19  C   UNL     1      -0.079   6.006   0.035  0.00  0.00    +0.007 C 
BRANCH  19  20
ATOM     20  C   UNL     1      -0.059   4.529   0.026  0.00  0.00    -0.025 A 
ATOM     21  C   UNL     1       1.158   3.846   0.011  0.00  0.00    +0.009 A 
ATOM     22  C   UNL     1       1.174   2.468   0.004  0.00  0.00    +0.015 A 
ATOM     23  C   UNL     1      -0.022   1.758   0.012  0.00  0.00    +0.008 A 
ATOM     24  C   UNL     1      -1.237   2.436   0.021  0.00  0.00    +0.015 A 
ATOM     25  C   UNL     1      -1.258   3.813   0.035  0.00  0.00    +0.009 A 
BRANCH  23  26
ATOM     26  S   UNL     1       0.002  -0.004   0.002  0.00  0.00    -0.129 S 
ATOM     27  C   UNL     1      -1.752  -0.467   0.016  0.00  0.00    +0.090 C 
ENDBRANCH  23  26
ENDBRANCH  19  20
ENDBRANCH   9  18
TORSDOF 3
