REMARK  Name = ZINC19621457
REMARK  11 active torsions:
REMARK  status: ('A' for Active; 'I' for Inactive)
REMARK    1  A    between atoms: C_1  and  O_2
REMARK    2  A    between atoms: O_2  and  C_3
REMARK    3  A    between atoms: C_3  and  C_4
REMARK    4  A    between atoms: C_4  and  C_5
REMARK    5  A    between atoms: C_5  and  N_6
REMARK    6  A    between atoms: N_6  and  C_7
REMARK    7  A    between atoms: C_8  and  N_23
REMARK    8  A    between atoms: N_9  and  C_16
REMARK    9  A    between atoms: C_16  and  C_17
REMARK   10  A    between atoms: C_24  and  C_26
REMARK   11  A    between atoms: C_29  and  C_31
REMARK                            x       y       z     vdW  Elec       q    Type
REMARK                         _______ _______ _______ _____ _____    ______ ____
ROOT
ATOM      1  N   UNL     1       1.243   3.529   0.007  0.00  0.00    -0.258 N 
ATOM      2  C   UNL     1       2.377   4.254  -0.069  0.00  0.00    +0.286 C 
ATOM      3  O   UNL     1       3.444   3.697  -0.256  0.00  0.00    -0.266 OA
ENDROOT
BRANCH   1   4
ATOM      4  C   UNL     1       1.305   2.120  -0.006  0.00  0.00    +0.140 A 
ATOM      5  C   UNL     1       0.763   1.402  -1.053  0.00  0.00    +0.128 A 
ATOM      6  N   UNL     1       0.839   0.029  -1.036  0.00  0.00    -0.276 N 
ATOM      7  C   UNL     1       1.434  -0.608  -0.012  0.00  0.00    +0.331 A 
ATOM      8  O   UNL     1       1.491  -1.823  -0.016  0.00  0.00    -0.246 OA
ATOM      9  N   UNL     1       1.967   0.074   1.017  0.00  0.00    -0.273 N 
ATOM     10  H   UNL     1       2.449  -0.467   1.845  0.00  0.00    +0.173 HD
ATOM     11  C   UNL     1       1.920   1.421   1.050  0.00  0.00    +0.277 A 
ATOM     12  O   UNL     1       2.402   2.029   1.990  0.00  0.00    -0.266 OA
BRANCH   5  13
ATOM     13  N   UNL     1       0.154   2.053  -2.100  0.00  0.00    -0.343 N 
ATOM     14  H   UNL     1      -0.276   1.475  -2.931  0.00  0.00    +0.144 HD
ATOM     15  H   UNL     1       0.098   3.151  -2.106  0.00  0.00    +0.144 HD
ENDBRANCH   5  13
BRANCH   6  16
ATOM     16  C   UNL     1       0.268  -0.745  -2.142  0.00  0.00    +0.163 C 
BRANCH  16  17
ATOM     17  C   UNL     1      -1.171  -1.071  -1.836  0.00  0.00    -0.028 A 
ATOM     18  C   UNL     1      -1.489  -2.238  -1.167  0.00  0.00    +0.005 A 
ATOM     19  C   UNL     1      -2.809  -2.534  -0.882  0.00  0.00    +0.000 A 
ATOM     20  C   UNL     1      -3.812  -1.668  -1.275  0.00  0.00    +0.000 A 
ATOM     21  C   UNL     1      -3.495  -0.504  -1.949  0.00  0.00    +0.000 A 
ATOM     22  C   UNL     1      -2.175  -0.205  -2.229  0.00  0.00    +0.005 A 
ENDBRANCH  16  17
ENDBRANCH   6  16
ENDBRANCH   1   4
BRANCH   2  23
ATOM     23  C   UNL     1       2.325   5.711   0.073  0.00  0.00    +0.190 A 
ATOM     24  C   UNL     1       3.386   6.577  -0.082  0.00  0.00    +0.055 A 
ATOM     25  C   UNL     1       2.890   7.865   0.139  0.00  0.00    +0.050 A 
ATOM     26  C   UNL     1       1.561   7.740   0.427  0.00  0.00    +0.136 A 
ATOM     27  O   UNL     1       1.232   6.438   0.384  0.00  0.00    -0.450 OA
BRANCH  26  28
ATOM     28  C   UNL     1       0.639   8.852   0.735  0.00  0.00    +0.017 A 
ATOM     29  C   UNL     1       1.108  10.167   0.753  0.00  0.00    +0.014 A 
ATOM     30  C   UNL     1       0.241  11.201   1.038  0.00  0.00    +0.039 A 
ATOM     31  C   UNL     1      -1.091  10.936   1.313  0.00  0.00    +0.123 A 
ATOM     32  C   UNL     1      -1.561   9.632   1.301  0.00  0.00    +0.039 A 
ATOM     33  C   UNL     1      -0.705   8.591   1.014  0.00  0.00    +0.014 A 
ATOM     34  F   UNL     1      -1.935  11.953   1.596  0.00  0.00    -0.205 F 
ENDBRANCH  26  28
ENDBRANCH   2  23
BRANCH   1  35
ATOM     35  C   UNL     1      -0.053   4.204   0.102  0.00  0.00    +0.116 C 
BRANCH  35  36
ATOM     36  C   UNL     1      -0.454   4.332   1.573  0.00  0.00    +0.047 C 
BRANCH  36  37
ATOM     37  C   UNL     1      -1.808   5.038   1.673  0.00  0.00    +0.161 C 
BRANCH  37  39
ATOM     38  C   UNL     1      -3.440   5.806   3.252  0.00  0.00    +0.193 C 
ATOM     39  O   UNL     1      -2.183   5.157   3.047  0.00  0.00    -0.383 OA
ENDBRANCH  37  39
ENDBRANCH  36  37
ENDBRANCH  35  36
ENDBRANCH   1  35
TORSDOF 10
