REMARK  Name = ZINC26576406
REMARK  10 active torsions:
REMARK  status: ('A' for Active; 'I' for Inactive)
REMARK    1  A    between atoms: C_4  and  C_7
REMARK    2  A    between atoms: C_7  and  C_8
REMARK    3  A    between atoms: C_7  and  N_14
REMARK    4  A    between atoms: N_17  and  C_20
REMARK    5  A    between atoms: C_20  and  C_21
REMARK    6  A    between atoms: C_21  and  C_23
REMARK    7  A    between atoms: C_21  and  O_40
REMARK    8  A    between atoms: C_23  and  N_24
REMARK    9  A    between atoms: C_30  and  C_34
REMARK   10  A    between atoms: C_32  and  N_33
REMARK                            x       y       z     vdW  Elec       q    Type
REMARK                         _______ _______ _______ _____ _____    ______ ____
ROOT
ATOM      1  C   UNL     1      -4.409  -1.732   3.752  0.00  0.00    +0.148 C 
ENDROOT
BRANCH   1   2
ATOM      2  O   UNL     1      -4.901  -2.164   2.482  0.00  0.00    -0.389 OA
ATOM      3  H   UNL     1      -5.847  -1.760   2.092  0.00  0.00    +0.210 HD
ENDBRANCH   1   2
BRANCH   1   4
ATOM      4  C   UNL     1      -3.087  -2.442   4.054  0.00  0.00    +0.117 C 
BRANCH   4   8
ATOM      5  N   UNL     1      -1.123  -0.749   0.719  0.00  0.00    +0.389 N 
ATOM      6  C   UNL     1      -0.924  -0.115   2.030  0.00  0.00    -0.062 C 
ATOM      7  C   UNL     1      -2.053  -0.537   2.974  0.00  0.00    +0.066 C 
ATOM      8  N   UNL     1      -2.064  -2.001   3.096  0.00  0.00    -0.303 NA
ATOM      9  C   UNL     1      -2.264  -2.635   1.785  0.00  0.00    +0.066 C 
ATOM     10  C   UNL     1      -1.135  -2.213   0.841  0.00  0.00    -0.062 C 
ATOM     11  H   UNL     1      -2.104  -0.432   0.334  0.00  0.00    -0.080 HD
BRANCH   5  12
ATOM     12  C   UNL     1      -0.101  -0.309  -0.240  0.00  0.00    -0.007 C 
BRANCH  12  16
ATOM     13  C   UNL     1      -0.152   3.954  -0.519  0.00  0.00    +0.000 A 
ATOM     14  C   UNL     1       1.053   3.276  -0.517  0.00  0.00    +0.000 A 
ATOM     15  C   UNL     1       1.069   1.896  -0.427  0.00  0.00    +0.002 A 
ATOM     16  C   UNL     1      -0.119   1.195  -0.338  0.00  0.00    -0.057 A 
ATOM     17  C   UNL     1      -1.324   1.873  -0.346  0.00  0.00    +0.002 A 
ATOM     18  C   UNL     1      -1.340   3.252  -0.431  0.00  0.00    +0.000 A 
ENDBRANCH  12  16
BRANCH  12  19
ATOM     19  C   UNL     1      -0.391  -0.904  -1.593  0.00  0.00    -0.057 A 
ATOM     20  C   UNL     1      -1.694  -0.989  -2.046  0.00  0.00    +0.002 A 
ATOM     21  C   UNL     1      -1.960  -1.531  -3.289  0.00  0.00    +0.000 A 
ATOM     22  C   UNL     1      -0.923  -1.997  -4.076  0.00  0.00    +0.000 A 
ATOM     23  C   UNL     1       0.379  -1.917  -3.621  0.00  0.00    +0.000 A 
ATOM     24  C   UNL     1       0.646  -1.371  -2.380  0.00  0.00    +0.002 A 
ENDBRANCH  12  19
ENDBRANCH   5  12
ENDBRANCH   4   8
ENDBRANCH   1   4
BRANCH   1  25
ATOM     25  C   UNL     1      -5.431  -2.073   4.838  0.00  0.00    +0.157 C 
BRANCH  25  26
ATOM     26  N   UNL     1      -6.656  -1.301   4.615  0.00  0.00    -0.312 N 
ATOM     27  C   UNL     1      -6.978  -0.112   5.199  0.00  0.00    +0.201 A 
ATOM     28  N   UNL     1      -8.139   0.293   4.772  0.00  0.00    -0.231 NA
ATOM     29  C   UNL     1      -8.639  -0.610   3.896  0.00  0.00    +0.147 A 
ATOM     30  C   UNL     1      -7.693  -1.646   3.784  0.00  0.00    +0.166 A 
ATOM     31  N   UNL     1      -7.946  -2.668   2.978  0.00  0.00    -0.208 NA
ATOM     32  C   UNL     1      -9.073  -2.717   2.285  0.00  0.00    +0.164 A 
ATOM     33  N   UNL     1      -9.994  -1.763   2.360  0.00  0.00    -0.211 NA
ATOM     34  C   UNL     1      -9.822  -0.704   3.142  0.00  0.00    +0.148 A 
BRANCH  32  35
ATOM     35  C   UNL     1      -9.316  -3.878   1.394  0.00  0.00    +0.022 A 
ATOM     36  C   UNL     1      -8.374  -4.904   1.278  0.00  0.00    +0.031 A 
ATOM     37  C   UNL     1      -8.642  -5.968   0.441  0.00  0.00    +0.111 A 
ATOM     38  N   UNL     1      -9.764  -6.020  -0.250  0.00  0.00    -0.263 NA
ATOM     39  C   UNL     1     -10.677  -5.071  -0.173  0.00  0.00    +0.111 A 
ATOM     40  C   UNL     1     -10.492  -3.974   0.643  0.00  0.00    +0.031 A 
ENDBRANCH  32  35
BRANCH  34  41
ATOM     41  N   UNL     1     -10.787   0.285   3.214  0.00  0.00    -0.341 N 
ATOM     42  H   UNL     1     -11.708   0.200   2.619  0.00  0.00    +0.144 HD
ATOM     43  H   UNL     1     -10.633   1.157   3.866  0.00  0.00    +0.144 HD
ENDBRANCH  34  41
ENDBRANCH  25  26
ENDBRANCH   1  25
TORSDOF 10
