REMARK  Name = ZINC08970376
REMARK  4 active torsions:
REMARK  status: ('A' for Active; 'I' for Inactive)
REMARK    1  A    between atoms: C_1  and  S_2
REMARK    2  A    between atoms: S_2  and  C_5
REMARK    3  A    between atoms: N_13  and  C_14
REMARK    4  A    between atoms: C_14  and  C_16
REMARK                            x       y       z     vdW  Elec       q    Type
REMARK                         _______ _______ _______ _____ _____    ______ ____
ROOT
ATOM      1  C   UNL     1       0.844  -0.458  -1.477  0.00  0.00    +0.089 A 
ATOM      2  C   UNL     1       0.140  -0.624  -2.658  0.00  0.00    +0.029 A 
ATOM      3  C   UNL     1       0.781  -0.955  -3.829  0.00  0.00    +0.028 A 
ATOM      4  C   UNL     1       2.171  -1.133  -3.856  0.00  0.00    +0.055 A 
ATOM      5  C   UNL     1       2.860  -0.958  -2.647  0.00  0.00    +0.040 A 
ATOM      6  C   UNL     1       2.218  -0.623  -1.478  0.00  0.00    +0.044 A 
ATOM      7  S   UNL     1       4.548  -1.264  -3.097  0.00  0.00    -0.052 S 
ATOM      8  C   UNL     1       4.327  -1.588  -4.731  0.00  0.00    +0.164 A 
ATOM      9  N   UNL     1       5.253  -1.896  -5.633  0.00  0.00    -0.152 NA
ATOM     10  N   UNL     1       2.988  -1.463  -4.921  0.00  0.00    -0.335 N 
ATOM     11  H   UNL     1       2.606  -1.604  -5.802  0.00  0.00    +0.168 HD
ENDROOT
BRANCH   1  13
ATOM     12  C   UNL     1      -0.020   1.780   0.034  0.00  0.00    +0.200 C 
ATOM     13  S   UNL     1       0.000  -0.034   0.010  0.00  0.00    -0.006 S 
ATOM     14  O   UNL     1       0.831  -0.528   1.052  0.00  0.00    -0.170 OA
ATOM     15  O   UNL     1      -1.318  -0.536  -0.165  0.00  0.00    -0.170 OA
ENDBRANCH   1  13
BRANCH   9  16
ATOM     16  C   UNL     1       4.890  -2.233  -6.875  0.00  0.00    +0.271 C 
ATOM     17  O   UNL     1       3.720  -2.166  -7.207  0.00  0.00    -0.268 OA
BRANCH  16  18
ATOM     18  C   UNL     1       5.911  -2.689  -7.846  0.00  0.00    +0.057 A 
ATOM     19  C   UNL     1       7.251  -2.772  -7.467  0.00  0.00    +0.014 A 
ATOM     20  C   UNL     1       8.197  -3.197  -8.376  0.00  0.00    +0.001 A 
ATOM     21  C   UNL     1       7.820  -3.541  -9.663  0.00  0.00    +0.001 A 
ATOM     22  C   UNL     1       6.494  -3.461 -10.046  0.00  0.00    +0.021 A 
ATOM     23  C   UNL     1       5.536  -3.042  -9.143  0.00  0.00    +0.053 A 
ATOM     24 CL   UNL     1       3.870  -2.948  -9.623  0.00  0.00    -0.083 Cl
ENDBRANCH  16  18
ENDBRANCH   9  16
TORSDOF 3
