REMARK  Name = ZINC36205679
REMARK  16 active torsions:
REMARK  status: ('A' for Active; 'I' for Inactive)
REMARK    1  A    between atoms: C_1  and  C_2
REMARK    2  A    between atoms: C_7  and  C_8
REMARK    3  A    between atoms: C_17  and  C_19
REMARK    4  A    between atoms: C_19  and  N_20
REMARK    5  A    between atoms: N_20  and  C_21
REMARK    6  A    between atoms: N_20  and  C_29
REMARK    7  A    between atoms: C_21  and  C_22
REMARK    8  A    between atoms: C_22  and  N_23
REMARK    9  A    between atoms: C_29  and  C_30
REMARK   10  A    between atoms: C_30  and  C_32
REMARK   11  A    between atoms: C_30  and  O_38
REMARK   12  A    between atoms: C_32  and  O_33
REMARK   13  A    between atoms: O_33  and  C_34
REMARK   14  A    between atoms: C_34  and  C_35
REMARK   15  A    between atoms: C_34  and  C_36
REMARK   16  A    between atoms: C_34  and  C_37
REMARK                            x       y       z     vdW  Elec       q    Type
REMARK                         _______ _______ _______ _____ _____    ______ ____
ROOT
ATOM      1  N   UNL     1      -3.569   3.805   5.832  0.00  0.00    +0.387 N 
ATOM      2  H   UNL     1      -2.717   4.334   5.718  0.00  0.00    -0.081 HD
ENDROOT
BRANCH   1   3
ATOM      3  C   UNL     1      -4.024   3.320   4.522  0.00  0.00    -0.003 C 
BRANCH   3  13
ATOM      4  C   UNL     1      -4.268   7.823   1.036  0.00  0.00    +0.004 A 
ATOM      5  C   UNL     1      -3.791   8.953   1.614  0.00  0.00    +0.056 A 
ATOM      6  S   UNL     1      -3.308   8.411   3.242  0.00  0.00    -0.076 S 
ATOM      7  C   UNL     1      -3.752   6.699   3.111  0.00  0.00    +0.116 A 
ATOM      8  C   UNL     1      -4.270   6.587   1.810  0.00  0.00    +0.080 A 
ATOM      9  C   UNL     1      -4.718   5.282   1.431  0.00  0.00    +0.260 A 
ATOM     10  O   UNL     1      -5.180   5.085   0.320  0.00  0.00    -0.267 OA
ATOM     11  N   UNL     1      -4.623   4.276   2.319  0.00  0.00    -0.312 N 
ATOM     12  H   UNL     1      -4.926   3.389   2.068  0.00  0.00    +0.170 HD
ATOM     13  C   UNL     1      -4.111   4.477   3.561  0.00  0.00    +0.094 A 
ATOM     14  N   UNL     1      -3.685   5.654   3.933  0.00  0.00    -0.229 NA
BRANCH   4  21
ATOM     15  C   UNL     1      -7.069   7.299   0.538  0.00  0.00    +0.044 C 
ATOM     16  C   UNL     1      -6.131   7.594  -0.604  0.00  0.00    -0.043 A 
ATOM     17  C   UNL     1      -6.606   7.621  -1.900  0.00  0.00    +0.004 A 
ATOM     18  C   UNL     1      -5.746   7.891  -2.949  0.00  0.00    +0.000 A 
ATOM     19  C   UNL     1      -4.406   8.136  -2.707  0.00  0.00    +0.001 A 
ATOM     20  C   UNL     1      -3.919   8.111  -1.416  0.00  0.00    +0.009 A 
ATOM     21  C   UNL     1      -4.783   7.845  -0.354  0.00  0.00    -0.014 A 
ENDBRANCH   4  21
ENDBRANCH   3  13
ENDBRANCH   1   3
BRANCH   1  22
ATOM     22  C   UNL     1      -3.320   2.661   6.719  0.00  0.00    -0.063 C 
BRANCH  22  23
ATOM     23  C   UNL     1      -2.154   1.835   6.171  0.00  0.00    +0.066 C 
BRANCH  23  24
ATOM     24  N   UNL     1      -1.825   0.762   7.119  0.00  0.00    -0.300 NA
ATOM     25  C   UNL     1      -1.296   1.313   8.375  0.00  0.00    +0.112 C 
ATOM     26  C   UNL     1      -1.024   0.167   9.353  0.00  0.00    +0.175 C 
ATOM     27  O   UNL     1      -0.124  -0.766   8.748  0.00  0.00    -0.377 OA
ATOM     28  C   UNL     1      -0.608  -1.322   7.523  0.00  0.00    +0.175 C 
ATOM     29  C   UNL     1      -0.876  -0.191   6.526  0.00  0.00    +0.112 C 
ENDBRANCH  23  24
ENDBRANCH  22  23
ENDBRANCH   1  22
BRANCH   1  30
ATOM     30  C   UNL     1      -4.603   4.666   6.422  0.00  0.00    -0.044 C 
BRANCH  30  31
ATOM     31  C   UNL     1      -4.080   5.271   7.726  0.00  0.00    +0.124 C 
BRANCH  31  32
ATOM     32  O   UNL     1      -2.983   6.140   7.442  0.00  0.00    -0.391 OA
ATOM     33  H   UNL     1      -3.205   6.876   6.855  0.00  0.00    +0.210 HD
ENDBRANCH  31  32
BRANCH  31  34
ATOM     34  C   UNL     1      -5.198   6.066   8.404  0.00  0.00    +0.189 C 
BRANCH  34  35
ATOM     35  O   UNL     1      -4.747   6.533   9.676  0.00  0.00    -0.372 OA
BRANCH  35  36
ATOM     36  C   UNL     1      -5.721   7.292  10.396  0.00  0.00    +0.061 C 
ATOM     37  C   UNL     1      -6.958   6.427  10.646  0.00  0.00    +0.041 C 
ATOM     38  C   UNL     1      -5.132   7.738  11.736  0.00  0.00    +0.041 C 
ATOM     39  C   UNL     1      -6.115   8.522   9.577  0.00  0.00    +0.041 C 
ENDBRANCH  35  36
ENDBRANCH  34  35
ENDBRANCH  31  34
ENDBRANCH  30  31
ENDBRANCH   1  30
TORSDOF 12
