REMARK  Name = ZINC22799678
REMARK  8 active torsions:
REMARK  status: ('A' for Active; 'I' for Inactive)
REMARK    1  A    between atoms: C_5  and  C_6
REMARK    2  A    between atoms: C_8  and  C_11
REMARK    3  A    between atoms: C_11  and  N_12
REMARK    4  A    between atoms: N_15  and  C_18
REMARK    5  A    between atoms: C_18  and  C_19
REMARK    6  A    between atoms: C_19  and  C_20
REMARK    7  A    between atoms: N_22  and  C_23
REMARK    8  A    between atoms: C_24  and  C_33
REMARK                            x       y       z     vdW  Elec       q    Type
REMARK                         _______ _______ _______ _____ _____    ______ ____
ROOT
ATOM      1  N   UNL     1       1.226   7.503   1.417  0.00  0.00    +0.387 N 
ATOM      2  C   UNL     1       0.117   6.829   2.105  0.00  0.00    -0.063 C 
ATOM      3  C   UNL     1       0.078   7.279   3.567  0.00  0.00    +0.066 C 
ATOM      4  N   UNL     1      -0.081   8.739   3.623  0.00  0.00    -0.305 NA
ATOM      5  C   UNL     1       1.029   9.413   2.935  0.00  0.00    +0.066 C 
ATOM      6  C   UNL     1       1.068   8.963   1.473  0.00  0.00    -0.063 C 
ATOM      7  H   UNL     1       2.159   7.242   1.939  0.00  0.00    -0.081 HD
ENDROOT
BRANCH   1   8
ATOM      8  C   UNL     1       1.344   7.039   0.028  0.00  0.00    +0.022 C 
BRANCH   8  11
ATOM      9  C   UNL     1       1.743   3.467   0.004  0.00  0.00    +0.202 A 
ATOM     10  N   UNL     1       0.941   4.556   0.017  0.00  0.00    -0.193 NA
ATOM     11  C   UNL     1       1.748   5.588   0.015  0.00  0.00    +0.211 A 
ATOM     12  O   UNL     1       2.996   5.111   0.001  0.00  0.00    -0.340 OA
ATOM     13  N   UNL     1       2.979   3.898  -0.001  0.00  0.00    -0.056 NA
BRANCH   9  18
ATOM     14  C   UNL     1       2.237   1.015  -0.014  0.00  0.00    +0.019 A 
ATOM     15  C   UNL     1       1.768  -0.253  -0.016  0.00  0.00    +0.046 A 
ATOM     16  S   UNL     1       0.002  -0.004   0.002  0.00  0.00    -0.104 S 
ATOM     17  C   UNL     1      -0.021   1.729   0.011  0.00  0.00    +0.057 A 
ATOM     18  C   UNL     1       1.305   2.051   0.001  0.00  0.00    +0.029 A 
ENDBRANCH   9  18
ENDBRANCH   8  11
ENDBRANCH   1   8
BRANCH   4  19
ATOM     19  C   UNL     1      -0.198   9.203   5.012  0.00  0.00    +0.093 C 
BRANCH  19  20
ATOM     20  C   UNL     1      -1.501   8.675   5.618  0.00  0.00    +0.111 C 
BRANCH  20  21
ATOM     21  C   UNL     1      -1.621   9.151   7.043  0.00  0.00    +0.219 C 
ATOM     22  O   UNL     1      -0.751   9.843   7.526  0.00  0.00    -0.275 OA
ATOM     23  N   UNL     1      -2.696   8.806   7.779  0.00  0.00    -0.279 N 
ATOM     24  H   UNL     1      -3.485   8.178   7.340  0.00  0.00    +0.155 HD
BRANCH  23  25
ATOM     25  C   UNL     1      -2.807   9.244   9.092  0.00  0.00    +0.090 A 
ATOM     26  C   UNL     1      -3.827   9.003   9.996  0.00  0.00    +0.084 A 
ATOM     27  C   UNL     1      -3.702   9.576  11.329  0.00  0.00    -0.018 A 
ATOM     28  C   UNL     1      -2.586  10.310  11.530  0.00  0.00    -0.004 A 
ATOM     29  S   UNL     1      -1.707  10.232   9.993  0.00  0.00    -0.077 S 
ATOM     30  C   UNL     1      -2.184  11.042  12.772  0.00  0.00    +0.043 C 
ATOM     31  C   UNL     1      -2.327  10.107  13.980  0.00  0.00    +0.005 C 
ATOM     32  C   UNL     1      -3.742  10.246  14.533  0.00  0.00    +0.001 C 
ATOM     33  C   UNL     1      -4.724  10.529  13.398  0.00  0.00    +0.005 C 
ATOM     34  C   UNL     1      -4.751   9.364  12.414  0.00  0.00    +0.037 C 
BRANCH  26  35
ATOM     35  C   UNL     1      -4.965   8.212   9.635  0.00  0.00    +0.102 C 
ATOM     36  N   UNL     1      -5.868   7.585   9.348  0.00  0.00    -0.191 NA
ENDBRANCH  26  35
ENDBRANCH  23  25
ENDBRANCH  20  21
ENDBRANCH  19  20
ENDBRANCH   4  19
TORSDOF 8
