REMARK  Name = ZINC36591691
REMARK  18 active torsions:
REMARK  status: ('A' for Active; 'I' for Inactive)
REMARK    1  A    between atoms: C_1  and  C_2
REMARK    2  A    between atoms: C_2  and  C_3
REMARK    3  A    between atoms: C_2  and  C_4
REMARK    4  A    between atoms: C_2  and  C_5
REMARK    5  A    between atoms: C_5  and  C_6
REMARK    6  A    between atoms: C_6  and  C_7
REMARK    7  A    between atoms: C_6  and  C_8
REMARK    8  A    between atoms: C_6  and  N_9
REMARK    9  A    between atoms: C_10  and  C_12
REMARK   10  A    between atoms: C_12  and  C_14
REMARK   11  A    between atoms: C_12  and  N_21
REMARK   12  A    between atoms: C_19  and  O_20
REMARK   13  A    between atoms: N_21  and  C_33
REMARK   14  A    between atoms: C_22  and  C_24
REMARK   15  A    between atoms: C_28  and  N_30
REMARK   16  A    between atoms: C_33  and  C_34
REMARK   17  A    between atoms: C_33  and  C_35
REMARK   18  A    between atoms: C_33  and  C_36
REMARK                            x       y       z     vdW  Elec       q    Type
REMARK                         _______ _______ _______ _____ _____    ______ ____
ROOT
ATOM      1  C   UNL     1       5.165  -0.797  -2.698  0.00  0.00    +0.196 C 
ENDROOT
BRANCH   1   2
ATOM      2  C   UNL     1       5.292  -2.266  -3.010  0.00  0.00    +0.023 A 
ATOM      3  C   UNL     1       6.046  -3.084  -2.191  0.00  0.00    +0.009 A 
ATOM      4  C   UNL     1       6.163  -4.431  -2.477  0.00  0.00    +0.001 A 
ATOM      5  C   UNL     1       5.525  -4.964  -3.583  0.00  0.00    +0.004 A 
ATOM      6  C   UNL     1       4.770  -4.150  -4.404  0.00  0.00    +0.046 A 
ATOM      7  C   UNL     1       4.646  -2.799  -4.116  0.00  0.00    +0.122 A 
BRANCH   7   8
ATOM      8  O   UNL     1       3.899  -1.997  -4.920  0.00  0.00    -0.506 OA
ATOM      9  H   UNL     1       4.394  -1.598  -5.648  0.00  0.00    +0.292 HD
ENDBRANCH   7   8
ENDBRANCH   1   2
BRANCH   1  11
ATOM     10  N   UNL     1       2.723  -0.982  -2.346  0.00  0.00    -0.308 N 
ATOM     11  C   UNL     1       3.918  -0.561  -1.885  0.00  0.00    +0.239 C 
ATOM     12  O   UNL     1       3.989   0.006  -0.816  0.00  0.00    -0.273 OA
ATOM     13  H   UNL     1       2.666  -1.436  -3.202  0.00  0.00    +0.149 HD
BRANCH  10  14
ATOM     14  C   UNL     1       1.511  -0.754  -1.556  0.00  0.00    +0.030 C 
ATOM     15  C   UNL     1       1.344   0.746  -1.300  0.00  0.00    +0.031 C 
ATOM     16  C   UNL     1       1.628  -1.489  -0.219  0.00  0.00    +0.031 C 
BRANCH  14  17
ATOM     17  C   UNL     1       0.296  -1.279  -2.323  0.00  0.00    +0.031 C 
BRANCH  17  19
ATOM     18  C   UNL     1       1.362  -1.101  -4.575  0.00  0.00    +0.010 C 
ATOM     19  C   UNL     1       0.221  -0.596  -3.690  0.00  0.00    -0.036 C 
ATOM     20  C   UNL     1       0.347   0.918  -3.511  0.00  0.00    +0.010 C 
ATOM     21  C   UNL     1      -1.120  -0.922  -4.350  0.00  0.00    +0.010 C 
ENDBRANCH  17  19
ENDBRANCH  14  17
ENDBRANCH  10  14
ENDBRANCH   1  11
BRANCH   1  22
ATOM     22  N   UNL     1       6.335  -0.357  -1.935  0.00  0.00    -0.277 N 
ATOM     23  C   UNL     1       6.580  -0.878  -0.717  0.00  0.00    +0.248 C 
ATOM     24  O   UNL     1       7.555  -0.517  -0.086  0.00  0.00    -0.270 OA
BRANCH  23  25
ATOM     25  C   UNL     1       5.664  -1.888  -0.147  0.00  0.00    +0.039 A 
ATOM     26  C   UNL     1       4.590  -2.365  -0.901  0.00  0.00    +0.013 A 
ATOM     27  C   UNL     1       3.739  -3.308  -0.363  0.00  0.00    +0.003 A 
ATOM     28  C   UNL     1       3.947  -3.781   0.920  0.00  0.00    +0.033 A 
ATOM     29  C   UNL     1       5.009  -3.312   1.673  0.00  0.00    +0.127 A 
ATOM     30  C   UNL     1       5.871  -2.373   1.145  0.00  0.00    +0.045 A 
BRANCH  29  31
ATOM     31  N   UNL     1       5.223  -3.822   3.046  0.00  0.00    +0.056 N 
ATOM     32  O   UNL     1       4.471  -4.649   3.508  0.00  0.00    -0.126 OA
ATOM     33  O   UNL     1       6.151  -3.413   3.705  0.00  0.00    -0.126 OA
ENDBRANCH  29  31
ENDBRANCH  23  25
BRANCH  22  34
ATOM     34  C   UNL     1       7.240   0.650  -2.497  0.00  0.00    +0.030 C 
ATOM     35  C   UNL     1       6.809   0.981  -3.927  0.00  0.00    +0.031 C 
ATOM     36  C   UNL     1       7.186   1.917  -1.642  0.00  0.00    +0.031 C 
ATOM     37  C   UNL     1       8.668   0.102  -2.509  0.00  0.00    +0.031 C 
ENDBRANCH  22  34
ENDBRANCH   1  22
TORSDOF 10
