REMARK  Name = ZINC41604059
REMARK  5 active torsions:
REMARK  status: ('A' for Active; 'I' for Inactive)
REMARK    1  A    between atoms: C_1  and  C_2
REMARK    2  A    between atoms: C_2  and  C_3
REMARK    3  A    between atoms: C_2  and  C_4
REMARK    4  A    between atoms: C_2  and  C_5
REMARK    5  A    between atoms: N_16  and  C_19
REMARK                            x       y       z     vdW  Elec       q    Type
REMARK                         _______ _______ _______ _____ _____    ______ ____
ROOT
ATOM      1  C   UNL     1       0.693  -0.491  -1.245  0.00  0.00    +0.133 A 
ATOM      2  C   UNL     1       1.052  -1.904  -1.393  0.00  0.00    +0.297 A 
ATOM      3  O   UNL     1       0.781  -2.704  -0.510  0.00  0.00    -0.264 OA
ATOM      4  N   UNL     1       1.677  -2.312  -2.504  0.00  0.00    -0.174 NA
ATOM      5  H   UNL     1       1.877   0.474  -4.065  0.00  0.00    +0.192 HD
ATOM      6  C   UNL     1       1.971  -1.453  -3.460  0.00  0.00    +0.215 A 
ATOM      7  N   UNL     1       1.651  -0.139  -3.349  0.00  0.00    -0.248 N 
ATOM      8  N   UNL     1       0.991   0.339  -2.209  0.00  0.00    -0.170 NA
ATOM      9  N   UNL     1       2.612  -1.895  -4.587  0.00  0.00    -0.297 N 
ATOM     10  C   UNL     1       3.067  -0.944  -5.611  0.00  0.00    +0.127 C 
ATOM     11  C   UNL     1       4.569  -1.156  -5.844  0.00  0.00    +0.124 C 
ATOM     12  N   UNL     1       4.814  -2.590  -6.051  0.00  0.00    -0.325 N 
ATOM     13  C   UNL     1       4.359  -3.541  -5.027  0.00  0.00    +0.124 C 
ATOM     14  C   UNL     1       2.863  -3.329  -4.791  0.00  0.00    +0.127 C 
ENDROOT
BRANCH  12  15
ATOM     15  C   UNL     1       5.468  -3.041  -7.201  0.00  0.00    +0.065 A 
ATOM     16  C   UNL     1       6.851  -3.171  -7.210  0.00  0.00    +0.026 A 
ATOM     17  C   UNL     1       7.494  -3.618  -8.347  0.00  0.00    +0.002 A 
ATOM     18  C   UNL     1       6.764  -3.935  -9.478  0.00  0.00    +0.003 A 
ATOM     19  C   UNL     1       5.388  -3.807  -9.475  0.00  0.00    +0.040 A 
ATOM     20  C   UNL     1       4.736  -3.366  -8.338  0.00  0.00    +0.144 A 
ATOM     21  F   UNL     1       3.390  -3.246  -8.332  0.00  0.00    -0.204 F 
ENDBRANCH  12  15
BRANCH   1  23
ATOM     22  C   UNL     1      -0.268   1.499  -0.121  0.00  0.00    +0.017 C 
ATOM     23  C   UNL     1      -0.012  -0.005  -0.005  0.00  0.00    +0.011 C 
ATOM     24  C   UNL     1       0.862  -0.282   1.220  0.00  0.00    +0.017 C 
ATOM     25  C   UNL     1      -1.346  -0.740   0.143  0.00  0.00    +0.017 C 
ENDBRANCH   1  23
TORSDOF 2
