REMARK  Name = ZINC09481045
REMARK  7 active torsions:
REMARK  status: ('A' for Active; 'I' for Inactive)
REMARK    1  A    between atoms: C_1  and  C_2
REMARK    2  A    between atoms: C_9  and  C_11
REMARK    3  A    between atoms: C_14  and  S_16
REMARK    4  A    between atoms: S_16  and  C_17
REMARK    5  A    between atoms: C_17  and  C_19
REMARK    6  A    between atoms: C_17  and  C_20
REMARK    7  A    between atoms: N_22  and  C_23
REMARK                            x       y       z     vdW  Elec       q    Type
REMARK                         _______ _______ _______ _____ _____    ______ ____
ROOT
ATOM      1  C   UNL     1      -4.683   5.517  -0.094  0.00  0.00    +0.139 C 
ATOM      2  C   UNL     1      -4.927   4.938   1.300  0.00  0.00    +0.029 C 
ENDROOT
BRANCH   1   3
ATOM      3  C   UNL     1      -5.390   6.842  -0.218  0.00  0.00    +0.230 C 
ATOM      4  O   UNL     1      -4.768   7.876  -0.090  0.00  0.00    -0.274 OA
ATOM      5  N   UNL     1      -6.713   6.879  -0.470  0.00  0.00    -0.285 N 
ATOM      6  H   UNL     1      -7.196   6.057  -0.648  0.00  0.00    +0.155 HD
BRANCH   5   7
ATOM      7  C   UNL     1      -7.392   8.105  -0.476  0.00  0.00    +0.035 A 
ATOM      8  C   UNL     1      -8.463   8.301  -1.340  0.00  0.00    +0.025 A 
ATOM      9  C   UNL     1      -9.135   9.507  -1.350  0.00  0.00    +0.029 A 
ATOM     10  C   UNL     1      -8.741  10.526  -0.496  0.00  0.00    +0.067 A 
ATOM     11  C   UNL     1      -7.665  10.332   0.372  0.00  0.00    +0.069 A 
ATOM     12  C   UNL     1      -6.996   9.118   0.384  0.00  0.00    +0.051 A 
ATOM     13  N   UNL     1      -7.511  11.515   1.092  0.00  0.00    -0.306 N 
ATOM     14  H   UNL     1      -6.841  11.681   1.774  0.00  0.00    +0.170 HD
ATOM     15  C   UNL     1      -8.449  12.388   0.681  0.00  0.00    +0.325 A 
ATOM     16  O   UNL     1      -8.590  13.518   1.109  0.00  0.00    -0.247 OA
ATOM     17  N   UNL     1      -9.207  11.822  -0.277  0.00  0.00    -0.306 N 
ATOM     18  H   UNL     1      -9.950  12.244  -0.736  0.00  0.00    +0.170 HD
ENDBRANCH   5   7
ENDBRANCH   1   3
BRANCH   1  19
ATOM     19  S   UNL     1      -2.907   5.755  -0.347  0.00  0.00    -0.053 S 
BRANCH  19  23
ATOM     20  C   UNL     1      -1.139   2.300  -0.341  0.00  0.00    +0.256 A 
ATOM     21  N   UNL     1      -2.393   1.963  -0.151  0.00  0.00    -0.106 NA
ATOM     22  N   UNL     1      -3.123   3.022  -0.128  0.00  0.00    -0.101 NA
ATOM     23  C   UNL     1      -2.364   4.079  -0.302  0.00  0.00    +0.278 A 
ATOM     24  O   UNL     1      -1.094   3.649  -0.435  0.00  0.00    -0.410 OA
BRANCH  20  32
ATOM     25  C   UNL     1       2.891  -4.114  -0.753  0.00  0.00    +0.008 C 
ATOM     26  C   UNL     1       2.681  -2.618  -0.990  0.00  0.00    -0.009 C 
ATOM     27  C   UNL     1       3.835  -1.838  -0.353  0.00  0.00    +0.009 C 
ATOM     28  C   UNL     1       3.759  -0.376  -0.820  0.00  0.00    +0.043 C 
ATOM     29  C   UNL     1       2.349   0.096  -0.660  0.00  0.00    -0.006 A 
ATOM     30  C   UNL     1       1.237  -0.667  -0.455  0.00  0.00    -0.036 A 
ATOM     31  C   UNL     1       0.028   0.007  -0.337  0.00  0.00    +0.024 A 
ATOM     32  C   UNL     1       0.007   1.383  -0.429  0.00  0.00    +0.076 A 
ATOM     33  S   UNL     1       1.734   1.758  -0.692  0.00  0.00    -0.088 S 
ATOM     34  C   UNL     1       1.352  -2.187  -0.367  0.00  0.00    +0.039 C 
ENDBRANCH  20  32
ENDBRANCH  19  23
ENDBRANCH   1  19
TORSDOF 5
