REMARK  Name = ZINC13145752
REMARK  8 active torsions:
REMARK  status: ('A' for Active; 'I' for Inactive)
REMARK    1  A    between atoms: C_4  and  C_7
REMARK    2  A    between atoms: C_7  and  C_8
REMARK    3  A    between atoms: C_8  and  C_9
REMARK    4  A    between atoms: C_9  and  N_60
REMARK    5  A    between atoms: C_10  and  C_11
REMARK    6  A    between atoms: C_10  and  N_60
REMARK    7  A    between atoms: C_24  and  C_25
REMARK    8  A    between atoms: C_24  and  N_60
REMARK                            x       y       z     vdW  Elec       q    Type
REMARK                         _______ _______ _______ _____ _____    ______ ____
ROOT
ATOM      1  N   UNL     1      -0.576   1.440  -1.382  0.00  0.00    +0.389 N 
ATOM      2  H   UNL     1      -1.485   0.964  -1.409  0.00  0.00    -0.081 HD
ENDROOT
BRANCH   1   3
ATOM      3  C   UNL     1       0.162   0.996  -0.180  0.00  0.00    -0.077 C 
BRANCH   3   4
ATOM      4  C   UNL     1      -0.812   0.934   0.998  0.00  0.00    -0.014 C 
BRANCH   4   5
ATOM      5  C   UNL     1      -0.065   0.486   2.255  0.00  0.00    +0.033 C 
BRANCH   5   9
ATOM      6  C   UNL     1      -2.837   0.022   5.472  0.00  0.00    +0.000 A 
ATOM      7  C   UNL     1      -2.491  -1.068   4.694  0.00  0.00    +0.000 A 
ATOM      8  C   UNL     1      -1.594  -0.917   3.653  0.00  0.00    +0.003 A 
ATOM      9  C   UNL     1      -1.043   0.322   3.390  0.00  0.00    -0.047 A 
ATOM     10  C   UNL     1      -1.384   1.411   4.171  0.00  0.00    +0.003 A 
ATOM     11  C   UNL     1      -2.284   1.261   5.209  0.00  0.00    +0.000 A 
ENDBRANCH   5   9
ENDBRANCH   4   5
ENDBRANCH   3   4
ENDBRANCH   1   3
BRANCH   1  12
ATOM     12  C   UNL     1       0.186   1.091  -2.600  0.00  0.00    -0.003 C 
BRANCH  12  13
ATOM     13  C   UNL     1       0.208  -0.409  -2.745  0.00  0.00    +0.094 A 
ATOM     14  N   UNL     1       0.848  -0.943  -3.819  0.00  0.00    -0.312 N 
ATOM     15  H   UNL     1       1.272  -0.357  -4.465  0.00  0.00    +0.170 HD
ATOM     16  C   UNL     1       0.897  -2.284  -3.996  0.00  0.00    +0.259 A 
ATOM     17  O   UNL     1       1.466  -2.775  -4.953  0.00  0.00    -0.267 OA
ATOM     18  C   UNL     1       0.236  -3.124  -2.986  0.00  0.00    +0.065 A 
ATOM     19  C   UNL     1       0.230  -4.515  -3.075  0.00  0.00    +0.017 A 
ATOM     20  C   UNL     1      -0.399  -5.251  -2.109  0.00  0.00    +0.021 A 
ATOM     21  C   UNL     1      -1.031  -4.626  -1.040  0.00  0.00    +0.043 A 
ATOM     22  C   UNL     1      -1.039  -3.252  -0.929  0.00  0.00    +0.048 A 
ATOM     23  C   UNL     1      -0.403  -2.480  -1.904  0.00  0.00    +0.079 A 
ATOM     24  N   UNL     1      -0.379  -1.126  -1.836  0.00  0.00    -0.236 NA
ATOM     25 CL   UNL     1      -1.820  -5.588   0.171  0.00  0.00    -0.083 Cl
ENDBRANCH  12  13
ENDBRANCH   1  12
BRANCH   1  26
ATOM     26  C   UNL     1      -0.799   2.900  -1.327  0.00  0.00    -0.008 C 
BRANCH  26  27
ATOM     27  C   UNL     1      -1.846   3.268  -2.346  0.00  0.00    +0.058 C 
ATOM     28  C   UNL     1      -3.458   2.638  -4.006  0.00  0.00    +0.120 C 
ATOM     29  C   UNL     1      -4.380   1.460  -4.173  0.00  0.00    +0.018 C 
ATOM     30  C   UNL     1      -5.429   1.293  -3.408  0.00  0.00    +0.039 C 
ATOM     31  C   UNL     1      -5.707   2.276  -2.348  0.00  0.00    +0.016 C 
ATOM     32  C   UNL     1      -5.163   3.487  -2.412  0.00  0.00    -0.011 C 
ATOM     33  C   UNL     1      -4.268   3.858  -3.565  0.00  0.00    +0.124 C 
ATOM     34  C   UNL     1      -3.312   4.944  -3.132  0.00  0.00    +0.227 C 
ATOM     35  O   UNL     1      -3.588   6.112  -3.304  0.00  0.00    -0.275 OA
ATOM     36  N   UNL     1      -2.149   4.593  -2.547  0.00  0.00    -0.277 N 
ATOM     37 CL   UNL     1      -6.478  -0.072  -3.628  0.00  0.00    -0.084 Cl
ATOM     38  H   UNL     1      -1.523   5.280  -2.270  0.00  0.00    +0.156 HD
ATOM     39  N   UNL     1      -2.417   2.259  -2.987  0.00  0.00    -0.370 N 
ATOM     40  H   UNL     1      -2.166   1.281  -2.801  0.00  0.00    +0.161 HD
ENDBRANCH  26  27
ENDBRANCH   1  26
TORSDOF 8
