REMARK  Name = ZINC19354043
REMARK  3 active torsions:
REMARK  status: ('A' for Active; 'I' for Inactive)
REMARK    1  A    between atoms: C_4  and  N_7
REMARK    2  A    between atoms: C_9  and  C_12
REMARK    3  A    between atoms: N_23  and  C_24
REMARK                            x       y       z     vdW  Elec       q    Type
REMARK                         _______ _______ _______ _____ _____    ______ ____
ROOT
ATOM      1  C   UNL     1       4.872   0.112  -0.150  0.00  0.00    +0.201 C 
ATOM      2  N   UNL     1       5.949  -0.557   0.595  0.00  0.00    -0.321 N 
ATOM      3  C   UNL     1       6.078  -1.937   0.486  0.00  0.00    +0.041 A 
ATOM      4  C   UNL     1       7.301  -2.569   0.633  0.00  0.00    +0.024 A 
ATOM      5  C   UNL     1       7.375  -3.946   0.544  0.00  0.00    +0.002 A 
ATOM      6  C   UNL     1       6.235  -4.699   0.310  0.00  0.00    +0.001 A 
ATOM      7  C   UNL     1       5.010  -4.084   0.158  0.00  0.00    +0.015 A 
ATOM      8  C   UNL     1       4.922  -2.696   0.233  0.00  0.00    +0.058 A 
ATOM      9  C   UNL     1       3.638  -1.992   0.072  0.00  0.00    +0.254 C 
ATOM     10  O   UNL     1       2.597  -2.618   0.027  0.00  0.00    -0.270 OA
ATOM     11  N   UNL     1       3.628  -0.648  -0.026  0.00  0.00    -0.244 N 
ATOM     12  H   UNL     1       6.632   0.034   1.224  0.00  0.00    +0.148 HD
ENDROOT
BRANCH  11  13
ATOM     13  C   UNL     1       2.404   0.034  -0.015  0.00  0.00    +0.042 A 
ATOM     14  C   UNL     1       1.491  -0.163  -1.043  0.00  0.00    +0.027 A 
ATOM     15  C   UNL     1       0.285   0.511  -1.033  0.00  0.00    +0.051 A 
ATOM     16  C   UNL     1      -0.018   1.384   0.001  0.00  0.00    +0.162 A 
ATOM     17  C   UNL     1       0.893   1.580   1.032  0.00  0.00    +0.164 A 
ATOM     18  C   UNL     1       2.104   0.905   1.022  0.00  0.00    +0.073 A 
ATOM     19  O   UNL     1       0.611   2.426   2.060  0.00  0.00    -0.485 OA
ATOM     20  C   UNL     1      -0.446   3.368   1.846  0.00  0.00    +0.270 C 
ATOM     21  C   UNL     1      -1.637   2.622   1.228  0.00  0.00    +0.270 C 
ATOM     22  O   UNL     1      -1.209   2.045  -0.011  0.00  0.00    -0.485 OA
ENDBRANCH  11  13
BRANCH   1  25
ATOM     23  N   UNL     1       6.426   0.372  -3.441  0.00  0.00    -0.239 N 
ATOM     24  C   UNL     1       6.512   0.305  -2.093  0.00  0.00    +0.121 A 
ATOM     25  C   UNL     1       5.253   0.211  -1.605  0.00  0.00    +0.029 A 
ATOM     26  C   UNL     1       4.368   0.230  -2.688  0.00  0.00    +0.141 A 
ATOM     27  N   UNL     1       5.070   0.326  -3.789  0.00  0.00    -0.174 NA
BRANCH  23  31
ATOM     28  C   UNL     1       9.629   0.677  -6.091  0.00  0.00    +0.000 A 
ATOM     29  C   UNL     1       8.334   0.641  -6.575  0.00  0.00    +0.002 A 
ATOM     30  C   UNL     1       7.271   0.540  -5.700  0.00  0.00    +0.028 A 
ATOM     31  C   UNL     1       7.503   0.474  -4.332  0.00  0.00    +0.065 A 
ATOM     32  C   UNL     1       8.804   0.515  -3.849  0.00  0.00    +0.028 A 
ATOM     33  C   UNL     1       9.864   0.611  -4.730  0.00  0.00    +0.002 A 
ENDBRANCH  23  31
ENDBRANCH   1  25
TORSDOF 3
