REMARK  Name = ZINC12911243
REMARK  8 active torsions:
REMARK  status: ('A' for Active; 'I' for Inactive)
REMARK    1  A    between atoms: C_1  and  C_2
REMARK    2  A    between atoms: C_2  and  C_4
REMARK    3  A    between atoms: C_2  and  N_22
REMARK    4  A    between atoms: C_4  and  O_6
REMARK    5  A    between atoms: O_6  and  C_7
REMARK    6  A    between atoms: C_7  and  C_9
REMARK    7  A    between atoms: C_7  and  C_10
REMARK    8  A    between atoms: C_23  and  C_25
REMARK                            x       y       z     vdW  Elec       q    Type
REMARK                         _______ _______ _______ _____ _____    ______ ____
ROOT
ATOM      1  C   UNL     1      -3.378   7.672  -1.834  0.00  0.00    +0.328 C 
ATOM      2  O   UNL     1      -4.218   6.935  -2.292  0.00  0.00    -0.249 OA
ENDROOT
BRANCH   1   4
ATOM      3  C   UNL     1      -0.901   7.540  -1.858  0.00  0.00    +0.040 C 
ATOM      4  C   UNL     1      -2.174   7.099  -1.132  0.00  0.00    +0.179 C 
BRANCH   4   5
ATOM      5  N   UNL     1      -2.256   5.636  -1.138  0.00  0.00    -0.302 N 
ATOM      6  C   UNL     1      -1.621   4.922  -0.188  0.00  0.00    +0.220 C 
ATOM      7  O   UNL     1      -0.981   5.490   0.672  0.00  0.00    -0.275 OA
ATOM      8  H   UNL     1      -2.768   5.182  -1.825  0.00  0.00    +0.150 HD
BRANCH   6   9
ATOM      9  C   UNL     1      -1.706   3.417  -0.193  0.00  0.00    +0.048 C 
ATOM     10  C   UNL     1      -1.133   2.879  -1.506  0.00  0.00    +0.019 C 
ATOM     11  C   UNL     1      -1.219   1.351  -1.511  0.00  0.00    -0.009 C 
ATOM     12  C   UNL     1      -0.416   0.791  -0.336  0.00  0.00    +0.007 C 
ATOM     13  C   UNL     1      -0.989   1.329   0.976  0.00  0.00    -0.009 C 
ATOM     14  C   UNL     1      -0.903   2.857   0.982  0.00  0.00    +0.019 C 
ATOM     15  C   UNL     1      -2.452   0.900   1.108  0.00  0.00    +0.007 C 
ATOM     16  C   UNL     1      -3.256   1.461  -0.068  0.00  0.00    -0.009 C 
ATOM     17  C   UNL     1      -2.682   0.922  -1.380  0.00  0.00    +0.007 C 
ATOM     18  C   UNL     1      -3.169   2.988  -0.062  0.00  0.00    +0.019 C 
ENDBRANCH   6   9
ENDBRANCH   4   5
ENDBRANCH   1   4
BRANCH   1  19
ATOM     19  O   UNL     1      -3.516   9.002  -1.951  0.00  0.00    -0.451 OA
BRANCH  19  20
ATOM     20  C   UNL     1      -4.700   9.484  -2.639  0.00  0.00    +0.259 C 
ATOM     21  C   UNL     1      -5.830   9.689  -1.628  0.00  0.00    +0.062 C 
BRANCH  20  22
ATOM     22  C   UNL     1      -4.389  10.794  -3.317  0.00  0.00    +0.260 C 
ATOM     23  O   UNL     1      -3.344  11.364  -3.086  0.00  0.00    -0.271 OA
ATOM     24  N   UNL     1      -5.273  11.332  -4.181  0.00  0.00    -0.268 N 
ATOM     25  C   UNL     1      -6.571  10.687  -4.420  0.00  0.00    +0.114 C 
ATOM     26  C   UNL     1      -6.828  10.684  -5.928  0.00  0.00    +0.024 C 
ATOM     27  C   UNL     1      -6.923  12.129  -6.419  0.00  0.00    +0.038 C 
ATOM     28  C   UNL     1      -5.732  12.924  -5.951  0.00  0.00    -0.026 A 
ATOM     29  C   UNL     1      -4.965  12.512  -4.872  0.00  0.00    +0.040 A 
ATOM     30  C   UNL     1      -3.876  13.272  -4.463  0.00  0.00    +0.024 A 
ATOM     31  C   UNL     1      -3.555  14.437  -5.132  0.00  0.00    +0.002 A 
ATOM     32  C   UNL     1      -4.319  14.845  -6.210  0.00  0.00    +0.000 A 
ATOM     33  C   UNL     1      -5.403  14.092  -6.617  0.00  0.00    +0.005 A 
ENDBRANCH  20  22
ENDBRANCH  19  20
ENDBRANCH   1  19
TORSDOF 6
