REMARK  Name = ZINC19648076
REMARK  12 active torsions:
REMARK  status: ('A' for Active; 'I' for Inactive)
REMARK    1  A    between atoms: C_1  and  C_2
REMARK    2  A    between atoms: C_2  and  C_4
REMARK    3  A    between atoms: C_2  and  C_30
REMARK    4  A    between atoms: C_4  and  C_5
REMARK    5  A    between atoms: N_7  and  C_8
REMARK    6  A    between atoms: C_9  and  C_22
REMARK    7  A    between atoms: C_14  and  C_18
REMARK    8  A    between atoms: C_18  and  C_19
REMARK    9  A    between atoms: C_18  and  C_20
REMARK   10  A    between atoms: C_18  and  C_21
REMARK   11  A    between atoms: N_24  and  C_25
REMARK   12  A    between atoms: C_30  and  C_31
REMARK                            x       y       z     vdW  Elec       q    Type
REMARK                         _______ _______ _______ _____ _____    ______ ____
ROOT
ATOM      1  C   UNL     1      -3.207  -2.062   2.635  0.00  0.00    +0.084 A 
ATOM      2  C   UNL     1      -1.854  -2.272   2.405  0.00  0.00    +0.069 A 
ATOM      3  C   UNL     1      -1.111  -3.018   3.405  0.00  0.00    -0.023 A 
ATOM      4  C   UNL     1      -1.835  -3.438   4.465  0.00  0.00    -0.004 A 
ATOM      5  S   UNL     1      -3.477  -2.856   4.151  0.00  0.00    -0.077 S 
ATOM      6  C   UNL     1      -1.342  -4.223   5.641  0.00  0.00    +0.046 C 
ATOM      7  C   UNL     1       0.034  -4.807   5.291  0.00  0.00    -0.000 C 
ATOM      8  C   UNL     1       0.902  -3.699   4.688  0.00  0.00    +0.009 C 
ATOM      9  C   UNL     1       0.378  -3.325   3.300  0.00  0.00    +0.037 C 
ENDROOT
BRANCH   1  12
ATOM     10  C   UNL     1      -5.406  -1.280   2.234  0.00  0.00    +0.218 C 
ATOM     11  O   UNL     1      -5.764  -1.782   3.278  0.00  0.00    -0.275 OA
ATOM     12  N   UNL     1      -4.120  -1.382   1.843  0.00  0.00    -0.279 N 
ATOM     13  H   UNL     1      -3.795  -0.927   0.896  0.00  0.00    +0.155 HD
BRANCH  10  14
ATOM     14  C   UNL     1      -6.399  -0.542   1.374  0.00  0.00    +0.100 C 
BRANCH  14  16
ATOM     15  C   UNL     1      -7.722   0.205   3.357  0.00  0.00    +0.008 C 
ATOM     16  C   UNL     1      -7.775  -0.574   2.041  0.00  0.00    +0.005 C 
BRANCH  16  17
ATOM     17  C   UNL     1      -8.808   0.066   1.111  0.00  0.00    +0.129 C 
BRANCH  17  18
ATOM     18  C   UNL     1     -10.182  -0.075   1.714  0.00  0.00    +0.356 C 
ATOM     19  O   UNL     1     -10.321  -0.630   2.778  0.00  0.00    -0.246 OA
ATOM     20  O   UNL     1     -11.251   0.416   1.068  0.00  0.00    -0.246 OA
ENDBRANCH  17  18
ENDBRANCH  16  17
ENDBRANCH  14  16
ENDBRANCH  10  14
ENDBRANCH   1  12
BRANCH   7  21
ATOM     21  C   UNL     1       0.700  -5.348   6.558  0.00  0.00    -0.035 C 
ATOM     22  C   UNL     1       0.857  -4.215   7.575  0.00  0.00    +0.011 C 
ATOM     23  C   UNL     1      -0.169  -6.455   7.158  0.00  0.00    +0.011 C 
ATOM     24  C   UNL     1       2.078  -5.914   6.209  0.00  0.00    +0.011 C 
ENDBRANCH   7  21
BRANCH   2  25
ATOM     25  C   UNL     1      -1.199  -1.754   1.200  0.00  0.00    +0.247 C 
ATOM     26  O   UNL     1      -1.148  -2.437   0.193  0.00  0.00    -0.270 OA
ATOM     27  N   UNL     1      -0.653  -0.521   1.206  0.00  0.00    -0.308 N 
ATOM     28  H   UNL     1      -0.699   0.096   2.115  0.00  0.00    +0.149 HD
BRANCH  27  29
ATOM     29  C   UNL     1       0.002  -0.004   0.002  0.00  0.00    +0.073 C 
ATOM     30  C   UNL     1      -0.019   1.534   0.011  0.00  0.00    +0.022 C 
ATOM     31  C   UNL     1       1.453   1.995  -0.001  0.00  0.00    +0.002 C 
ATOM     32  C   UNL     1       2.232   0.792   0.586  0.00  0.00    +0.002 C 
ATOM     33  C   UNL     1       1.486  -0.425  -0.014  0.00  0.00    +0.022 C 
ENDBRANCH  27  29
ENDBRANCH   2  25
TORSDOF 8
