REMARK  Name = ZINC49241400
REMARK  3 active torsions:
REMARK  status: ('A' for Active; 'I' for Inactive)
REMARK    1  A    between atoms: C_1  and  C_2
REMARK    2  A    between atoms: C_2  and  C_4
REMARK    3  A    between atoms: C_2  and  N_11
REMARK                            x       y       z     vdW  Elec       q    Type
REMARK                         _______ _______ _______ _____ _____    ______ ____
ROOT
ATOM      1  N   UNL     1       0.688  -0.476  -1.203  0.00  0.00    -0.293 N 
ATOM      2  C   UNL     1       0.006  -0.608  -2.358  0.00  0.00    +0.303 C 
ATOM      3  O   UNL     1      -1.178  -0.335  -2.400  0.00  0.00    -0.253 OA
ATOM      4  N   UNL     1       0.637  -1.043  -3.467  0.00  0.00    -0.282 N 
ATOM      5  C   UNL     1       2.061  -1.421  -3.582  0.00  0.00    +0.113 C 
ATOM      6  C   UNL     1       2.261  -1.822  -5.076  0.00  0.00    +0.008 C 
ATOM      7  C   UNL     1       1.510  -3.184  -5.203  0.00  0.00    +0.007 C 
ATOM      8  C   UNL     1       0.021  -2.815  -5.009  0.00  0.00    +0.023 C 
ATOM      9  C   UNL     1       0.032  -1.242  -4.816  0.00  0.00    +0.078 C 
ATOM     10  C   UNL     1       1.234  -0.840  -5.747  0.00  0.00    +0.027 C 
ATOM     11  H   UNL     1       1.632  -0.695  -1.170  0.00  0.00    +0.151 HD
ENDROOT
BRANCH   1  13
ATOM     12  C   UNL     1      -0.019   1.526   0.010  0.00  0.00    +0.033 C 
ATOM     13  C   UNL     1       0.002  -0.004   0.002  0.00  0.00    +0.103 C 
BRANCH  13  14
ATOM     14  C   UNL     1       0.731  -0.503   1.223  0.00  0.00    -0.014 A 
ATOM     15  C   UNL     1       2.077  -0.808   1.148  0.00  0.00    +0.006 A 
ATOM     16  C   UNL     1       2.746  -1.266   2.268  0.00  0.00    +0.000 A 
ATOM     17  C   UNL     1       2.069  -1.419   3.463  0.00  0.00    +0.001 A 
ATOM     18  C   UNL     1       0.723  -1.114   3.539  0.00  0.00    +0.015 A 
ATOM     19  C   UNL     1       0.054  -0.651   2.420  0.00  0.00    +0.023 A 
ATOM     20 BR   UNL     1      -1.786  -0.228   2.525  0.00  0.00    -0.050 Br
ENDBRANCH  13  14
ENDBRANCH   1  13
TORSDOF 2
