REMARK  Name = ZINC03984097
REMARK  7 active torsions:
REMARK  status: ('A' for Active; 'I' for Inactive)
REMARK    1  A    between atoms: C_1  and  C_2
REMARK    2  A    between atoms: C_2  and  C_3
REMARK    3  A    between atoms: C_3  and  C_4
REMARK    4  A    between atoms: C_6  and  C_12
REMARK    5  A    between atoms: C_7  and  O_11
REMARK    6  A    between atoms: C_9  and  O_10
REMARK    7  A    between atoms: C_13  and  C_18
REMARK                            x       y       z     vdW  Elec       q    Type
REMARK                         _______ _______ _______ _____ _____    ______ ____
ROOT
ATOM      1  C   UNL     1      -1.259  -4.871  -2.719  0.00  0.00    +0.104 A 
ATOM      2  C   UNL     1      -1.165  -6.246  -3.051  0.00  0.00    +0.027 A 
ATOM      3  C   UNL     1      -2.084  -6.496  -4.026  0.00  0.00    +0.114 A 
ATOM      4  N   UNL     1      -2.726  -5.339  -4.295  0.00  0.00    -0.284 N 
ATOM      5  H   UNL     1      -3.433  -5.222  -4.949  0.00  0.00    +0.188 HD
ATOM      6  N   UNL     1      -2.201  -4.339  -3.468  0.00  0.00    -0.173 NA
ENDROOT
BRANCH   2   7
ATOM      7  C   UNL     1      -0.235  -7.232  -2.449  0.00  0.00    -0.011 A 
ATOM      8  C   UNL     1       1.137  -6.989  -2.447  0.00  0.00    +0.012 A 
ATOM      9  C   UNL     1       2.000  -7.908  -1.888  0.00  0.00    +0.050 A 
ATOM     10  C   UNL     1       1.507  -9.077  -1.324  0.00  0.00    +0.162 A 
ATOM     11  C   UNL     1       0.138  -9.324  -1.321  0.00  0.00    +0.163 A 
ATOM     12  C   UNL     1      -0.732  -8.402  -1.878  0.00  0.00    +0.058 A 
ATOM     13  O   UNL     1      -0.362 -10.462  -0.766  0.00  0.00    -0.485 OA
ATOM     14  C   UNL     1       0.563 -11.532  -0.545  0.00  0.00    +0.270 C 
ATOM     15  C   UNL     1       1.824 -10.950   0.107  0.00  0.00    +0.270 C 
ATOM     16  O   UNL     1       2.377  -9.972  -0.781  0.00  0.00    -0.485 OA
ENDBRANCH   2   7
BRANCH   1  19
ATOM     17  C   UNL     1       0.490  -4.050   0.504  0.00  0.00    -0.005 A 
ATOM     18  C   UNL     1      -0.268  -4.713  -0.438  0.00  0.00    +0.021 A 
ATOM     19  C   UNL     1      -0.445  -4.160  -1.705  0.00  0.00    +0.045 A 
ATOM     20  C   UNL     1       0.148  -2.932  -2.016  0.00  0.00    +0.130 A 
ATOM     21  C   UNL     1       0.908  -2.273  -1.065  0.00  0.00    +0.091 A 
ATOM     22  C   UNL     1       1.075  -2.828   0.196  0.00  0.00    +0.124 A 
BRANCH  22  23
ATOM     23  O   UNL     1       1.816  -2.177   1.130  0.00  0.00    -0.506 OA
ATOM     24  H   UNL     1       2.756  -2.407   1.116  0.00  0.00    +0.292 HD
ENDBRANCH  22  23
BRANCH  20  25
ATOM     25  O   UNL     1      -0.020  -2.387  -3.249  0.00  0.00    -0.506 OA
ATOM     26  H   UNL     1      -0.745  -1.749  -3.302  0.00  0.00    +0.292 HD
ENDBRANCH  20  25
BRANCH  17  27
ATOM     27  C   UNL     1       0.680  -4.649   1.873  0.00  0.00    +0.038 C 
BRANCH  27  29
ATOM     28  C   UNL     1       2.242  -5.936   3.338  0.00  0.00    +0.004 C 
ATOM     29  C   UNL     1       2.050  -5.328   1.948  0.00  0.00    +0.001 C 
ENDBRANCH  27  29
ENDBRANCH  17  27
ENDBRANCH   1  19
TORSDOF 6
