REMARK  Name = ZINC14878995
REMARK  7 active torsions:
REMARK  status: ('A' for Active; 'I' for Inactive)
REMARK    1  A    between atoms: C_1  and  C_2
REMARK    2  A    between atoms: C_2  and  C_3
REMARK    3  A    between atoms: C_3  and  C_4
REMARK    4  A    between atoms: C_4  and  C_18
REMARK    5  A    between atoms: N_7  and  C_11
REMARK    6  A    between atoms: C_11  and  C_12
REMARK    7  A    between atoms: C_24  and  C_26
REMARK                            x       y       z     vdW  Elec       q    Type
REMARK                         _______ _______ _______ _____ _____    ______ ____
ROOT
ATOM      1  C   UNL     1       0.258  -6.753  -1.409  0.00  0.00    +0.024 C 
ATOM      2  C   UNL     1      -1.027  -5.925  -1.475  0.00  0.00    +0.025 C 
ATOM      3  C   UNL     1      -1.121  -5.036  -0.231  0.00  0.00    +0.108 C 
ATOM      4  N   UNL     1       0.107  -4.237  -0.126  0.00  0.00    -0.297 N 
ATOM      5  C   UNL     1       1.403  -4.928  -0.151  0.00  0.00    +0.108 C 
ATOM      6  C   UNL     1       1.469  -5.819  -1.390  0.00  0.00    +0.025 C 
ATOM      7  C   UNL     1       0.046  -2.895  -0.016  0.00  0.00    +0.247 C 
ATOM      8  O   UNL     1      -1.032  -2.341   0.075  0.00  0.00    -0.270 OA
ENDROOT
BRANCH   7   9
ATOM      9  C   UNL     1       1.288  -2.099  -0.005  0.00  0.00    +0.045 A 
ATOM     10  C   UNL     1       2.292  -2.377   0.911  0.00  0.00    +0.014 A 
ATOM     11  C   UNL     1       3.463  -1.631   0.925  0.00  0.00    +0.001 A 
ATOM     12  C   UNL     1       3.660  -0.609   0.045  0.00  0.00    +0.008 A 
ATOM     13  C   UNL     1       2.670  -0.293  -0.901  0.00  0.00    -0.017 A 
ATOM     14  C   UNL     1       1.469  -1.042  -0.931  0.00  0.00    -0.006 A 
ATOM     15  C   UNL     1       0.483  -0.725  -1.875  0.00  0.00    +0.009 A 
ATOM     16  C   UNL     1       0.691   0.298  -2.752  0.00  0.00    +0.001 A 
ATOM     17  C   UNL     1       1.872   1.036  -2.723  0.00  0.00    +0.001 A 
ATOM     18  C   UNL     1       2.851   0.756  -1.819  0.00  0.00    +0.008 A 
ENDBRANCH   7   9
BRANCH   1  19
ATOM     19  C   UNL     1       0.338  -7.668  -2.633  0.00  0.00    +0.115 C 
ATOM     20  C   UNL     1      -0.885  -8.559  -2.714  0.00  0.00    +0.247 C 
ATOM     21  O   UNL     1      -1.244  -9.386  -1.903  0.00  0.00    -0.273 OA
ATOM     22  N   UNL     1      -1.490  -8.242  -3.876  0.00  0.00    -0.222 N 
ATOM     23  C   UNL     1      -0.827  -7.285  -4.533  0.00  0.00    +0.309 C 
ATOM     24  O   UNL     1      -1.179  -6.833  -5.605  0.00  0.00    -0.252 OA
ATOM     25  N   UNL     1       0.278  -6.878  -3.875  0.00  0.00    -0.285 N 
ATOM     26  H   UNL     1       0.908  -6.198  -4.161  0.00  0.00    +0.151 HD
BRANCH  19  27
ATOM     27  C   UNL     1       1.615  -8.509  -2.591  0.00  0.00    +0.035 C 
BRANCH  27  29
ATOM     28  C   UNL     1       3.011 -10.162  -3.842  0.00  0.00    +0.004 C 
ATOM     29  C   UNL     1       1.734  -9.320  -3.883  0.00  0.00    -0.001 C 
ENDBRANCH  27  29
ENDBRANCH  19  27
BRANCH  22  30
ATOM     30  C   UNL     1      -2.724  -8.869  -4.359  0.00  0.00    +0.149 C 
BRANCH  30  31
ATOM     31  C   UNL     1      -3.931  -8.080  -3.847  0.00  0.00    +0.136 C 
ATOM     32  C   UNL     1      -5.234  -8.736  -4.343  0.00  0.00    +0.035 C 
ATOM     33  C   UNL     1      -6.005  -9.079  -3.045  0.00  0.00    +0.031 C 
ATOM     34  C   UNL     1      -5.348  -8.124  -2.016  0.00  0.00    +0.160 C 
ATOM     35  O   UNL     1      -3.957  -8.105  -2.410  0.00  0.00    -0.375 OA
ENDBRANCH  30  31
ENDBRANCH  22  30
ENDBRANCH   1  19
TORSDOF 6
