REMARK  Name = ZINC13238370
REMARK  12 active torsions:
REMARK  status: ('A' for Active; 'I' for Inactive)
REMARK    1  A    between atoms: C_1  and  C_2
REMARK    2  A    between atoms: C_3  and  C_31
REMARK    3  A    between atoms: C_4  and  C_30
REMARK    4  A    between atoms: C_9  and  S_11
REMARK    5  A    between atoms: S_11  and  C_12
REMARK    6  A    between atoms: C_12  and  C_13
REMARK    7  A    between atoms: C_15  and  C_18
REMARK    8  A    between atoms: C_21  and  O_26
REMARK    9  A    between atoms: C_22  and  O_24
REMARK   10  A    between atoms: O_24  and  C_25
REMARK   11  A    between atoms: O_26  and  C_27
REMARK   12  A    between atoms: C_31  and  C_32
REMARK                            x       y       z     vdW  Elec       q    Type
REMARK                         _______ _______ _______ _____ _____    ______ ____
ROOT
ATOM      1  C   UNL     1      -7.682  -3.655   0.986  0.00  0.00    +0.176 C 
ENDROOT
BRANCH   1   2
ATOM      2  C   UNL     1      -8.731  -4.583   1.543  0.00  0.00    +0.238 A 
ATOM      3  N   UNL     1      -9.966  -4.270   1.843  0.00  0.00    -0.191 NA
ATOM      4  C   UNL     1     -10.529  -5.411   2.302  0.00  0.00    +0.202 A 
ATOM      5  N   UNL     1      -9.608  -6.339   2.262  0.00  0.00    -0.056 NA
ATOM      6  O   UNL     1      -8.573  -5.880   1.829  0.00  0.00    -0.337 OA
BRANCH   4   7
ATOM      7  C   UNL     1     -11.927  -5.577   2.770  0.00  0.00    +0.026 A 
ATOM      8  C   UNL     1     -12.800  -4.490   2.762  0.00  0.00    +0.015 A 
ATOM      9  C   UNL     1     -14.101  -4.647   3.192  0.00  0.00    +0.050 A 
ATOM     10  C   UNL     1     -14.542  -5.882   3.643  0.00  0.00    +0.168 A 
ATOM     11  C   UNL     1     -13.672  -6.970   3.658  0.00  0.00    +0.162 A 
ATOM     12  C   UNL     1     -12.368  -6.819   3.223  0.00  0.00    +0.061 A 
BRANCH  11  13
ATOM     13  O   UNL     1     -14.106  -8.181   4.101  0.00  0.00    -0.491 OA
ATOM     14  C   UNL     1     -13.161  -9.253   4.088  0.00  0.00    +0.277 C 
ENDBRANCH  11  13
BRANCH  10  15
ATOM     15  O   UNL     1     -15.823  -6.031   4.071  0.00  0.00    -0.431 OA
BRANCH  15  16
ATOM     16  C   UNL     1     -16.660  -4.874   4.027  0.00  0.00    +0.541 C 
ATOM     17  F   UNL     1     -16.110  -3.870   4.832  0.00  0.00    -0.166 F 
ATOM     18  F   UNL     1     -16.755  -4.415   2.709  0.00  0.00    -0.166 F 
ENDBRANCH  15  16
ENDBRANCH  10  15
ENDBRANCH   4   7
ENDBRANCH   1   2
BRANCH   1  19
ATOM     19  S   UNL     1      -6.779  -2.875   2.352  0.00  0.00    -0.075 S 
BRANCH  19  28
ATOM     20  C   UNL     1      -2.451   0.994  -2.496  0.00  0.00    +0.066 C 
ATOM     21  C   UNL     1      -3.003   0.489  -1.188  0.00  0.00    +0.047 A 
ATOM     22  C   UNL     1      -2.462   0.945   0.019  0.00  0.00    +0.006 A 
ATOM     23  C   UNL     1      -2.972   0.485   1.191  0.00  0.00    +0.049 A 
ATOM     24  N   UNL     1      -3.993  -0.411   1.159  0.00  0.00    -0.200 N 
ATOM     25  C   UNL     1      -4.495  -0.841  -0.037  0.00  0.00    +0.254 A 
ATOM     26  N   UNL     1      -3.987  -0.383  -1.186  0.00  0.00    -0.216 NA
ATOM     27  N   UNL     1      -5.471  -1.703   0.230  0.00  0.00    -0.183 NA
ATOM     28  C   UNL     1      -5.606  -1.835   1.548  0.00  0.00    +0.211 A 
ATOM     29  N   UNL     1      -4.726  -1.066   2.158  0.00  0.00    -0.137 NA
ATOM     30  C   UNL     1      -2.415   0.963   2.507  0.00  0.00    +0.066 C 
BRANCH  22  31
ATOM     31  C   UNL     1      -1.329   1.940   0.019  0.00  0.00    +0.163 C 
BRANCH  31  32
ATOM     32  C   UNL     1      -0.014   1.204   0.009  0.00  0.00    +0.360 C 
ATOM     33  O   UNL     1       0.002  -0.004   0.002  0.00  0.00    -0.246 OA
ATOM     34  O   UNL     1       1.139   1.891   0.001  0.00  0.00    -0.246 OA
ENDBRANCH  31  32
ENDBRANCH  22  31
ENDBRANCH  19  28
ENDBRANCH   1  19
TORSDOF 9
