REMARK  Name = ZINC36066250
REMARK  14 active torsions:
REMARK  status: ('A' for Active; 'I' for Inactive)
REMARK    1  A    between atoms: C_1  and  C_2
REMARK    2  A    between atoms: C_2  and  N_3
REMARK    3  A    between atoms: N_3  and  C_4
REMARK    4  A    between atoms: N_3  and  C_6
REMARK    5  A    between atoms: C_4  and  C_5
REMARK    6  A    between atoms: C_6  and  C_7
REMARK    7  A    between atoms: C_7  and  N_8
REMARK    8  A    between atoms: C_9  and  C_33
REMARK    9  A    between atoms: C_17  and  C_23
REMARK   10  A    between atoms: N_25  and  C_26
REMARK   11  A    between atoms: C_30  and  C_32
REMARK   12  A    between atoms: N_35  and  C_36
REMARK   13  A    between atoms: C_41  and  C_46
REMARK   14  A    between atoms: C_43  and  C_45
REMARK                            x       y       z     vdW  Elec       q    Type
REMARK                         _______ _______ _______ _____ _____    ______ ____
ROOT
ATOM      1  N   UNL     1      -3.222  -2.800  -1.002  0.00  0.00    -0.288 N 
ATOM      2  C   UNL     1      -3.135  -3.849  -2.065  0.00  0.00    +0.198 C 
ATOM      3  C   UNL     1      -3.550  -5.079  -1.320  0.00  0.00    +0.127 C 
ATOM      4  C   UNL     1      -5.031  -5.095  -0.988  0.00  0.00    +0.009 C 
ATOM      5  C   UNL     1      -5.244  -6.234  -0.346  0.00  0.00    +0.004 C 
ATOM      6  C   UNL     1      -3.862  -6.890  -0.233  0.00  0.00    +0.155 C 
ATOM      7  O   UNL     1      -3.220  -6.437  -1.497  0.00  0.00    -0.358 OA
ATOM      8  C   UNL     1      -3.158  -5.995   0.859  0.00  0.00    +0.123 C 
ATOM      9  C   UNL     1      -2.738  -4.797   0.007  0.00  0.00    +0.128 C 
ATOM     10  C   UNL     1      -3.085  -3.383   0.235  0.00  0.00    +0.223 C 
ATOM     11  O   UNL     1      -3.224  -2.838   1.309  0.00  0.00    -0.275 OA
ENDROOT
BRANCH   8  12
ATOM     12  C   UNL     1      -4.128  -5.599   1.942  0.00  0.00    +0.224 C 
ATOM     13  O   UNL     1      -4.378  -4.428   2.135  0.00  0.00    -0.275 OA
ATOM     14  N   UNL     1      -4.718  -6.547   2.697  0.00  0.00    -0.285 N 
ATOM     15  H   UNL     1      -4.471  -7.478   2.587  0.00  0.00    +0.155 HD
BRANCH  14  16
ATOM     16  C   UNL     1      -5.688  -6.187   3.640  0.00  0.00    +0.034 A 
ATOM     17  C   UNL     1      -6.770  -7.024   3.879  0.00  0.00    +0.023 A 
ATOM     18  C   UNL     1      -7.725  -6.666   4.810  0.00  0.00    +0.002 A 
ATOM     19  C   UNL     1      -7.605  -5.475   5.503  0.00  0.00    +0.003 A 
ATOM     20  C   UNL     1      -6.529  -4.640   5.268  0.00  0.00    -0.049 A 
ATOM     21  C   UNL     1      -5.567  -4.995   4.342  0.00  0.00    +0.026 A 
ATOM     22  C   UNL     1      -6.402  -3.343   6.025  0.00  0.00    +0.044 C 
ENDBRANCH  14  16
ENDBRANCH   8  12
BRANCH   2  23
ATOM     23  C   UNL     1      -1.724  -3.980  -2.579  0.00  0.00    +0.237 C 
ATOM     24  O   UNL     1      -0.798  -3.550  -1.924  0.00  0.00    -0.274 OA
ATOM     25  N   UNL     1      -1.491  -4.576  -3.765  0.00  0.00    -0.311 N 
ATOM     26  H   UNL     1      -2.231  -4.921  -4.288  0.00  0.00    +0.149 HD
BRANCH  25  27
ATOM     27  C   UNL     1      -0.119  -4.704  -4.263  0.00  0.00    +0.076 C 
ATOM     28  C   UNL     1       0.278  -3.421  -4.996  0.00  0.00    +0.022 C 
ATOM     29  C   UNL     1       1.711  -3.554  -5.517  0.00  0.00    +0.002 C 
ATOM     30  C   UNL     1       1.795  -4.739  -6.481  0.00  0.00    +0.003 C 
ATOM     31  C   UNL     1       1.397  -6.022  -5.749  0.00  0.00    -0.009 C 
ATOM     32  C   UNL     1      -0.035  -5.889  -5.228  0.00  0.00    +0.009 C 
ATOM     33  C   UNL     1      -0.986  -5.658  -6.404  0.00  0.00    +0.009 C 
ATOM     34  C   UNL     1       1.481  -7.207  -6.713  0.00  0.00    +0.008 C 
ENDBRANCH  25  27
ENDBRANCH   2  23
BRANCH   1  35
ATOM     35  C   UNL     1      -3.417  -1.368  -1.243  0.00  0.00    +0.090 C 
BRANCH  35  36
ATOM     36  C   UNL     1      -2.056  -0.686  -1.399  0.00  0.00    -0.060 C 
BRANCH  36  37
ATOM     37  N   UNL     1      -2.253   0.723  -1.762  0.00  0.00    +0.380 N 
ATOM     38  H   UNL     1      -2.822   0.780  -2.593  0.00  0.00    -0.082 HD
BRANCH  37  40
ATOM     39  C   UNL     1      -3.241   2.859  -1.086  0.00  0.00    -0.017 C 
ATOM     40  C   UNL     1      -2.924   1.424  -0.660  0.00  0.00    -0.082 C 
ENDBRANCH  37  40
BRANCH  37  41
ATOM     41  C   UNL     1      -0.949   1.349  -2.019  0.00  0.00    -0.082 C 
ATOM     42  C   UNL     1      -0.315   0.718  -3.260  0.00  0.00    -0.017 C 
ENDBRANCH  37  41
ENDBRANCH  36  37
ENDBRANCH  35  36
ENDBRANCH   1  35
TORSDOF 9
