REMARK  Name = ZINC20716125
REMARK  9 active torsions:
REMARK  status: ('A' for Active; 'I' for Inactive)
REMARK    1  A    between atoms: C_1  and  C_2
REMARK    2  A    between atoms: C_2  and  C_3
REMARK    3  A    between atoms: C_2  and  C_4
REMARK    4  A    between atoms: C_4  and  C_5
REMARK    5  A    between atoms: C_5  and  C_7
REMARK    6  A    between atoms: C_5  and  N_11
REMARK    7  A    between atoms: C_7  and  O_9
REMARK    8  A    between atoms: O_9  and  C_10
REMARK    9  A    between atoms: C_23  and  C_25
REMARK                            x       y       z     vdW  Elec       q    Type
REMARK                         _______ _______ _______ _____ _____    ______ ____
ROOT
ATOM      1  N   UNL     1      -2.415   1.011  -3.291  0.00  0.00    -0.286 N 
ATOM      2  C   UNL     1      -2.417   1.693  -2.129  0.00  0.00    +0.304 C 
ATOM      3  O   UNL     1      -2.413   1.093  -1.071  0.00  0.00    -0.253 OA
ATOM      4  N   UNL     1      -2.425   3.041  -2.138  0.00  0.00    -0.273 N 
ATOM      5  C   UNL     1      -2.311   3.805  -0.887  0.00  0.00    +0.116 C 
ATOM      6  C   UNL     1      -1.006   4.610  -0.905  0.00  0.00    +0.076 C 
ATOM      7  C   UNL     1      -0.864   5.278  -2.249  0.00  0.00    +0.066 A 
ATOM      8  C   UNL     1      -1.543   4.912  -3.358  0.00  0.00    +0.064 A 
ATOM      9  N   UNL     1      -1.147   5.737  -4.364  0.00  0.00    -0.346 N 
ATOM     10  H   UNL     1      -1.459   5.718  -5.283  0.00  0.00    +0.167 HD
ATOM     11  C   UNL     1      -0.237   6.590  -3.840  0.00  0.00    +0.197 A 
ATOM     12  N   UNL     1      -0.075   6.307  -2.574  0.00  0.00    -0.240 NA
ATOM     13  C   UNL     1      -2.541   3.788  -3.405  0.00  0.00    +0.159 C 
ATOM     14  H   UNL     1      -2.488   1.487  -4.133  0.00  0.00    +0.151 HD
ENDROOT
BRANCH  13  15
ATOM     15  C   UNL     1      -3.933   4.348  -3.543  0.00  0.00    +0.017 A 
ATOM     16  C   UNL     1      -4.115   5.643  -3.990  0.00  0.00    +0.047 A 
ATOM     17  C   UNL     1      -5.394   6.158  -4.119  0.00  0.00    +0.124 A 
ATOM     18  C   UNL     1      -6.490   5.376  -3.799  0.00  0.00    +0.041 A 
ATOM     19  C   UNL     1      -6.309   4.081  -3.352  0.00  0.00    +0.041 A 
ATOM     20  C   UNL     1      -5.030   3.564  -3.229  0.00  0.00    +0.129 A 
ATOM     21  F   UNL     1      -4.852   2.296  -2.797  0.00  0.00    -0.205 F 
ATOM     22  F   UNL     1      -5.571   7.424  -4.555  0.00  0.00    -0.205 F 
ENDBRANCH  13  15
BRANCH   1  23
ATOM     23  C   UNL     1      -2.301  -0.450  -3.283  0.00  0.00    +0.183 C 
BRANCH  23  24
ATOM     24  C   UNL     1      -0.847  -0.840  -3.217  0.00  0.00    +0.327 C 
ATOM     25  O   UNL     1       0.007   0.014  -3.181  0.00  0.00    -0.249 OA
BRANCH  24  26
ATOM     26  O   UNL     1      -0.500  -2.137  -3.199  0.00  0.00    -0.467 OA
ATOM     27  C   UNL     1       0.896  -2.434  -3.136  0.00  0.00    +0.280 C 
ENDBRANCH  24  26
ENDBRANCH  23  24
BRANCH  23  28
ATOM     28  C   UNL     1      -2.924  -1.017  -4.560  0.00  0.00    +0.036 C 
BRANCH  28  30
ATOM     29  C   UNL     1      -5.010  -1.118  -5.932  0.00  0.00    +0.007 C 
ATOM     30  C   UNL     1      -4.418  -0.686  -4.589  0.00  0.00    -0.015 C 
ATOM     31  C   UNL     1      -5.127  -1.431  -3.456  0.00  0.00    +0.007 C 
ENDBRANCH  28  30
ENDBRANCH  23  28
ENDBRANCH   1  23
TORSDOF 6
