REMARK  Name = ZINC20561960
REMARK  15 active torsions:
REMARK  status: ('A' for Active; 'I' for Inactive)
REMARK    1  A    between atoms: C_1  and  C_2
REMARK    2  A    between atoms: C_2  and  C_3
REMARK    3  A    between atoms: C_3  and  C_5
REMARK    4  A    between atoms: C_3  and  O_6
REMARK    5  A    between atoms: O_6  and  C_7
REMARK    6  A    between atoms: C_7  and  C_9
REMARK    7  A    between atoms: C_10  and  C_37
REMARK    8  A    between atoms: C_14  and  C_16
REMARK    9  A    between atoms: C_19  and  O_23
REMARK   10  A    between atoms: C_20  and  O_22
REMARK   11  A    between atoms: O_23  and  C_24
REMARK   12  A    between atoms: C_27  and  C_33
REMARK   13  A    between atoms: C_29  and  C_32
REMARK   14  A    between atoms: C_33  and  O_35
REMARK   15  A    between atoms: O_35  and  C_36
REMARK                            x       y       z     vdW  Elec       q    Type
REMARK                         _______ _______ _______ _____ _____    ______ ____
ROOT
ATOM      1  C   UNL     1       1.099  -0.668  -0.401  0.00  0.00    +0.065 C 
ATOM      2  C   UNL     1       0.002  -0.004   0.002  0.00  0.00    +0.016 C 
ATOM      3  N   UNL     1      -0.017   1.363   0.009  0.00  0.00    -0.321 N 
ATOM      4  C   UNL     1       1.152   2.076   0.002  0.00  0.00    +0.016 C 
ATOM      5  C   UNL     1       2.303   1.501  -0.407  0.00  0.00    +0.025 C 
ATOM      6  C   UNL     1       2.326   0.063  -0.862  0.00  0.00    +0.092 C 
ATOM      7  C   UNL     1       3.509   2.223  -0.424  0.00  0.00    +0.176 C 
ATOM      8  O   UNL     1       4.529   1.672  -0.786  0.00  0.00    -0.291 OA
ATOM      9  C   UNL     1       3.559   3.666  -0.001  0.00  0.00    +0.171 C 
ATOM     10  C   UNL     1       2.196   4.312  -0.274  0.00  0.00    +0.013 C 
ATOM     11  C   UNL     1       1.122   3.511   0.465  0.00  0.00    +0.055 C 
ATOM     12  C   UNL     1       1.912   4.297  -1.778  0.00  0.00    +0.009 C 
ATOM     13  C   UNL     1      -1.215  -0.772   0.449  0.00  0.00    +0.061 C 
ATOM     14  H   UNL     1      -0.977   1.900   0.021  0.00  0.00    +0.152 HD
ENDROOT
BRANCH   6  15
ATOM     15  C   UNL     1       2.391   0.021  -2.367  0.00  0.00    -0.032 A 
ATOM     16  C   UNL     1       1.367   0.570  -3.117  0.00  0.00    +0.008 A 
ATOM     17  C   UNL     1       1.422   0.534  -4.498  0.00  0.00    +0.050 A 
ATOM     18  C   UNL     1       2.505  -0.053  -5.133  0.00  0.00    +0.161 A 
ATOM     19  C   UNL     1       3.536  -0.605  -4.378  0.00  0.00    +0.159 A 
ATOM     20  C   UNL     1       3.477  -0.561  -2.994  0.00  0.00    +0.053 A 
BRANCH  19  21
ATOM     21  O   UNL     1       4.601  -1.181  -4.997  0.00  0.00    -0.503 OA
ATOM     22  H   UNL     1       5.415  -1.617  -4.399  0.00  0.00    +0.292 HD
ENDBRANCH  19  21
BRANCH  18  23
ATOM     23  O   UNL     1       2.561  -0.089  -6.491  0.00  0.00    -0.491 OA
ATOM     24  C   UNL     1       1.468   0.497  -7.201  0.00  0.00    +0.277 C 
ENDBRANCH  18  23
ENDBRANCH   6  15
BRANCH   1  25
ATOM     25  C   UNL     1       1.097  -2.082  -0.391  0.00  0.00    +0.338 C 
ATOM     26  O   UNL     1       0.108  -2.687  -0.020  0.00  0.00    -0.245 OA
BRANCH  25  27
ATOM     27  O   UNL     1       2.192  -2.761  -0.793  0.00  0.00    -0.458 OA
BRANCH  27  28
ATOM     28  C   UNL     1       2.119  -4.188  -0.758  0.00  0.00    +0.173 C 
ATOM     29  C   UNL     1       1.591  -4.706  -2.097  0.00  0.00    +0.052 C 
BRANCH  28  31
ATOM     30  C   UNL     1       3.990  -4.347   0.891  0.00  0.00    +0.007 C 
ATOM     31  C   UNL     1       3.514  -4.763  -0.502  0.00  0.00    +0.041 C 
ENDBRANCH  28  31
ENDBRANCH  27  28
ENDBRANCH  25  27
ENDBRANCH   1  25
BRANCH   9  32
ATOM     32  C   UNL     1       4.626   4.385  -0.785  0.00  0.00    +0.318 C 
ATOM     33  O   UNL     1       4.332   5.324  -1.486  0.00  0.00    -0.250 OA
BRANCH  32  34
ATOM     34  O   UNL     1       5.904   3.981  -0.706  0.00  0.00    -0.467 OA
ATOM     35  C   UNL     1       6.879   4.719  -1.488  0.00  0.00    +0.280 C 
ENDBRANCH  32  34
ENDBRANCH   9  32
TORSDOF 9
