REMARK  Name = ZINC36849529
REMARK  8 active torsions:
REMARK  status: ('A' for Active; 'I' for Inactive)
REMARK    1  A    between atoms: C_1  and  C_2
REMARK    2  A    between atoms: C_2  and  N_9
REMARK    3  A    between atoms: C_10  and  C_12
REMARK    4  A    between atoms: C_12  and  S_13
REMARK    5  A    between atoms: S_13  and  C_14
REMARK    6  A    between atoms: N_19  and  C_20
REMARK    7  A    between atoms: C_23  and  S_26
REMARK    8  A    between atoms: S_26  and  C_27
REMARK                            x       y       z     vdW  Elec       q    Type
REMARK                         _______ _______ _______ _____ _____    ______ ____
ROOT
ATOM      1  C   UNL     1      -6.411  -0.231  -1.742  0.00  0.00    +0.160 A 
ATOM      2  N   UNL     1      -6.811  -1.157  -0.892  0.00  0.00    -0.133 NA
ATOM      3  N   UNL     1      -8.055  -1.726  -1.036  0.00  0.00    -0.125 NA
ATOM      4  C   UNL     1      -8.841  -1.344  -2.023  0.00  0.00    +0.187 A 
ATOM      5  S   UNL     1      -7.828  -0.109  -2.822  0.00  0.00    -0.024 S 
ATOM      6  N   UNL     1     -10.120  -1.781  -2.350  0.00  0.00    -0.292 N 
ATOM      7  H   UNL     1     -10.546  -1.468  -3.163  0.00  0.00    +0.154 HD
ENDROOT
BRANCH   6   8
ATOM      8  C   UNL     1     -10.792  -2.674  -1.506  0.00  0.00    +0.033 A 
ATOM      9  C   UNL     1     -11.761  -3.523  -2.025  0.00  0.00    +0.024 A 
ATOM     10  C   UNL     1     -12.423  -4.404  -1.193  0.00  0.00    +0.017 A 
ATOM     11  C   UNL     1     -12.120  -4.441   0.162  0.00  0.00    +0.013 A 
ATOM     12  C   UNL     1     -11.151  -3.591   0.680  0.00  0.00    +0.017 A 
ATOM     13  C   UNL     1     -10.485  -2.714  -0.152  0.00  0.00    +0.024 A 
BRANCH  11  14
ATOM     14  S   UNL     1     -12.966  -5.564   1.224  0.00  0.00    -0.056 S 
BRANCH  14  15
ATOM     15  C   UNL     1     -12.246  -5.249   2.859  0.00  0.00    +0.404 C 
ATOM     16  F   UNL     1     -10.870  -5.497   2.818  0.00  0.00    -0.197 F 
ATOM     17  F   UNL     1     -12.469  -3.915   3.218  0.00  0.00    -0.197 F 
ENDBRANCH  14  15
ENDBRANCH  11  14
ENDBRANCH   6   8
BRANCH   1  18
ATOM     18  S   UNL     1      -4.888   0.655  -1.794  0.00  0.00    -0.088 S 
BRANCH  18  19
ATOM     19  C   UNL     1      -3.949  -0.004  -0.389  0.00  0.00    +0.172 C 
BRANCH  19  21
ATOM     20  N   UNL     1      -1.734   0.347   0.654  0.00  0.00    -0.308 N 
ATOM     21  C   UNL     1      -2.607   0.678  -0.318  0.00  0.00    +0.224 C 
ATOM     22  O   UNL     1      -2.313   1.526  -1.134  0.00  0.00    -0.275 OA
ATOM     23  H   UNL     1      -1.969  -0.331   1.307  0.00  0.00    +0.149 HD
BRANCH  20  25
ATOM     24  C   UNL     1      -0.654   2.514   0.889  0.00  0.00    +0.033 C 
ATOM     25  C   UNL     1      -0.429   1.010   0.724  0.00  0.00    +0.052 C 
ATOM     26  C   UNL     1       0.310   0.767  -0.591  0.00  0.00    +0.049 C 
ATOM     27  C   UNL     1       1.847   0.789  -0.357  0.00  0.00    +0.168 C 
ATOM     28  S   UNL     1       1.925  -0.102   1.259  0.00  0.00    -0.029 S 
ATOM     29  O   UNL     1       1.847  -1.501   1.026  0.00  0.00    -0.174 OA
ATOM     30  O   UNL     1       2.996   0.424   2.031  0.00  0.00    -0.174 OA
ATOM     31  C   UNL     1       0.326   0.485   1.960  0.00  0.00    +0.191 C 
ENDBRANCH  20  25
ENDBRANCH  19  21
ENDBRANCH  18  19
ENDBRANCH   1  18
TORSDOF 7
