REMARK  Name = ZINC39477601
REMARK  7 active torsions:
REMARK  status: ('A' for Active; 'I' for Inactive)
REMARK    1  A    between atoms: C_1  and  C_2
REMARK    2  A    between atoms: C_5  and  N_26
REMARK    3  A    between atoms: C_7  and  N_8
REMARK    4  A    between atoms: C_9  and  C_11
REMARK    5  A    between atoms: C_11  and  O_12
REMARK    6  A    between atoms: O_12  and  C_13
REMARK    7  A    between atoms: C_23  and  C_25
REMARK                            x       y       z     vdW  Elec       q    Type
REMARK                         _______ _______ _______ _____ _____    ______ ____
ROOT
ATOM      1  C   UNL     1      -0.169   0.052   4.882  0.00  0.00    +0.324 C 
ENDROOT
BRANCH   1   3
ATOM      2  N   UNL     1       0.025  -0.015   2.417  0.00  0.00    -0.282 N 
ATOM      3  C   UNL     1      -0.057  -0.694   3.578  0.00  0.00    +0.255 C 
ATOM      4  O   UNL     1      -0.040  -1.907   3.573  0.00  0.00    -0.272 OA
ATOM      5  H   UNL     1       0.077   0.954   2.425  0.00  0.00    +0.155 HD
BRANCH   2  12
ATOM      6  C   UNL     1      -1.265   1.183   0.181  0.00  0.00    +0.045 C 
ATOM      7  C   UNL     1      -0.584  -0.158   0.084  0.00  0.00    -0.029 A 
ATOM      8  C   UNL     1      -0.569  -0.841  -1.117  0.00  0.00    +0.007 A 
ATOM      9  C   UNL     1       0.056  -2.071  -1.206  0.00  0.00    +0.033 A 
ATOM     10  C   UNL     1       0.667  -2.622  -0.095  0.00  0.00    +0.128 A 
ATOM     11  C   UNL     1       0.656  -1.944   1.109  0.00  0.00    +0.056 A 
ATOM     12  C   UNL     1       0.034  -0.706   1.201  0.00  0.00    +0.039 A 
BRANCH  10  13
ATOM     13  N   UNL     1       1.334  -3.940  -0.195  0.00  0.00    +0.056 N 
ATOM     14  O   UNL     1       1.344  -4.534  -1.248  0.00  0.00    -0.126 OA
ATOM     15  O   UNL     1       1.868  -4.422   0.776  0.00  0.00    -0.126 OA
ENDBRANCH  10  13
ENDBRANCH   2  12
ENDBRANCH   1   3
BRANCH   1  16
ATOM     16  O   UNL     1      -0.240  -0.882   5.961  0.00  0.00    -0.482 OA
BRANCH  16  17
ATOM     17  C   UNL     1      -0.345  -0.369   7.215  0.00  0.00    +0.131 A 
ATOM     18  C   UNL     1      -0.383   0.982   7.397  0.00  0.00    +0.063 A 
ATOM     19  C   UNL     1      -0.489   1.529   8.658  0.00  0.00    +0.044 A 
ATOM     20  C   UNL     1      -0.563   0.731   9.821  0.00  0.00    +0.093 A 
ATOM     21  C   UNL     1      -0.522  -0.664   9.608  0.00  0.00    +0.049 A 
ATOM     22  C   UNL     1      -0.421  -1.245   8.338  0.00  0.00    +0.033 A 
ATOM     23  C   UNL     1      -0.401  -2.703   8.336  0.00  0.00    +0.020 A 
ATOM     24  C   UNL     1      -0.482  -3.362   9.501  0.00  0.00    +0.046 A 
ATOM     25  S   UNL     1      -0.581  -2.055  10.709  0.00  0.00    -0.094 S 
ATOM     26  N   UNL     1      -0.664   1.408  10.984  0.00  0.00    -0.243 NA
ATOM     27  C   UNL     1      -0.691   2.711  11.045  0.00  0.00    +0.076 A 
ATOM     28  S   UNL     1      -0.568   3.173   9.323  0.00  0.00    -0.072 S 
ATOM     29  C   UNL     1      -0.800   3.600  12.257  0.00  0.00    +0.073 C 
ENDBRANCH  16  17
ENDBRANCH   1  16
TORSDOF 5
