REMARK  Name = ZINC12383185
REMARK  6 active torsions:
REMARK  status: ('A' for Active; 'I' for Inactive)
REMARK    1  A    between atoms: C_1  and  C_2
REMARK    2  A    between atoms: C_2  and  C_4
REMARK    3  A    between atoms: C_2  and  N_14
REMARK    4  A    between atoms: C_15  and  C_17
REMARK    5  A    between atoms: N_22  and  S_23
REMARK    6  A    between atoms: S_23  and  C_26
REMARK                            x       y       z     vdW  Elec       q    Type
REMARK                         _______ _______ _______ _____ _____    ______ ____
ROOT
ATOM      1  N   UNL     1      -3.253   7.857  -2.304  0.00  0.00    -0.311 N 
ATOM      2  C   UNL     1      -3.451   6.658  -1.720  0.00  0.00    +0.232 C 
ATOM      3  O   UNL     1      -4.096   6.581  -0.696  0.00  0.00    -0.274 OA
ATOM      4  H   UNL     1      -2.737   7.918  -3.123  0.00  0.00    +0.149 HD
ENDROOT
BRANCH   2   5
ATOM      5  C   UNL     1      -2.870   5.413  -2.340  0.00  0.00    +0.165 C 
ATOM      6  C   UNL     1      -3.472   5.193  -3.744  0.00  0.00    +0.031 C 
ATOM      7  C   UNL     1      -3.653   3.653  -3.809  0.00  0.00    +0.019 C 
ATOM      8  C   UNL     1      -4.033   3.323  -2.344  0.00  0.00    +0.110 C 
ATOM      9  N   UNL     1      -3.219   4.240  -1.526  0.00  0.00    -0.165 NA
BRANCH   9  10
ATOM     10  S   UNL     1      -2.776   3.993   0.050  0.00  0.00    +0.062 S 
ATOM     11  O   UNL     1      -3.732   3.101   0.606  0.00  0.00    -0.153 OA
ATOM     12  O   UNL     1      -2.517   5.275   0.605  0.00  0.00    -0.153 OA
BRANCH  10  13
ATOM     13  C   UNL     1      -1.238   3.133   0.030  0.00  0.00    +0.106 A 
ATOM     14  C   UNL     1      -1.219   1.751   0.017  0.00  0.00    +0.030 A 
ATOM     15  C   UNL     1      -0.013   1.076   0.008  0.00  0.00    +0.022 A 
ATOM     16  C   UNL     1       1.176   1.784   0.000  0.00  0.00    +0.041 A 
ATOM     17  C   UNL     1       1.156   3.167   0.007  0.00  0.00    +0.022 A 
ATOM     18  C   UNL     1      -0.050   3.841   0.022  0.00  0.00    +0.030 A 
ATOM     19 CL   UNL     1       2.691   0.937  -0.019  0.00  0.00    -0.084 Cl
ENDBRANCH  10  13
ENDBRANCH   9  10
ENDBRANCH   2   5
BRANCH   1  21
ATOM     20  C   UNL     1      -2.863   9.596  -0.629  0.00  0.00    +0.028 C 
ATOM     21  C   UNL     1      -3.818   9.067  -1.701  0.00  0.00    +0.076 C 
BRANCH  21  22
ATOM     22  C   UNL     1      -4.012  10.132  -2.782  0.00  0.00    -0.010 C 
ATOM     23  C   UNL     1      -4.967   9.603  -3.854  0.00  0.00    +0.012 C 
ATOM     24  C   UNL     1      -5.161  10.669  -4.935  0.00  0.00    -0.010 C 
ATOM     25  C   UNL     1      -5.750  11.932  -4.305  0.00  0.00    +0.007 C 
ATOM     26  C   UNL     1      -4.795  12.461  -3.233  0.00  0.00    -0.010 C 
ATOM     27  C   UNL     1      -4.601  11.396  -2.152  0.00  0.00    +0.012 C 
ATOM     28  C   UNL     1      -3.445  12.792  -3.872  0.00  0.00    +0.007 C 
ATOM     29  C   UNL     1      -2.855  11.528  -4.501  0.00  0.00    -0.010 C 
ATOM     30  C   UNL     1      -3.810  10.999  -5.573  0.00  0.00    +0.007 C 
ATOM     31  C   UNL     1      -2.661  10.463  -3.420  0.00  0.00    +0.012 C 
ENDBRANCH  21  22
ENDBRANCH   1  21
TORSDOF 5
