REMARK  Name = ZINC39867653
REMARK  7 active torsions:
REMARK  status: ('A' for Active; 'I' for Inactive)
REMARK    1  A    between atoms: C_9  and  C_11
REMARK    2  A    between atoms: C_13  and  C_22
REMARK    3  A    between atoms: C_22  and  C_23
REMARK    4  A    between atoms: C_23  and  C_24
REMARK    5  A    between atoms: C_24  and  C_25
REMARK    6  A    between atoms: N_27  and  C_28
REMARK    7  A    between atoms: C_33  and  N_34
REMARK                            x       y       z     vdW  Elec       q    Type
REMARK                         _______ _______ _______ _____ _____    ______ ____
ROOT
ATOM      1  C   UNL     1       4.994  -2.555  -0.048  0.00  0.00    +0.069 A 
ATOM      2  H   UNL     1       4.610  -4.420   0.818  0.00  0.00    +0.166 HD
ATOM      3  C   UNL     1       6.133  -2.002  -0.538  0.00  0.00    -0.013 A 
ATOM      4  C   UNL     1       7.192  -2.995  -0.376  0.00  0.00    +0.006 A 
ATOM      5  C   UNL     1       8.556  -3.012  -0.683  0.00  0.00    +0.048 A 
ATOM      6  C   UNL     1       9.305  -4.132  -0.396  0.00  0.00    +0.124 A 
ATOM      7  C   UNL     1       8.712  -5.242   0.196  0.00  0.00    +0.040 A 
ATOM      8  C   UNL     1       7.369  -5.239   0.504  0.00  0.00    +0.029 A 
ATOM      9  C   UNL     1       6.593  -4.119   0.224  0.00  0.00    +0.047 A 
ATOM     10  N   UNL     1       5.262  -3.823   0.417  0.00  0.00    -0.353 N 
ATOM     11  F   UNL     1      10.623  -4.153  -0.692  0.00  0.00    -0.205 F 
ENDROOT
BRANCH   1  20
ATOM     12  C   UNL     1      -0.019   1.357   0.095  0.00  0.00    +0.001 A 
ATOM     13  C   UNL     1       1.166   2.089   0.074  0.00  0.00    +0.002 A 
ATOM     14  C   UNL     1       2.375   1.466   0.042  0.00  0.00    +0.028 A 
ATOM     15  C   UNL     1       2.436   0.060   0.030  0.00  0.00    +0.072 A 
ATOM     16  C   UNL     1       1.228  -0.682   0.052  0.00  0.00    +0.000 A 
ATOM     17  C   UNL     1      -0.001  -0.004   0.084  0.00  0.00    +0.010 A 
ATOM     18  C   UNL     1       1.286  -2.090   0.040  0.00  0.00    +0.012 A 
ATOM     19  C   UNL     1       2.511  -2.687   0.007  0.00  0.00    +0.030 A 
ATOM     20  C   UNL     1       3.673  -1.896  -0.013  0.00  0.00    +0.088 A 
ATOM     21  N   UNL     1       3.609  -0.576  -0.001  0.00  0.00    -0.245 NA
ENDBRANCH   1  20
BRANCH   3  22
ATOM     22  C   UNL     1       6.276  -0.626  -1.135  0.00  0.00    +0.038 C 
BRANCH  22  23
ATOM     23  C   UNL     1       6.626   0.375  -0.033  0.00  0.00    +0.014 C 
BRANCH  23  24
ATOM     24  C   UNL     1       6.772   1.772  -0.640  0.00  0.00    +0.096 C 
BRANCH  24  25
ATOM     25  C   UNL     1       7.117   2.758   0.447  0.00  0.00    +0.217 C 
ATOM     26  O   UNL     1       7.234   2.380   1.593  0.00  0.00    -0.275 OA
ATOM     27  N   UNL     1       7.294   4.059   0.144  0.00  0.00    -0.284 N 
ATOM     28  H   UNL     1       7.280   4.348  -0.782  0.00  0.00    +0.155 HD
BRANCH  27  29
ATOM     29  C   UNL     1       7.500   4.994   1.166  0.00  0.00    +0.068 A 
ATOM     30  C   UNL     1       7.021   4.742   2.445  0.00  0.00    +0.075 A 
ATOM     31  C   UNL     1       7.225   5.666   3.455  0.00  0.00    +0.168 A 
ATOM     32  C   UNL     1       7.909   6.850   3.186  0.00  0.00    +0.169 A 
ATOM     33  C   UNL     1       8.385   7.098   1.909  0.00  0.00    +0.084 A 
ATOM     34  C   UNL     1       8.186   6.171   0.902  0.00  0.00    +0.151 A 
ATOM     35  O   UNL     1       7.977   7.585   4.335  0.00  0.00    -0.453 OA
ATOM     36  C   UNL     1       6.975   7.029   5.207  0.00  0.00    +0.466 C 
ATOM     37  O   UNL     1       6.864   5.661   4.772  0.00  0.00    -0.453 OA
BRANCH  34  38
ATOM     38  N   UNL     1       8.701   6.438  -0.460  0.00  0.00    +0.058 N 
ATOM     39  O   UNL     1       9.376   7.419  -0.670  0.00  0.00    -0.126 OA
ATOM     40  O   UNL     1       8.448   5.674  -1.362  0.00  0.00    -0.126 OA
ENDBRANCH  34  38
ENDBRANCH  27  29
ENDBRANCH  24  25
ENDBRANCH  23  24
ENDBRANCH  22  23
ENDBRANCH   3  22
TORSDOF 7
