REMARK  Name = ZINC38815577
REMARK  4 active torsions:
REMARK  status: ('A' for Active; 'I' for Inactive)
REMARK    1  A    between atoms: C_4  and  C_7
REMARK    2  A    between atoms: C_9  and  C_26
REMARK    3  A    between atoms: N_14  and  N_15
REMARK    4  A    between atoms: C_16  and  C_17
REMARK                            x       y       z     vdW  Elec       q    Type
REMARK                         _______ _______ _______ _____ _____    ______ ____
ROOT
ATOM      1  C   UNL     1       3.603  -0.809  -0.026  0.00  0.00    +0.129 C 
ATOM      2  C   UNL     1       3.973  -1.249  -1.469  0.00  0.00    +0.111 C 
ATOM      3  S   UNL     1       3.467  -3.018  -1.349  0.00  0.00    -0.081 S 
ATOM      4  C   UNL     1       3.507  -3.164   0.430  0.00  0.00    +0.149 C 
ATOM      5  N   UNL     1       3.588  -1.946   0.876  0.00  0.00    -0.358 N 
ATOM      6  N   UNL     1       3.461  -4.326   1.174  0.00  0.00    -0.217 N 
ATOM      7  H   UNL     1       3.489  -4.283   2.143  0.00  0.00    +0.176 HD
ATOM      8  H   UNL     1       3.638  -1.795   1.833  0.00  0.00    +0.162 HD
ENDROOT
BRANCH   1  12
ATOM      9  C   UNL     1      -0.263   1.007  -0.064  0.00  0.00    +0.000 A 
ATOM     10  C   UNL     1       0.870   1.790  -0.187  0.00  0.00    +0.000 A 
ATOM     11  C   UNL     1       2.121   1.202  -0.175  0.00  0.00    +0.006 A 
ATOM     12  C   UNL     1       2.240  -0.168  -0.039  0.00  0.00    -0.024 A 
ATOM     13  C   UNL     1       1.107  -0.951   0.086  0.00  0.00    +0.006 A 
ATOM     14  C   UNL     1      -0.144  -0.363   0.072  0.00  0.00    +0.000 A 
ENDBRANCH   1  12
BRANCH   2  15
ATOM     15  C   UNL     1       3.162  -0.507  -2.500  0.00  0.00    -0.032 A 
ATOM     16  C   UNL     1       3.721   0.555  -3.187  0.00  0.00    +0.005 A 
ATOM     17  C   UNL     1       2.977   1.235  -4.132  0.00  0.00    +0.000 A 
ATOM     18  C   UNL     1       1.674   0.853  -4.392  0.00  0.00    +0.000 A 
ATOM     19  C   UNL     1       1.115  -0.209  -3.707  0.00  0.00    +0.000 A 
ATOM     20  C   UNL     1       1.861  -0.892  -2.764  0.00  0.00    +0.005 A 
ENDBRANCH   2  15
BRANCH   6  21
ATOM     21  N   UNL     1       3.374  -5.567   0.530  0.00  0.00    -0.189 NA
ATOM     22  C   UNL     1       3.330  -6.670   1.237  0.00  0.00    +0.136 C 
BRANCH  22  23
ATOM     23  C   UNL     1       3.243  -7.910   0.594  0.00  0.00    +0.000 C 
ATOM     24  C   UNL     1       3.182  -9.169   1.192  0.00  0.00    +0.004 A 
ATOM     25  C   UNL     1       3.187  -9.584   2.541  0.00  0.00    +0.010 A 
ATOM     26  C   UNL     1       3.116 -10.907   2.839  0.00  0.00    +0.001 A 
ATOM     27  C   UNL     1       3.036 -11.879   1.838  0.00  0.00    +0.002 A 
ATOM     28  C   UNL     1       3.026 -11.552   0.523  0.00  0.00    +0.026 A 
ATOM     29  C   UNL     1       3.098 -10.189   0.134  0.00  0.00    +0.043 A 
ATOM     30  N   UNL     1       3.105  -9.621  -1.055  0.00  0.00    -0.380 N 
ATOM     31  C   UNL     1       3.188  -8.166  -0.897  0.00  0.00    +0.150 C 
ATOM     32  H   UNL     1       3.059 -10.092  -1.902  0.00  0.00    +0.160 HD
ENDBRANCH  22  23
ENDBRANCH   6  21
TORSDOF 4
