REMARK  Name = ZINC43414220
REMARK  6 active torsions:
REMARK  status: ('A' for Active; 'I' for Inactive)
REMARK    1  A    between atoms: C_1  and  N_2
REMARK    2  A    between atoms: N_2  and  C_3
REMARK    3  A    between atoms: N_11  and  C_12
REMARK    4  A    between atoms: C_12  and  C_13
REMARK    5  A    between atoms: C_13  and  C_19
REMARK    6  A    between atoms: C_19  and  C_20
REMARK                            x       y       z     vdW  Elec       q    Type
REMARK                         _______ _______ _______ _____ _____    ______ ____
ROOT
ATOM      1  C   UNL     1       0.336   1.633  -0.076  0.00  0.00    +0.134 C 
ATOM      2  N   UNL     1       0.282   0.170  -0.020  0.00  0.00    -0.285 N 
ATOM      3  C   UNL     1       0.174  -0.545  -1.157  0.00  0.00    +0.302 C 
ATOM      4  O   UNL     1       0.130  -1.759  -1.111  0.00  0.00    -0.253 OA
ATOM      5  N   UNL     1       0.116   0.087  -2.347  0.00  0.00    -0.299 N 
ATOM      6  H   UNL     1       0.152   1.055  -2.384  0.00  0.00    +0.150 HD
ENDROOT
BRANCH   2   7
ATOM      7  C   UNL     1       0.345  -0.517   1.273  0.00  0.00    +0.088 C 
ATOM      8  C   UNL     1      -0.869  -0.108   2.105  0.00  0.00    +0.034 C 
ATOM      9  C   UNL     1      -0.537  -0.189   3.621  0.00  0.00    +0.071 C 
ATOM     10  S   UNL     1       1.189   0.468   3.593  0.00  0.00    -0.159 S 
ATOM     11  C   UNL     1       1.690  -0.178   1.947  0.00  0.00    +0.091 C 
ENDBRANCH   2   7
BRANCH   5  12
ATOM     12  C   UNL     1      -0.001  -0.690  -3.583  0.00  0.00    +0.113 C 
BRANCH  12  13
ATOM     13  C   UNL     1      -0.185   0.262  -4.768  0.00  0.00    -0.003 C 
ATOM     14  C   UNL     1      -0.359  -0.551  -6.052  0.00  0.00    +0.009 C 
ATOM     15  C   UNL     1       0.881  -1.416  -6.281  0.00  0.00    +0.001 C 
ATOM     16  C   UNL     1       2.113  -0.518  -6.409  0.00  0.00    +0.000 C 
ATOM     17  C   UNL     1       2.288   0.294  -5.124  0.00  0.00    +0.001 C 
ATOM     18  C   UNL     1       1.047   1.160  -4.896  0.00  0.00    +0.009 C 
BRANCH  13  19
ATOM     19  C   UNL     1      -1.425   1.127  -4.539  0.00  0.00    +0.133 C 
BRANCH  19  20
ATOM     20  C   UNL     1      -1.642   2.021  -5.733  0.00  0.00    +0.357 C 
ATOM     21  O   UNL     1      -0.818   2.048  -6.631  0.00  0.00    -0.246 OA
ATOM     22  O   UNL     1      -2.640   2.716  -5.801  0.00  0.00    -0.246 OA
ENDBRANCH  19  20
ENDBRANCH  13  19
ENDBRANCH  12  13
ENDBRANCH   5  12
TORSDOF 5
