REMARK  Name = ZINC21517370
REMARK  8 active torsions:
REMARK  status: ('A' for Active; 'I' for Inactive)
REMARK    1  A    between atoms: C_1  and  C_2
REMARK    2  A    between atoms: C_2  and  C_3
REMARK    3  A    between atoms: C_3  and  C_5
REMARK    4  A    between atoms: C_3  and  N_13
REMARK    5  A    between atoms: C_10  and  O_11
REMARK    6  A    between atoms: N_13  and  C_14
REMARK    7  A    between atoms: C_17  and  C_21
REMARK    8  A    between atoms: C_19  and  C_20
REMARK                            x       y       z     vdW  Elec       q    Type
REMARK                         _______ _______ _______ _____ _____    ______ ____
ROOT
ATOM      1  C   UNL     1       1.227  -2.186  -0.021  0.00  0.00    +0.104 C 
ENDROOT
BRANCH   1   2
ATOM      2  C   UNL     1       1.207  -0.679  -0.013  0.00  0.00    +0.015 A 
ATOM      3  C   UNL     1       0.002  -0.004   0.002  0.00  0.00    +0.024 A 
ATOM      4  C   UNL     1      -0.017   1.379   0.010  0.00  0.00    +0.018 A 
ATOM      5  C   UNL     1       1.171   2.089   0.002  0.00  0.00    +0.019 A 
ATOM      6  C   UNL     1       2.378   1.418  -0.013  0.00  0.00    +0.047 A 
ATOM      7  C   UNL     1       2.399   0.030  -0.020  0.00  0.00    +0.122 A 
ATOM      8 BR   UNL     1      -1.668   2.301   0.022  0.00  0.00    -0.050 Br
BRANCH   7   9
ATOM      9  O   UNL     1       3.586  -0.632  -0.034  0.00  0.00    -0.506 OA
ATOM     10  H   UNL     1       4.530  -0.069  -0.040  0.00  0.00    +0.292 HD
ENDBRANCH   7   9
ENDBRANCH   1   2
BRANCH   1  12
ATOM     11  C   UNL     1       1.518  -4.225   1.393  0.00  0.00    +0.006 C 
ATOM     12  C   UNL     1       1.373  -2.702   1.412  0.00  0.00    +0.024 C 
ENDBRANCH   1  12
BRANCH   1  13
ATOM     13  N   UNL     1      -0.024  -2.688  -0.596  0.00  0.00    -0.337 N 
ATOM     14  H   UNL     1      -0.932  -2.069  -0.560  0.00  0.00    +0.147 HD
BRANCH  13  15
ATOM     15  C   UNL     1      -0.062  -3.952  -1.190  0.00  0.00    +0.031 A 
ATOM     16  C   UNL     1       1.087  -4.732  -1.241  0.00  0.00    +0.023 A 
ATOM     17  C   UNL     1       1.044  -5.983  -1.825  0.00  0.00    +0.005 A 
ATOM     18  C   UNL     1      -0.137  -6.455  -2.367  0.00  0.00    -0.050 A 
ATOM     19  C   UNL     1      -1.281  -5.679  -2.322  0.00  0.00    +0.008 A 
ATOM     20  C   UNL     1      -1.246  -4.429  -1.735  0.00  0.00    -0.029 A 
ATOM     21  C   UNL     1      -2.493  -3.584  -1.687  0.00  0.00    +0.045 C 
ATOM     22  C   UNL     1      -0.178  -7.818  -3.009  0.00  0.00    +0.044 C 
ENDBRANCH  13  15
ENDBRANCH   1  13
TORSDOF 5
