REMARK  Name = ZINC11374999
REMARK  7 active torsions:
REMARK  status: ('A' for Active; 'I' for Inactive)
REMARK    1  A    between atoms: C_1  and  C_2
REMARK    2  A    between atoms: C_11  and  S_19
REMARK    3  A    between atoms: N_12  and  C_13
REMARK    4  A    between atoms: C_13  and  C_14
REMARK    5  A    between atoms: S_19  and  C_20
REMARK    6  A    between atoms: C_20  and  C_21
REMARK    7  A    between atoms: N_27  and  C_28
REMARK                            x       y       z     vdW  Elec       q    Type
REMARK                         _______ _______ _______ _____ _____    ______ ____
ROOT
ATOM      1  S   UNL     1      -5.467   0.847  -1.384  0.00  0.00    -0.078 S 
ENDROOT
BRANCH   1  12
ATOM      2  C   UNL     1     -13.805  -3.359  -2.937  0.00  0.00    +0.007 C 
ATOM      3  C   UNL     1     -12.685  -2.735  -2.102  0.00  0.00    -0.011 C 
ATOM      4  C   UNL     1     -11.406  -3.560  -2.263  0.00  0.00    +0.022 C 
ATOM      5  C   UNL     1     -10.274  -2.897  -1.475  0.00  0.00    +0.108 C 
ATOM      6  N   UNL     1     -10.063  -1.532  -1.974  0.00  0.00    -0.300 N 
ATOM      7  C   UNL     1     -11.263  -0.707  -1.786  0.00  0.00    +0.108 C 
ATOM      8  C   UNL     1     -12.425  -1.305  -2.584  0.00  0.00    +0.022 C 
ATOM      9  C   UNL     1      -8.958  -0.947  -1.370  0.00  0.00    +0.221 A 
ATOM     10  N   UNL     1      -8.766  -0.811  -0.081  0.00  0.00    -0.112 NA
ATOM     11  N   UNL     1      -7.533  -0.173   0.109  0.00  0.00    -0.121 NA
ATOM     12  C   UNL     1      -7.013   0.061  -1.071  0.00  0.00    +0.194 A 
ATOM     13  N   UNL     1      -7.882  -0.407  -2.016  0.00  0.00    -0.283 N 
BRANCH  13  14
ATOM     14  C   UNL     1      -7.692  -0.343  -3.467  0.00  0.00    +0.201 C 
BRANCH  14  15
ATOM     15  C   UNL     1      -6.885  -1.532  -3.921  0.00  0.00    +0.125 A 
ATOM     16  C   UNL     1      -7.383  -2.723  -4.298  0.00  0.00    +0.046 A 
ATOM     17  C   UNL     1      -6.280  -3.538  -4.644  0.00  0.00    +0.041 A 
ATOM     18  C   UNL     1      -5.174  -2.798  -4.450  0.00  0.00    +0.195 A 
ATOM     19  O   UNL     1      -5.546  -1.584  -4.012  0.00  0.00    -0.466 OA
ENDBRANCH  14  15
ENDBRANCH  13  14
ENDBRANCH   1  12
BRANCH   1  20
ATOM     20  C   UNL     1      -4.824   1.225   0.270  0.00  0.00    +0.153 C 
BRANCH  20  21
ATOM     21  C   UNL     1      -3.487   1.909   0.145  0.00  0.00    +0.146 A 
ATOM     22  N   UNL     1      -3.426   3.226   0.061  0.00  0.00    -0.199 NA
ATOM     23  C   UNL     1      -2.247   3.834  -0.049  0.00  0.00    +0.217 A 
ATOM     24  N   UNL     1      -1.131   3.115  -0.074  0.00  0.00    -0.181 NA
ATOM     25  C   UNL     1      -1.196   1.790   0.010  0.00  0.00    +0.224 A 
ATOM     26  N   UNL     1      -2.379   1.189   0.115  0.00  0.00    -0.198 NA
ATOM     27  N   UNL     1      -0.038   1.038  -0.016  0.00  0.00    -0.284 N 
ATOM     28  N   UNL     1      -2.184   5.210  -0.136  0.00  0.00    -0.327 N 
ATOM     29  H   UNL     1      -0.080   0.079   0.124  0.00  0.00    +0.155 HD
ATOM     30  H   UNL     1      -1.325   5.652  -0.215  0.00  0.00    +0.145 HD
ATOM     31  H   UNL     1      -3.000   5.735  -0.117  0.00  0.00    +0.145 HD
BRANCH  27  32
ATOM     32  C   UNL     1       1.195   1.658  -0.250  0.00  0.00    +0.034 A 
ATOM     33  C   UNL     1       1.282   2.714  -1.147  0.00  0.00    +0.026 A 
ATOM     34  C   UNL     1       2.499   3.329  -1.372  0.00  0.00    +0.040 A 
ATOM     35  C   UNL     1       3.632   2.885  -0.712  0.00  0.00    +0.124 A 
ATOM     36  C   UNL     1       3.548   1.828   0.179  0.00  0.00    +0.040 A 
ATOM     37  C   UNL     1       2.333   1.215   0.411  0.00  0.00    +0.026 A 
ATOM     38  F   UNL     1       4.822   3.484  -0.938  0.00  0.00    -0.205 F 
ENDBRANCH  27  32
ENDBRANCH  20  21
ENDBRANCH   1  20
TORSDOF 6
