REMARK  Name = ZINC32480243
REMARK  8 active torsions:
REMARK  status: ('A' for Active; 'I' for Inactive)
REMARK    1  A    between atoms: C_1  and  C_2
REMARK    2  A    between atoms: C_7  and  C_9
REMARK    3  A    between atoms: C_7  and  C_10
REMARK    4  A    between atoms: N_13  and  C_17
REMARK    5  A    between atoms: C_17  and  C_18
REMARK    6  A    between atoms: N_20  and  C_21
REMARK    7  A    between atoms: C_21  and  C_22
REMARK    8  A    between atoms: C_22  and  C_23
REMARK                            x       y       z     vdW  Elec       q    Type
REMARK                         _______ _______ _______ _____ _____    ______ ____
ROOT
ATOM      1  C   UNL     1      -0.019   1.528   0.010  0.00  0.00    +0.007 C 
ATOM      2  C   UNL     1       0.002  -0.004   0.002  0.00  0.00    -0.011 C 
ATOM      3  C   UNL     1       0.726  -0.492  -1.255  0.00  0.00    +0.038 C 
ATOM      4  C   UNL     1       0.711  -2.014  -1.298  0.00  0.00    +0.113 C 
ATOM      5  C   UNL     1       1.264  -2.646  -0.036  0.00  0.00    +0.041 C 
ATOM      6  C   UNL     1       0.787  -2.030   1.268  0.00  0.00    -0.032 C 
ATOM      7  C   UNL     1       0.764  -0.507   1.226  0.00  0.00    +0.009 C 
ATOM      8  C   UNL     1      -0.596  -2.567   1.647  0.00  0.00    +0.011 C 
ATOM      9  C   UNL     1       1.769  -2.455   2.382  0.00  0.00    +0.011 C 
ATOM     10  C   UNL     1      -0.665  -2.529  -1.638  0.00  0.00    +0.247 C 
ATOM     11  O   UNL     1      -1.716  -2.282  -1.086  0.00  0.00    -0.273 OA
ATOM     12  N   UNL     1      -0.504  -3.320  -2.721  0.00  0.00    -0.215 N 
ATOM     13  C   UNL     1       0.750  -3.268  -3.183  0.00  0.00    +0.310 C 
ATOM     14  O   UNL     1       1.137  -3.883  -4.158  0.00  0.00    -0.252 OA
ATOM     15  N   UNL     1       1.532  -2.462  -2.446  0.00  0.00    -0.285 N 
ATOM     16  H   UNL     1       2.452  -2.214  -2.618  0.00  0.00    +0.151 HD
ENDROOT
BRANCH  12  17
ATOM     17  C   UNL     1      -1.571  -4.131  -3.313  0.00  0.00    +0.213 C 
BRANCH  17  18
ATOM     18  C   UNL     1      -2.293  -3.324  -4.361  0.00  0.00    +0.231 C 
ATOM     19  O   UNL     1      -1.950  -2.184  -4.591  0.00  0.00    -0.274 OA
ATOM     20  N   UNL     1      -3.319  -3.870  -5.043  0.00  0.00    -0.314 N 
ATOM     21  H   UNL     1      -3.593  -4.782  -4.859  0.00  0.00    +0.149 HD
BRANCH  20  22
ATOM     22  C   UNL     1      -4.021  -3.085  -6.062  0.00  0.00    +0.109 C 
BRANCH  22  23
ATOM     23  C   UNL     1      -5.135  -3.933  -6.681  0.00  0.00    +0.056 C 
BRANCH  23  24
ATOM     24  C   UNL     1      -5.857  -3.126  -7.729  0.00  0.00    -0.011 A 
ATOM     25  C   UNL     1      -7.008  -2.436  -7.399  0.00  0.00    +0.006 A 
ATOM     26  C   UNL     1      -7.671  -1.696  -8.360  0.00  0.00    +0.000 A 
ATOM     27  C   UNL     1      -7.182  -1.644  -9.652  0.00  0.00    +0.003 A 
ATOM     28  C   UNL     1      -6.031  -2.332  -9.984  0.00  0.00    +0.038 A 
ATOM     29  C   UNL     1      -5.364  -3.070  -9.021  0.00  0.00    +0.127 A 
ATOM     30  F   UNL     1      -4.235  -3.739  -9.343  0.00  0.00    -0.205 F 
ENDBRANCH  23  24
ENDBRANCH  22  23
ENDBRANCH  20  22
ENDBRANCH  17  18
ENDBRANCH  12  17
TORSDOF 5
