REMARK  Name = ZINC20991857
REMARK  7 active torsions:
REMARK  status: ('A' for Active; 'I' for Inactive)
REMARK    1  A    between atoms: C_1  and  C_2
REMARK    2  A    between atoms: C_6  and  C_14
REMARK    3  A    between atoms: C_12  and  C_13
REMARK    4  A    between atoms: C_14  and  S_15
REMARK    5  A    between atoms: S_15  and  C_16
REMARK    6  A    between atoms: C_19  and  C_22
REMARK    7  A    between atoms: N_20  and  N_21
REMARK                            x       y       z     vdW  Elec       q    Type
REMARK                         _______ _______ _______ _____ _____    ______ ____
ROOT
ATOM      1  C   UNL     1      -2.427  -2.832   1.408  0.00  0.00    +0.209 A 
ATOM      2  N   UNL     1      -2.465  -3.430   0.237  0.00  0.00    -0.121 NA
ATOM      3  N   UNL     1      -2.697  -4.684   0.390  0.00  0.00    -0.127 NA
ATOM      4  C   UNL     1      -2.831  -4.964   1.666  0.00  0.00    +0.183 A 
ATOM      5  N   UNL     1      -2.662  -3.786   2.357  0.00  0.00    -0.224 N 
ENDROOT
BRANCH   4   6
ATOM      6  C   UNL     1      -3.110  -6.293   2.249  0.00  0.00    +0.040 A 
ATOM      7  C   UNL     1      -4.099  -6.437   3.224  0.00  0.00    +0.033 A 
ATOM      8  C   UNL     1      -4.355  -7.681   3.765  0.00  0.00    +0.042 A 
ATOM      9  C   UNL     1      -3.632  -8.784   3.343  0.00  0.00    +0.021 A 
ATOM     10  C   UNL     1      -2.651  -8.649   2.378  0.00  0.00    +0.022 A 
ATOM     11  C   UNL     1      -2.389  -7.411   1.825  0.00  0.00    +0.052 A 
ATOM     12 CL   UNL     1      -1.162  -7.244   0.608  0.00  0.00    -0.083 Cl
ATOM     13 CL   UNL     1      -5.585  -7.862   4.977  0.00  0.00    -0.084 Cl
ENDBRANCH   4   6
BRANCH   5  14
ATOM     14  N   UNL     1      -2.719  -3.608   3.710  0.00  0.00    -0.295 N 
ATOM     15  H   UNL     1      -2.917  -4.465   4.370  0.00  0.00    +0.163 HD
ATOM     16  H   UNL     1      -2.565  -2.607   4.139  0.00  0.00    +0.163 HD
ENDBRANCH   5  14
BRANCH   1  17
ATOM     17  S   UNL     1      -2.134  -1.119   1.698  0.00  0.00    -0.080 S 
BRANCH  17  18
ATOM     18  C   UNL     1      -1.919  -0.545  -0.005  0.00  0.00    +0.113 C 
BRANCH  18  24
ATOM     19  C   UNL     1       3.691   3.013   0.298  0.00  0.00    +0.044 C 
ATOM     20  C   UNL     1       2.287   2.470   0.221  0.00  0.00    -0.044 A 
ATOM     21  C   UNL     1       2.081   1.098   0.224  0.00  0.00    +0.004 A 
ATOM     22  C   UNL     1       0.815   0.588   0.155  0.00  0.00    +0.012 A 
ATOM     23  C   UNL     1      -0.279   1.454   0.076  0.00  0.00    +0.022 A 
ATOM     24  C   UNL     1      -1.649   0.938  -0.005  0.00  0.00    -0.020 A 
ATOM     25  C   UNL     1      -2.667   1.832  -0.080  0.00  0.00    +0.097 A 
ATOM     26  C   UNL     1      -2.388   3.216  -0.078  0.00  0.00    +0.338 A 
ATOM     27  O   UNL     1      -3.311   4.007  -0.145  0.00  0.00    -0.245 OA
ATOM     28  O   UNL     1      -1.132   3.681   0.008  0.00  0.00    -0.422 OA
ATOM     29  C   UNL     1      -0.074   2.845   0.079  0.00  0.00    +0.142 A 
ATOM     30  C   UNL     1       1.221   3.342   0.150  0.00  0.00    -0.005 A 
ATOM     31  C   UNL     1       1.461   4.830   0.149  0.00  0.00    +0.048 C 
ENDBRANCH  18  24
ENDBRANCH  17  18
ENDBRANCH   1  17
TORSDOF 5
