REMARK  Name = ZINC08411201
REMARK  13 active torsions:
REMARK  status: ('A' for Active; 'I' for Inactive)
REMARK    1  A    between atoms: C_1  and  C_2
REMARK    2  A    between atoms: C_2  and  O_3
REMARK    3  A    between atoms: O_3  and  C_4
REMARK    4  A    between atoms: C_4  and  C_6
REMARK    5  A    between atoms: C_7  and  C_38
REMARK    6  A    between atoms: C_9  and  S_20
REMARK    7  A    between atoms: C_10  and  C_18
REMARK    8  A    between atoms: C_11  and  C_13
REMARK    9  A    between atoms: S_20  and  C_21
REMARK   10  A    between atoms: C_21  and  C_22
REMARK   11  A    between atoms: N_24  and  C_25
REMARK   12  A    between atoms: C_25  and  C_27
REMARK   13  A    between atoms: C_25  and  C_28
REMARK                            x       y       z     vdW  Elec       q    Type
REMARK                         _______ _______ _______ _____ _____    ______ ____
ROOT
ATOM      1  C   UNL     1      -1.280   2.928  -0.324  0.00  0.00    +0.155 C 
ATOM      2  C   UNL     1      -1.205   1.632   0.017  0.00  0.00    +0.032 C 
ATOM      3  N   UNL     1      -0.011   0.966   0.008  0.00  0.00    -0.248 NA
ATOM      4  C   UNL     1       1.173   1.669  -0.000  0.00  0.00    +0.111 C 
ATOM      5  C   UNL     1       1.192   2.982  -0.359  0.00  0.00    +0.070 C 
ATOM      6  C   UNL     1      -0.067   3.702  -0.751  0.00  0.00    +0.088 C 
ATOM      7  C   UNL     1      -2.460   0.899   0.417  0.00  0.00    +0.061 C 
ENDROOT
BRANCH   6   8
ATOM      8  C   UNL     1      -0.092   3.877  -2.248  0.00  0.00    -0.001 A 
ATOM      9  C   UNL     1      -0.140   5.021  -2.973  0.00  0.00    +0.012 A 
ATOM     10  C   UNL     1      -0.154   4.941  -4.353  0.00  0.00    +0.008 A 
ATOM     11  C   UNL     1      -0.120   3.720  -4.940  0.00  0.00    +0.045 A 
ATOM     12  S   UNL     1      -0.059   2.631  -3.526  0.00  0.00    -0.101 S 
ENDBRANCH   6   8
BRANCH   1  13
ATOM     13  C   UNL     1      -2.534   3.579  -0.285  0.00  0.00    +0.317 C 
ATOM     14  O   UNL     1      -3.528   2.966   0.059  0.00  0.00    -0.250 OA
BRANCH  13  15
ATOM     15  O   UNL     1      -2.629   4.880  -0.630  0.00  0.00    -0.464 OA
BRANCH  15  17
ATOM     16  C   UNL     1      -3.837   6.942  -0.991  0.00  0.00    +0.048 C 
ATOM     17  C   UNL     1      -3.927   5.475  -0.567  0.00  0.00    +0.229 C 
ENDBRANCH  15  17
ENDBRANCH  13  15
ENDBRANCH   1  13
BRANCH   5  18
ATOM     18  C   UNL     1       2.436   3.692  -0.357  0.00  0.00    +0.098 C 
ATOM     19  N   UNL     1       3.423   4.255  -0.355  0.00  0.00    -0.191 NA
ENDBRANCH   5  18
BRANCH   4  20
ATOM     20  S   UNL     1       2.674   0.858   0.443  0.00  0.00    -0.096 S 
BRANCH  20  21
ATOM     21  C   UNL     1       2.043  -0.803   0.789  0.00  0.00    +0.171 C 
BRANCH  21  22
ATOM     22  C   UNL     1       3.184  -1.698   1.200  0.00  0.00    +0.223 C 
ATOM     23  O   UNL     1       4.313  -1.256   1.253  0.00  0.00    -0.275 OA
ATOM     24  N   UNL     1       2.951  -2.989   1.508  0.00  0.00    -0.312 N 
ATOM     25  H   UNL     1       2.049  -3.342   1.465  0.00  0.00    +0.149 HD
BRANCH  24  26
ATOM     26  C   UNL     1       4.060  -3.858   1.907  0.00  0.00    +0.076 C 
ATOM     27  C   UNL     1       4.319  -3.700   3.407  0.00  0.00    +0.028 C 
BRANCH  26  28
ATOM     28  C   UNL     1       3.702  -5.314   1.602  0.00  0.00    -0.010 C 
ATOM     29  C   UNL     1       3.444  -5.473   0.103  0.00  0.00    +0.012 C 
ATOM     30  C   UNL     1       3.086  -6.929  -0.202  0.00  0.00    -0.010 C 
ATOM     31  C   UNL     1       4.244  -7.837   0.215  0.00  0.00    +0.007 C 
ATOM     32  C   UNL     1       4.502  -7.679   1.715  0.00  0.00    -0.010 C 
ATOM     33  C   UNL     1       4.860  -6.223   2.019  0.00  0.00    +0.012 C 
ATOM     34  C   UNL     1       3.243  -8.068   2.493  0.00  0.00    +0.007 C 
ATOM     35  C   UNL     1       2.085  -7.159   2.076  0.00  0.00    -0.010 C 
ATOM     36  C   UNL     1       1.827  -7.318   0.576  0.00  0.00    +0.007 C 
ATOM     37  C   UNL     1       2.443  -5.703   2.380  0.00  0.00    +0.012 C 
ENDBRANCH  26  28
ENDBRANCH  24  26
ENDBRANCH  21  22
ENDBRANCH  20  21
ENDBRANCH   4  20
TORSDOF 10
