REMARK  Name = ZINC42026137
REMARK  4 active torsions:
REMARK  status: ('A' for Active; 'I' for Inactive)
REMARK    1  A    between atoms: C_1  and  C_2
REMARK    2  A    between atoms: C_9  and  C_11
REMARK    3  A    between atoms: N_13  and  N_14
REMARK    4  A    between atoms: C_15  and  C_17
REMARK                            x       y       z     vdW  Elec       q    Type
REMARK                         _______ _______ _______ _____ _____    ______ ____
ROOT
ATOM      1  C   UNL     1       1.931  -5.253   2.755  0.00  0.00    +0.267 C 
ATOM      2  O   UNL     1       2.878  -4.985   3.471  0.00  0.00    -0.268 OA
ATOM      3  N   UNL     1       1.541  -6.534   2.604  0.00  0.00    -0.230 N 
ATOM      4  H   UNL     1       0.786  -6.747   2.033  0.00  0.00    +0.173 HD
ENDROOT
BRANCH   1  12
ATOM      5  C   UNL     1      -0.019   1.526   0.010  0.00  0.00    +0.008 C 
ATOM      6  C   UNL     1       0.002  -0.004   0.002  0.00  0.00    -0.009 C 
ATOM      7  C   UNL     1      -1.435  -0.533   0.009  0.00  0.00    +0.009 C 
ATOM      8  C   UNL     1      -1.408  -2.041  -0.272  0.00  0.00    +0.043 C 
ATOM      9  C   UNL     1      -0.377  -2.671   0.618  0.00  0.00    -0.006 A 
ATOM     10  C   UNL     1       0.604  -2.027   1.313  0.00  0.00    -0.036 A 
ATOM     11  C   UNL     1       1.449  -2.818   2.077  0.00  0.00    +0.024 A 
ATOM     12  C   UNL     1       1.214  -4.181   2.058  0.00  0.00    +0.076 A 
ATOM     13  S   UNL     1      -0.189  -4.294   0.963  0.00  0.00    -0.088 S 
ATOM     14  C   UNL     1       0.745  -0.509   1.239  0.00  0.00    +0.039 C 
ENDBRANCH   1  12
BRANCH   3  15
ATOM     15  N   UNL     1       2.227  -7.558   3.270  0.00  0.00    -0.230 N 
ATOM     16  C   UNL     1       1.837  -8.839   3.119  0.00  0.00    +0.266 C 
ATOM     17  O   UNL     1       0.891  -9.106   2.404  0.00  0.00    -0.268 OA
ATOM     18  H   UNL     1       2.982  -7.345   3.841  0.00  0.00    +0.173 HD
BRANCH  16  19
ATOM     19  C   UNL     1       2.559  -9.918   3.821  0.00  0.00    +0.108 A 
ATOM     20  C   UNL     1       2.153 -10.321   5.098  0.00  0.00    +0.138 A 
ATOM     21  C   UNL     1       2.835 -11.332   5.748  0.00  0.00    +0.039 A 
ATOM     22  C   UNL     1       3.916 -11.945   5.140  0.00  0.00    +0.006 A 
ATOM     23  C   UNL     1       4.324 -11.552   3.878  0.00  0.00    +0.039 A 
ATOM     24  C   UNL     1       3.649 -10.547   3.211  0.00  0.00    +0.138 A 
ATOM     25  F   UNL     1       4.046 -10.170   1.976  0.00  0.00    -0.205 F 
ATOM     26  F   UNL     1       1.098  -9.723   5.693  0.00  0.00    -0.205 F 
ENDBRANCH  16  19
ENDBRANCH   3  15
TORSDOF 3
