REMARK  Name = ZINC36249690
REMARK  15 active torsions:
REMARK  status: ('A' for Active; 'I' for Inactive)
REMARK    1  A    between atoms: C_1  and  C_2
REMARK    2  A    between atoms: C_2  and  C_3
REMARK    3  A    between atoms: C_3  and  C_5
REMARK    4  A    between atoms: C_3  and  N_6
REMARK    5  A    between atoms: N_6  and  C_7
REMARK    6  A    between atoms: N_6  and  C_26
REMARK    7  A    between atoms: C_7  and  C_8
REMARK    8  A    between atoms: C_9  and  C_19
REMARK    9  A    between atoms: C_12  and  N_13
REMARK   10  A    between atoms: C_26  and  C_27
REMARK   11  A    between atoms: C_27  and  C_29
REMARK   12  A    between atoms: C_27  and  O_37
REMARK   13  A    between atoms: C_29  and  O_30
REMARK   14  A    between atoms: O_30  and  C_31
REMARK   15  A    between atoms: C_31  and  C_32
REMARK                            x       y       z     vdW  Elec       q    Type
REMARK                         _______ _______ _______ _____ _____    ______ ____
ROOT
ATOM      1  C   UNL     1       3.044   1.631   0.785  0.00  0.00    -0.035 C 
ENDROOT
BRANCH   1   2
ATOM      2  C   UNL     1       2.758   1.833  -0.681  0.00  0.00    +0.025 A 
ATOM      3  C   UNL     1       3.482   1.270  -1.753  0.00  0.00    +0.117 A 
ATOM      4  N   UNL     1       2.930   1.678  -2.872  0.00  0.00    -0.076 NA
ATOM      5  O   UNL     1       1.836   2.514  -2.541  0.00  0.00    -0.339 OA
ATOM      6  C   UNL     1       1.755   2.584  -1.202  0.00  0.00    +0.222 A 
BRANCH   3   7
ATOM      7  C   UNL     1       4.661   0.376  -1.636  0.00  0.00    +0.004 A 
ATOM      8  C   UNL     1       5.678   0.675  -0.732  0.00  0.00    +0.013 A 
ATOM      9  C   UNL     1       6.772  -0.159  -0.627  0.00  0.00    +0.039 A 
ATOM     10  C   UNL     1       6.859  -1.293  -1.418  0.00  0.00    +0.123 A 
ATOM     11  C   UNL     1       5.850  -1.594  -2.318  0.00  0.00    +0.039 A 
ATOM     12  C   UNL     1       4.750  -0.769  -2.425  0.00  0.00    +0.013 A 
ATOM     13  F   UNL     1       7.932  -2.107  -1.312  0.00  0.00    -0.205 F 
ENDBRANCH   3   7
BRANCH   6  14
ATOM     14  N   UNL     1       0.816   3.298  -0.480  0.00  0.00    -0.295 N 
ATOM     15  C   UNL     1       1.193   4.512   0.262  0.00  0.00    +0.136 C 
ATOM     16  C   UNL     1       0.221   5.634  -0.119  0.00  0.00    +0.179 C 
ATOM     17  O   UNL     1      -1.121   5.173   0.057  0.00  0.00    -0.377 OA
ATOM     18  C   UNL     1      -1.476   4.070  -0.780  0.00  0.00    +0.179 C 
ATOM     19  C   UNL     1      -0.592   2.871  -0.437  0.00  0.00    +0.136 C 
ENDBRANCH   6  14
ENDBRANCH   1   2
BRANCH   1  20
ATOM     20  N   UNL     1       2.938   0.203   1.112  0.00  0.00    +0.386 N 
ATOM     21  H   UNL     1       3.516  -0.331   0.480  0.00  0.00    -0.081 HD
BRANCH  20  22
ATOM     22  C   UNL     1       1.540  -0.228   0.980  0.00  0.00    -0.071 C 
ATOM     23  C   UNL     1       1.241  -0.545  -0.487  0.00  0.00    -0.013 C 
BRANCH  22  25
ATOM     24  C   UNL     1       0.810   1.110   2.960  0.00  0.00    +0.002 C 
ATOM     25  C   UNL     1       0.614   0.893   1.458  0.00  0.00    -0.019 C 
ENDBRANCH  22  25
ENDBRANCH  20  22
BRANCH  20  26
ATOM     26  C   UNL     1       3.390  -0.019   2.492  0.00  0.00    -0.044 C 
BRANCH  26  27
ATOM     27  C   UNL     1       3.621  -1.514   2.720  0.00  0.00    +0.124 C 
BRANCH  27  28
ATOM     28  O   UNL     1       2.365  -2.195   2.720  0.00  0.00    -0.391 OA
ATOM     29  H   UNL     1       1.743  -1.873   3.387  0.00  0.00    +0.210 HD
ENDBRANCH  27  28
BRANCH  27  30
ATOM     30  C   UNL     1       4.316  -1.724   4.067  0.00  0.00    +0.189 C 
BRANCH  30  31
ATOM     31  O   UNL     1       4.636  -3.107   4.227  0.00  0.00    -0.370 OA
BRANCH  31  32
ATOM     32  C   UNL     1       5.292  -3.412   5.460  0.00  0.00    +0.234 C 
BRANCH  32  33
ATOM     33  C   UNL     1       5.581  -4.890   5.522  0.00  0.00    +0.130 A 
ATOM     34  C   UNL     1       6.702  -5.491   5.087  0.00  0.00    +0.047 A 
ATOM     35  C   UNL     1       6.550  -6.874   5.339  0.00  0.00    +0.041 A 
ATOM     36  C   UNL     1       5.345  -7.035   5.914  0.00  0.00    +0.195 A 
ATOM     37  O   UNL     1       4.764  -5.829   6.028  0.00  0.00    -0.465 OA
ENDBRANCH  32  33
ENDBRANCH  31  32
ENDBRANCH  30  31
ENDBRANCH  27  30
ENDBRANCH  26  27
ENDBRANCH  20  26
ENDBRANCH   1  20
TORSDOF 13
