REMARK  Name = ZINC40142617
REMARK  4 active torsions:
REMARK  status: ('A' for Active; 'I' for Inactive)
REMARK    1  A    between atoms: C_1  and  C_2
REMARK    2  A    between atoms: C_2  and  C_3
REMARK    3  A    between atoms: C_4  and  C_23
REMARK    4  A    between atoms: C_9  and  C_11
REMARK                            x       y       z     vdW  Elec       q    Type
REMARK                         _______ _______ _______ _____ _____    ______ ____
ROOT
ATOM      1  C   UNL     1      -1.412  -0.526   0.013  0.00  0.00    +0.053 A 
ATOM      2  C   UNL     1      -2.067  -0.772   1.174  0.00  0.00    +0.011 A 
ATOM      3  S   UNL     1      -3.639  -1.349   0.553  0.00  0.00    -0.057 S 
ATOM      4  C   UNL     1      -3.302  -1.218  -1.091  0.00  0.00    +0.165 A 
ATOM      5  N   UNL     1      -2.070  -0.758  -1.108  0.00  0.00    -0.229 NA
ATOM      6  N   UNL     1      -4.127  -1.518  -2.168  0.00  0.00    -0.262 N 
ATOM      7  C   UNL     1      -5.375  -1.978  -1.953  0.00  0.00    +0.260 C 
ATOM      8  O   UNL     1      -5.778  -2.131  -0.819  0.00  0.00    -0.271 OA
ATOM      9  C   UNL     1      -1.597  -0.606   2.596  0.00  0.00    +0.053 C 
ATOM     10  H   UNL     1      -3.805  -1.395  -3.075  0.00  0.00    +0.157 HD
ENDROOT
BRANCH   7  11
ATOM     11  C   UNL     1      -6.271  -2.304  -3.121  0.00  0.00    +0.266 C 
ATOM     12  C   UNL     1      -5.679  -3.475  -3.905  0.00  0.00    +0.090 C 
ATOM     13  C   UNL     1      -6.669  -3.971  -4.927  0.00  0.00    -0.029 A 
ATOM     14  C   UNL     1      -6.234  -4.700  -6.015  0.00  0.00    +0.004 A 
ATOM     15  C   UNL     1      -7.144  -5.157  -6.952  0.00  0.00    +0.000 A 
ATOM     16  C   UNL     1      -8.494  -4.890  -6.807  0.00  0.00    +0.001 A 
ATOM     17  C   UNL     1      -8.943  -4.162  -5.724  0.00  0.00    +0.015 A 
ATOM     18  C   UNL     1      -8.030  -3.698  -4.780  0.00  0.00    +0.062 A 
ATOM     19  C   UNL     1      -8.487  -2.908  -3.613  0.00  0.00    +0.340 C 
ATOM     20  O   UNL     1      -9.627  -2.498  -3.532  0.00  0.00    -0.245 OA
ATOM     21  O   UNL     1      -7.573  -2.660  -2.640  0.00  0.00    -0.448 OA
ENDBRANCH   7  11
BRANCH   1  23
ATOM     22  C   UNL     1      -0.019   1.526   0.010  0.00  0.00    +0.010 C 
ATOM     23  C   UNL     1       0.002  -0.004   0.002  0.00  0.00    +0.053 C 
ENDBRANCH   1  23
TORSDOF 2
