REMARK  Name = ZINC06244817
REMARK  8 active torsions:
REMARK  status: ('A' for Active; 'I' for Inactive)
REMARK    1  A    between atoms: C_1  and  C_2
REMARK    2  A    between atoms: C_5  and  C_40
REMARK    3  A    between atoms: C_9  and  C_14
REMARK    4  A    between atoms: C_14  and  C_16
REMARK    5  A    between atoms: C_14  and  N_70
REMARK    6  A    between atoms: N_20  and  C_21
REMARK    7  A    between atoms: C_21  and  C_22
REMARK    8  A    between atoms: N_30  and  C_33
REMARK                            x       y       z     vdW  Elec       q    Type
REMARK                         _______ _______ _______ _____ _____    ______ ____
ROOT
ATOM      1  C   UNL     1       2.507   3.775  -0.002  0.00  0.00    +0.039 C 
ENDROOT
BRANCH   1  10
ATOM      2  C   UNL     1      -2.361   5.604  -0.274  0.00  0.00    +0.044 C 
ATOM      3  C   UNL     1      -2.446   4.100  -0.288  0.00  0.00    -0.041 A 
ATOM      4  C   UNL     1      -3.663   3.482  -0.362  0.00  0.00    +0.004 A 
ATOM      5  C   UNL     1      -3.753   2.097  -0.376  0.00  0.00    +0.005 A 
ATOM      6  C   UNL     1      -2.617   1.318  -0.314  0.00  0.00    -0.026 A 
ATOM      7  C   UNL     1      -1.368   1.924  -0.243  0.00  0.00    +0.052 A 
ATOM      8  C   UNL     1      -1.281   3.329  -0.225  0.00  0.00    +0.002 A 
ATOM      9  C   UNL     1       0.039   3.958  -0.144  0.00  0.00    +0.018 A 
ATOM     10  C   UNL     1       1.134   3.160  -0.085  0.00  0.00    +0.011 A 
ATOM     11  C   UNL     1       0.992   1.756  -0.101  0.00  0.00    +0.251 A 
ATOM     12  O   UNL     1       1.989   1.057  -0.047  0.00  0.00    -0.268 OA
ATOM     13  N   UNL     1      -0.216   1.170  -0.175  0.00  0.00    -0.322 N 
ATOM     14  H   UNL     1      -0.278   0.202  -0.184  0.00  0.00    +0.169 HD
ATOM     15  C   UNL     1      -2.729  -0.184  -0.330  0.00  0.00    +0.046 C 
ENDBRANCH   1  10
BRANCH   1  21
ATOM     16  C   UNL     1       4.721   3.760  -0.983  0.00  0.00    -0.058 C 
ATOM     17  C   UNL     1       5.587   3.111  -2.066  0.00  0.00    +0.086 C 
ATOM     18  N   UNL     1       5.005   3.389  -3.386  0.00  0.00    -0.333 N 
ATOM     19  C   UNL     1       3.637   2.861  -3.477  0.00  0.00    +0.086 C 
ATOM     20  C   UNL     1       2.770   3.510  -2.394  0.00  0.00    -0.058 C 
ATOM     21  N   UNL     1       3.354   3.205  -1.071  0.00  0.00    +0.391 N 
ATOM     22  H   UNL     1       3.399   2.186  -0.953  0.00  0.00    -0.080 HD
BRANCH  18  23
ATOM     23  C   UNL     1       5.810   2.872  -4.407  0.00  0.00    +0.030 A 
ATOM     24  C   UNL     1       5.278   1.978  -5.327  0.00  0.00    +0.026 A 
ATOM     25  C   UNL     1       6.073   1.473  -6.337  0.00  0.00    +0.040 A 
ATOM     26  C   UNL     1       7.402   1.849  -6.426  0.00  0.00    +0.124 A 
ATOM     27  C   UNL     1       7.937   2.736  -5.506  0.00  0.00    +0.040 A 
ATOM     28  C   UNL     1       7.144   3.248  -4.498  0.00  0.00    +0.026 A 
ATOM     29  F   UNL     1       8.180   1.350  -7.412  0.00  0.00    -0.205 F 
ENDBRANCH  18  23
ENDBRANCH   1  21
BRANCH   1  30
ATOM     30  C   UNL     1       3.122   3.451   1.335  0.00  0.00    +0.143 A 
ATOM     31  N   UNL     1       3.615   2.296   1.711  0.00  0.00    -0.115 NA
ATOM     32  N   UNL     1       4.047   2.422   2.918  0.00  0.00    -0.023 NA
ATOM     33  N   UNL     1       3.836   3.625   3.325  0.00  0.00    -0.044 NA
ATOM     34  N   UNL     1       3.266   4.290   2.378  0.00  0.00    -0.228 N 
BRANCH  34  35
ATOM     35  C   UNL     1       2.855   5.696   2.427  0.00  0.00    +0.178 C 
BRANCH  35  36
ATOM     36  C   UNL     1       1.417   5.788   2.943  0.00  0.00    +0.140 C 
ATOM     37  C   UNL     1       0.936   7.254   2.890  0.00  0.00    +0.035 C 
ATOM     38  C   UNL     1       0.117   7.380   4.203  0.00  0.00    +0.031 C 
ATOM     39  C   UNL     1       0.924   6.449   5.143  0.00  0.00    +0.160 C 
ATOM     40  O   UNL     1       1.363   5.364   4.310  0.00  0.00    -0.375 OA
ENDBRANCH  35  36
ENDBRANCH  34  35
ENDBRANCH   1  30
TORSDOF 6
