REMARK  Name = ZINC22775547
REMARK  5 active torsions:
REMARK  status: ('A' for Active; 'I' for Inactive)
REMARK    1  A    between atoms: C_1  and  C_2
REMARK    2  A    between atoms: N_11  and  C_15
REMARK    3  A    between atoms: C_15  and  N_16
REMARK    4  A    between atoms: N_19  and  C_22
REMARK    5  A    between atoms: C_22  and  C_23
REMARK                            x       y       z     vdW  Elec       q    Type
REMARK                         _______ _______ _______ _____ _____    ______ ____
ROOT
ATOM      1  N   UNL     1      -0.632   7.391  -3.168  0.00  0.00    -0.284 NA
ATOM      2  C   UNL     1      -1.981   7.819  -2.773  0.00  0.00    +0.101 C 
ATOM      3  C   UNL     1      -2.266   7.344  -1.346  0.00  0.00    +0.100 C 
ATOM      4  N   UNL     1      -2.140   5.881  -1.285  0.00  0.00    -0.296 NA
ATOM      5  C   UNL     1      -0.791   5.454  -1.680  0.00  0.00    +0.100 C 
ATOM      6  C   UNL     1      -0.506   5.928  -3.107  0.00  0.00    +0.101 C 
ENDROOT
BRANCH   1   7
ATOM      7  C   UNL     1      -0.292   7.893  -4.507  0.00  0.00    +0.205 C 
BRANCH   7  17
ATOM      8  C   UNL     1       3.010   9.581  -6.937  0.00  0.00    +0.010 C 
ATOM      9  C   UNL     1       3.891   9.648  -5.688  0.00  0.00    +0.018 C 
ATOM     10  C   UNL     1       3.926  11.086  -5.165  0.00  0.00    +0.006 C 
ATOM     11  C   UNL     1       4.790  11.149  -3.904  0.00  0.00    +0.000 C 
ATOM     12  C   UNL     1       4.191  10.239  -2.829  0.00  0.00    +0.003 C 
ATOM     13  C   UNL     1       4.158   8.798  -3.342  0.00  0.00    +0.035 C 
ATOM     14  C   UNL     1       3.321   8.728  -4.614  0.00  0.00    +0.115 C 
ATOM     15  C   UNL     1       1.882   9.089  -4.325  0.00  0.00    +0.248 C 
ATOM     16  O   UNL     1       1.461  10.144  -3.900  0.00  0.00    -0.273 OA
ATOM     17  N   UNL     1       1.164   7.990  -4.636  0.00  0.00    -0.211 N 
ATOM     18  C   UNL     1       1.947   7.001  -5.084  0.00  0.00    +0.310 C 
ATOM     19  O   UNL     1       1.530   5.913  -5.431  0.00  0.00    -0.252 OA
ATOM     20  N   UNL     1       3.249   7.346  -5.107  0.00  0.00    -0.285 N 
ATOM     21  H   UNL     1       4.168   6.819  -5.403  0.00  0.00    +0.151 HD
ENDBRANCH   7  17
ENDBRANCH   1   7
BRANCH   4  22
ATOM     22  C   UNL     1      -2.480   5.380   0.054  0.00  0.00    +0.120 C 
BRANCH  22  23
ATOM     23  C   UNL     1      -2.720   3.893  -0.013  0.00  0.00    -0.026 A 
ATOM     24  C   UNL     1      -1.788   3.027   0.470  0.00  0.00    +0.005 A 
ATOM     25  C   UNL     1      -1.992   1.650   0.417  0.00  0.00    +0.001 A 
ATOM     26  C   UNL     1      -3.134   1.131  -0.111  0.00  0.00    +0.008 A 
ATOM     27  C   UNL     1      -4.124   1.994  -0.611  0.00  0.00    -0.018 A 
ATOM     28  C   UNL     1      -3.914   3.395  -0.561  0.00  0.00    -0.013 A 
ATOM     29  C   UNL     1      -4.907   4.258  -1.056  0.00  0.00    +0.009 A 
ATOM     30  C   UNL     1      -6.051   3.739  -1.579  0.00  0.00    +0.001 A 
ATOM     31  C   UNL     1      -6.255   2.361  -1.632  0.00  0.00    +0.001 A 
ATOM     32  C   UNL     1      -5.316   1.495  -1.163  0.00  0.00    +0.008 A 
ENDBRANCH  22  23
ENDBRANCH   4  22
TORSDOF 4
