REMARK  Name = ZINC05367518
REMARK  10 active torsions:
REMARK  status: ('A' for Active; 'I' for Inactive)
REMARK    1  A    between atoms: C_1  and  C_2
REMARK    2  A    between atoms: C_2  and  O_3
REMARK    3  A    between atoms: O_3  and  C_4
REMARK    4  A    between atoms: C_5  and  O_26
REMARK    5  A    between atoms: C_7  and  C_11
REMARK    6  A    between atoms: C_11  and  O_13
REMARK    7  A    between atoms: O_13  and  C_14
REMARK    8  A    between atoms: C_14  and  C_15
REMARK    9  A    between atoms: C_15  and  C_17
REMARK   10  A    between atoms: O_26  and  C_27
REMARK                            x       y       z     vdW  Elec       q    Type
REMARK                         _______ _______ _______ _____ _____    ______ ____
ROOT
ATOM      1  C   UNL     1       7.448  -2.907   3.928  0.00  0.00    +0.340 C 
ATOM      2  O   UNL     1       6.826  -3.948   4.000  0.00  0.00    -0.245 OA
ENDROOT
BRANCH   1   6
ATOM      3  C   UNL     1      11.404  -2.682   5.463  0.00  0.00    +0.180 A 
ATOM      4  C   UNL     1      10.694  -3.878   5.548  0.00  0.00    +0.164 A 
ATOM      5  C   UNL     1       9.406  -3.953   5.055  0.00  0.00    +0.064 A 
ATOM      6  C   UNL     1       8.821  -2.831   4.461  0.00  0.00    +0.064 A 
ATOM      7  C   UNL     1       9.538  -1.634   4.379  0.00  0.00    +0.039 A 
ATOM      8  C   UNL     1      10.822  -1.565   4.878  0.00  0.00    +0.087 A 
ATOM      9 CL   UNL     1      11.712  -0.077   4.775  0.00  0.00    -0.080 Cl
BRANCH   4  10
ATOM     10  O   UNL     1      11.267  -4.970   6.120  0.00  0.00    -0.491 OA
ATOM     11  C   UNL     1      10.482  -6.163   6.173  0.00  0.00    +0.277 C 
ENDBRANCH   4  10
BRANCH   3  12
ATOM     12  O   UNL     1      12.668  -2.608   5.954  0.00  0.00    -0.487 OA
BRANCH  12  14
ATOM     13  C   UNL     1      14.297  -2.193   7.691  0.00  0.00    +0.048 C 
ATOM     14  C   UNL     1      12.812  -2.219   7.321  0.00  0.00    +0.226 C 
ENDBRANCH  12  14
ENDBRANCH   3  12
ENDBRANCH   1   6
BRANCH   1  15
ATOM     15  O   UNL     1       6.884  -1.823   3.361  0.00  0.00    -0.453 OA
BRANCH  15  16
ATOM     16  C   UNL     1       5.530  -1.971   2.858  0.00  0.00    +0.311 C 
BRANCH  16  17
ATOM     17  C   UNL     1       5.069  -0.665   2.264  0.00  0.00    +0.200 C 
ATOM     18  O   UNL     1       5.809   0.296   2.264  0.00  0.00    -0.288 OA
BRANCH  17  19
ATOM     19  C   UNL     1       3.724  -0.557   1.684  0.00  0.00    +0.025 A 
ATOM     20  C   UNL     1       2.868  -1.665   1.682  0.00  0.00    +0.015 A 
ATOM     21  C   UNL     1       1.608  -1.560   1.139  0.00  0.00    +0.050 A 
ATOM     22  C   UNL     1       1.180  -0.357   0.590  0.00  0.00    +0.166 A 
ATOM     23  C   UNL     1       2.028   0.753   0.589  0.00  0.00    +0.167 A 
ATOM     24  C   UNL     1       3.293   0.656   1.132  0.00  0.00    +0.061 A 
ATOM     25  O   UNL     1       1.376   1.798  -0.001  0.00  0.00    -0.453 OA
ATOM     26  C   UNL     1      -0.017   1.435   0.010  0.00  0.00    +0.466 C 
ATOM     27  O   UNL     1       0.002  -0.004   0.002  0.00  0.00    -0.453 OA
ENDBRANCH  17  19
ENDBRANCH  16  17
ENDBRANCH  15  16
ENDBRANCH   1  15
TORSDOF 8
