REMARK  Name = ZINC08782839
REMARK  5 active torsions:
REMARK  status: ('A' for Active; 'I' for Inactive)
REMARK    1  A    between atoms: C_1  and  C_2
REMARK    2  A    between atoms: C_2  and  C_3
REMARK    3  A    between atoms: C_3  and  S_4
REMARK    4  A    between atoms: S_4  and  C_5
REMARK    5  A    between atoms: C_16  and  C_21
REMARK                            x       y       z     vdW  Elec       q    Type
REMARK                         _______ _______ _______ _____ _____    ______ ____
ROOT
ATOM      1  C   UNL     1      -1.383  -2.364   0.003  0.00  0.00    +0.277 C 
ATOM      2  N   UNL     1      -0.140  -2.798  -0.017  0.00  0.00    -0.103 NA
ATOM      3  N   UNL     1       0.159  -4.039  -0.131  0.00  0.00    -0.140 NA
ATOM      4  C   UNL     1      -0.786  -4.944  -0.374  0.00  0.00    +0.157 C 
ATOM      5  C   UNL     1      -0.363  -6.350  -0.493  0.00  0.00    +0.028 A 
ATOM      6  C   UNL     1       0.721  -6.756   0.302  0.00  0.00    +0.012 A 
ATOM      7  C   UNL     1       1.231  -8.029   0.193  0.00  0.00    +0.001 A 
ATOM      8  C   UNL     1       0.671  -8.920  -0.707  0.00  0.00    +0.002 A 
ATOM      9  C   UNL     1      -0.405  -8.540  -1.478  0.00  0.00    +0.023 A 
ATOM     10  C   UNL     1      -0.948  -7.252  -1.370  0.00  0.00    +0.038 A 
ATOM     11  N   UNL     1      -2.045  -6.984  -2.151  0.00  0.00    -0.319 N 
ATOM     12  C   UNL     1      -3.242  -6.269  -1.852  0.00  0.00    +0.224 C 
ATOM     13  N   UNL     1      -3.126  -5.084  -1.067  0.00  0.00    -0.221 NA
ATOM     14  C   UNL     1      -2.156  -4.463  -0.523  0.00  0.00    +0.249 C 
ATOM     15  O   UNL     1      -2.418  -3.225   0.008  0.00  0.00    -0.411 OA
ATOM     16  H   UNL     1      -1.997  -7.337  -3.053  0.00  0.00    +0.148 HD
ENDROOT
BRANCH  12  17
ATOM     17  C   UNL     1      -4.172  -7.210  -1.130  0.00  0.00    -0.005 A 
ATOM     18  C   UNL     1      -4.019  -8.576  -1.272  0.00  0.00    +0.010 A 
ATOM     19  C   UNL     1      -4.867  -9.441  -0.606  0.00  0.00    +0.039 A 
ATOM     20  C   UNL     1      -5.879  -8.937   0.194  0.00  0.00    +0.123 A 
ATOM     21  C   UNL     1      -6.035  -7.568   0.331  0.00  0.00    +0.039 A 
ATOM     22  C   UNL     1      -5.181  -6.706  -0.331  0.00  0.00    +0.010 A 
ATOM     23  F   UNL     1      -6.713  -9.781   0.841  0.00  0.00    -0.205 F 
ENDBRANCH  12  17
BRANCH   1  24
ATOM     24  S   UNL     1      -1.696  -0.631   0.015  0.00  0.00    -0.066 S 
BRANCH  24  25
ATOM     25  C   UNL     1       0.002  -0.004   0.002  0.00  0.00    +0.079 C 
BRANCH  25  27
ATOM     26  C   UNL     1       1.417   2.055  -0.000  0.00  0.00    +0.004 C 
ATOM     27  C   UNL     1      -0.019   1.526   0.010  0.00  0.00    +0.008 C 
ENDBRANCH  25  27
ENDBRANCH  24  25
ENDBRANCH   1  24
TORSDOF 4
