REMARK  Name = ZINC36304727
REMARK  18 active torsions:
REMARK  status: ('A' for Active; 'I' for Inactive)
REMARK    1  A    between atoms: C_1  and  C_2
REMARK    2  A    between atoms: C_6  and  O_8
REMARK    3  A    between atoms: O_8  and  C_9
REMARK    4  A    between atoms: C_10  and  C_21
REMARK    5  A    between atoms: C_11  and  C_20
REMARK    6  A    between atoms: N_13  and  C_14
REMARK    7  A    between atoms: C_21  and  N_22
REMARK    8  A    between atoms: N_22  and  C_23
REMARK    9  A    between atoms: N_22  and  C_29
REMARK   10  A    between atoms: C_23  and  C_24
REMARK   11  A    between atoms: C_29  and  C_30
REMARK   12  A    between atoms: C_30  and  C_32
REMARK   13  A    between atoms: C_30  and  O_38
REMARK   14  A    between atoms: C_32  and  O_33
REMARK   15  A    between atoms: O_33  and  C_34
REMARK   16  A    between atoms: C_34  and  C_35
REMARK   17  A    between atoms: C_34  and  C_36
REMARK   18  A    between atoms: C_34  and  C_37
REMARK                            x       y       z     vdW  Elec       q    Type
REMARK                         _______ _______ _______ _____ _____    ______ ____
ROOT
ATOM      1  C   UNL     1      -0.446  -4.181   2.085  0.00  0.00    +0.225 A 
ATOM      2  C   UNL     1      -0.126  -4.988   3.131  0.00  0.00    +0.021 A 
ATOM      3  C   UNL     1       0.202  -6.247   2.618  0.00  0.00    +0.065 A 
ATOM      4  N   UNL     1       0.086  -6.206   1.315  0.00  0.00    -0.168 NA
ATOM      5  N   UNL     1      -0.327  -4.919   0.949  0.00  0.00    -0.200 N 
ATOM      6  C   UNL     1       0.619  -7.447   3.429  0.00  0.00    +0.068 C 
ENDROOT
BRANCH   5   7
ATOM      7  C   UNL     1      -0.571  -4.470  -0.357  0.00  0.00    +0.069 A 
ATOM      8  C   UNL     1      -1.658  -3.648  -0.618  0.00  0.00    +0.028 A 
ATOM      9  C   UNL     1      -1.896  -3.207  -1.905  0.00  0.00    +0.002 A 
ATOM     10  C   UNL     1      -1.052  -3.585  -2.933  0.00  0.00    +0.000 A 
ATOM     11  C   UNL     1       0.032  -4.404  -2.677  0.00  0.00    +0.002 A 
ATOM     12  C   UNL     1       0.278  -4.843  -1.390  0.00  0.00    +0.028 A 
ENDBRANCH   5   7
BRANCH   1  13
ATOM     13  O   UNL     1      -0.821  -2.879   2.161  0.00  0.00    -0.438 OA
BRANCH  13  19
ATOM     14  C   UNL     1       0.402   1.838   1.886  0.00  0.00    +0.044 C 
ATOM     15  C   UNL     1       0.777   0.379   1.895  0.00  0.00    -0.047 A 
ATOM     16  C   UNL     1       2.103   0.005   1.775  0.00  0.00    +0.003 A 
ATOM     17  C   UNL     1       2.450  -1.333   1.784  0.00  0.00    +0.004 A 
ATOM     18  C   UNL     1       1.473  -2.301   1.913  0.00  0.00    +0.046 A 
ATOM     19  C   UNL     1       0.142  -1.929   2.034  0.00  0.00    +0.131 A 
ATOM     20  C   UNL     1      -0.204  -0.585   2.030  0.00  0.00    +0.049 A 
ENDBRANCH  13  19
ENDBRANCH   1  13
BRANCH   2  21
ATOM     21  C   UNL     1      -0.125  -4.596   4.586  0.00  0.00    -0.035 C 
BRANCH  21  22
ATOM     22  N   UNL     1      -1.489  -4.695   5.122  0.00  0.00    +0.389 N 
ATOM     23  H   UNL     1      -2.115  -4.145   4.552  0.00  0.00    -0.081 HD
BRANCH  22  24
ATOM     24  C   UNL     1      -1.512  -4.191   6.501  0.00  0.00    -0.003 C 
BRANCH  24  25
ATOM     25  C   UNL     1      -1.199  -2.716   6.502  0.00  0.00    +0.089 A 
ATOM     26  C   UNL     1      -2.103  -1.720   6.461  0.00  0.00    +0.042 A 
ATOM     27  C   UNL     1      -1.377  -0.508   6.479  0.00  0.00    +0.041 A 
ATOM     28  C   UNL     1      -0.073  -0.835   6.531  0.00  0.00    +0.195 A 
ATOM     29  O   UNL     1       0.028  -2.174   6.551  0.00  0.00    -0.470 OA
ENDBRANCH  24  25
ENDBRANCH  22  24
BRANCH  22  30
ATOM     30  C   UNL     1      -1.920  -6.099   5.106  0.00  0.00    -0.044 C 
BRANCH  30  31
ATOM     31  C   UNL     1      -3.383  -6.189   5.546  0.00  0.00    +0.124 C 
BRANCH  31  32
ATOM     32  O   UNL     1      -4.210  -5.529   4.585  0.00  0.00    -0.391 OA
ATOM     33  H   UNL     1      -4.156  -5.904   3.696  0.00  0.00    +0.210 HD
ENDBRANCH  31  32
BRANCH  31  34
ATOM     34  C   UNL     1      -3.795  -7.658   5.650  0.00  0.00    +0.189 C 
BRANCH  34  35
ATOM     35  O   UNL     1      -5.123  -7.745   6.172  0.00  0.00    -0.372 OA
BRANCH  35  36
ATOM     36  C   UNL     1      -5.607  -9.082   6.310  0.00  0.00    +0.061 C 
ATOM     37  C   UNL     1      -4.696  -9.858   7.263  0.00  0.00    +0.041 C 
ATOM     38  C   UNL     1      -7.029  -9.054   6.873  0.00  0.00    +0.041 C 
ATOM     39  C   UNL     1      -5.614  -9.766   4.941  0.00  0.00    +0.041 C 
ENDBRANCH  35  36
ENDBRANCH  34  35
ENDBRANCH  31  34
ENDBRANCH  30  31
ENDBRANCH  22  30
ENDBRANCH  21  22
ENDBRANCH   2  21
TORSDOF 13
