REMARK  Name = ZINC40387420
REMARK  4 active torsions:
REMARK  status: ('A' for Active; 'I' for Inactive)
REMARK    1  A    between atoms: C_1  and  C_2
REMARK    2  A    between atoms: C_8  and  N_10
REMARK    3  A    between atoms: N_16  and  S_17
REMARK    4  A    between atoms: S_17  and  C_20
REMARK                            x       y       z     vdW  Elec       q    Type
REMARK                         _______ _______ _______ _____ _____    ______ ____
ROOT
ATOM      1  N   UNL     1       0.032   0.064   2.264  0.00  0.00    -0.268 NA
ATOM      2  C   UNL     1      -0.085   1.525   2.135  0.00  0.00    +0.193 C 
ATOM      3  N   UNL     1      -0.834   2.043   3.291  0.00  0.00    -0.303 N 
ATOM      4  C   UNL     1      -0.431   1.612   4.548  0.00  0.00    +0.202 C 
ATOM      5  N   UNL     1      -0.087   0.270   4.644  0.00  0.00    -0.303 N 
ATOM      6  C   UNL     1       0.685  -0.303   3.529  0.00  0.00    +0.193 C 
ATOM      7  N   UNL     1      -0.380   2.416   5.573  0.00  0.00    -0.097 NA
ATOM      8  H   UNL     1      -1.575   2.659   3.180  0.00  0.00    +0.150 HD
ATOM      9  H   UNL     1      -0.344  -0.265   5.411  0.00  0.00    +0.150 HD
ENDROOT
BRANCH   1  16
ATOM     10  C   UNL     1      -0.674  -2.561   1.258  0.00  0.00    +0.009 C 
ATOM     11  C   UNL     1       0.763  -2.035   1.237  0.00  0.00    +0.003 C 
ATOM     12  C   UNL     1       1.507  -2.634   0.041  0.00  0.00    +0.005 C 
ATOM     13  C   UNL     1       0.798  -2.233  -1.254  0.00  0.00    +0.000 C 
ATOM     14  C   UNL     1       0.782  -0.707  -1.375  0.00  0.00    +0.002 C 
ATOM     15  C   UNL     1       0.037  -0.109  -0.179  0.00  0.00    +0.019 C 
ATOM     16  C   UNL     1       0.746  -0.510   1.116  0.00  0.00    +0.062 C 
ENDBRANCH   1  16
BRANCH   7  17
ATOM     17  S   UNL     1       0.108   1.845   7.049  0.00  0.00    +0.104 S 
ATOM     18  O   UNL     1      -0.883   0.921   7.475  0.00  0.00    -0.146 OA
ATOM     19  O   UNL     1       1.476   1.486   6.913  0.00  0.00    -0.146 OA
BRANCH  17  20
ATOM     20  C   UNL     1       0.053   3.199   8.175  0.00  0.00    +0.141 A 
ATOM     21  C   UNL     1      -0.814   3.177   9.215  0.00  0.00    +0.031 A 
ATOM     22  C   UNL     1      -0.886   4.231  10.126  0.00  0.00    +0.004 A 
ATOM     23  C   UNL     1      -0.091   5.321  10.011  0.00  0.00    +0.031 A 
ATOM     24  C   UNL     1       0.843   5.412   8.944  0.00  0.00    +0.102 A 
ATOM     25  C   UNL     1       0.922   4.308   7.994  0.00  0.00    +0.127 A 
ATOM     26  N   UNL     1       1.835   4.500   7.041  0.00  0.00    -0.189 NA
ATOM     27  S   UNL     1       2.500   5.931   7.358  0.00  0.00    +0.117 S 
ATOM     28  N   UNL     1       1.699   6.399   8.673  0.00  0.00    -0.191 NA
ENDBRANCH  17  20
ENDBRANCH   7  17
TORSDOF 3
