REMARK  Name = ZINC20582718
REMARK  4 active torsions:
REMARK  status: ('A' for Active; 'I' for Inactive)
REMARK    1  A    between atoms: C_6  and  N_7
REMARK    2  A    between atoms: C_11  and  S_13
REMARK    3  A    between atoms: S_13  and  C_14
REMARK    4  A    between atoms: C_14  and  C_15
REMARK                            x       y       z     vdW  Elec       q    Type
REMARK                         _______ _______ _______ _____ _____    ______ ____
ROOT
ATOM      1  N   UNL     1      -5.309  -2.331   0.041  0.00  0.00    -0.292 N 
ATOM      2  C   UNL     1      -4.170  -1.557  -0.152  0.00  0.00    +0.187 A 
ATOM      3  N   UNL     1      -4.040  -0.244  -0.144  0.00  0.00    -0.125 NA
ATOM      4  N   UNL     1      -2.805   0.323  -0.360  0.00  0.00    -0.133 NA
ATOM      5  C   UNL     1      -1.757  -0.449  -0.575  0.00  0.00    +0.160 A 
ATOM      6  S   UNL     1      -2.493  -2.074  -0.487  0.00  0.00    -0.024 S 
ATOM      7  H   UNL     1      -5.226  -3.426   0.099  0.00  0.00    +0.154 HD
ENDROOT
BRANCH   1  13
ATOM      8  C   UNL     1      -7.580  -2.348   0.859  0.00  0.00    +0.024 A 
ATOM      9  C   UNL     1      -8.812  -1.737   0.980  0.00  0.00    +0.016 A 
ATOM     10  C   UNL     1      -9.033  -0.502   0.397  0.00  0.00    +0.013 A 
ATOM     11  C   UNL     1      -8.020   0.127  -0.304  0.00  0.00    +0.016 A 
ATOM     12  C   UNL     1      -6.783  -0.476  -0.423  0.00  0.00    +0.024 A 
ATOM     13  C   UNL     1      -6.558  -1.717   0.160  0.00  0.00    +0.033 A 
ATOM     14  I   UNL     1     -10.907   0.418   0.577  0.00  0.00    -0.044 I 
ENDBRANCH   1  13
BRANCH   5  15
ATOM     15  S   UNL     1      -0.081   0.003  -0.877  0.00  0.00    -0.085 S 
BRANCH  15  16
ATOM     16  C   UNL     1      -0.099   1.816  -0.827  0.00  0.00    +0.201 C 
BRANCH  16  17
ATOM     17  C   UNL     1       1.293   2.339  -1.073  0.00  0.00    +0.366 C 
ATOM     18  O   UNL     1       2.203   1.568  -1.263  0.00  0.00    -0.245 OA
ATOM     19  O   UNL     1       1.520   3.662  -1.082  0.00  0.00    -0.245 OA
ENDBRANCH  16  17
ENDBRANCH  15  16
ENDBRANCH   5  15
TORSDOF 4
