REMARK  Name = ZINC34785136
REMARK  6 active torsions:
REMARK  status: ('A' for Active; 'I' for Inactive)
REMARK    1  A    between atoms: C_1  and  C_2
REMARK    2  A    between atoms: C_2  and  C_27
REMARK    3  A    between atoms: C_7  and  N_12
REMARK    4  A    between atoms: C_8  and  C_9
REMARK    5  A    between atoms: N_18  and  C_21
REMARK    6  A    between atoms: C_21  and  C_22
REMARK                            x       y       z     vdW  Elec       q    Type
REMARK                         _______ _______ _______ _____ _____    ______ ____
ROOT
ATOM      1  C   UNL     1      -0.031   1.524   0.008  0.00  0.00    +0.041 C 
ATOM      2  C   UNL     1      -0.009  -0.006  -0.001  0.00  0.00    +0.068 C 
ATOM      3  C   UNL     1       0.697  -0.497  -1.270  0.00  0.00    +0.071 C 
ATOM      4  C   UNL     1       0.923  -1.996  -1.130  0.00  0.00    -0.018 A 
ATOM      5  C   UNL     1       0.845  -2.584   0.086  0.00  0.00    +0.021 A 
ATOM      6  S   UNL     1       1.169  -4.292  -0.222  0.00  0.00    -0.075 S 
ATOM      7  C   UNL     1       1.402  -4.245  -1.885  0.00  0.00    +0.086 A 
ATOM      8  C   UNL     1       1.230  -2.908  -2.214  0.00  0.00    +0.069 A 
ATOM      9  C   UNL     1       0.547  -1.891   1.378  0.00  0.00    +0.203 C 
ATOM     10  O   UNL     1       0.681  -0.477   1.160  0.00  0.00    -0.368 OA
ATOM     11  C   UNL     1      -1.445  -0.534   0.014  0.00  0.00    +0.041 C 
ENDROOT
BRANCH   7  12
ATOM     12  N   UNL     1       1.698  -5.300  -2.735  0.00  0.00    -0.263 N 
ATOM     13  C   UNL     1       1.830  -6.547  -2.240  0.00  0.00    +0.307 C 
ATOM     14  O   UNL     1       1.783  -6.732  -1.039  0.00  0.00    -0.252 OA
ATOM     15  N   UNL     1       2.015  -7.588  -3.076  0.00  0.00    -0.283 N 
ATOM     16  C   UNL     1       2.047  -8.968  -2.568  0.00  0.00    +0.124 C 
ATOM     17  C   UNL     1       1.071  -9.813  -3.394  0.00  0.00    +0.104 C 
ATOM     18  N   UNL     1       1.390  -9.669  -4.821  0.00  0.00    -0.291 NA
ATOM     19  C   UNL     1       1.209  -8.282  -5.269  0.00  0.00    +0.104 C 
ATOM     20  C   UNL     1       2.184  -7.374  -4.521  0.00  0.00    +0.124 C 
ATOM     21  H   UNL     1       1.809  -5.141  -3.685  0.00  0.00    +0.157 HD
BRANCH  18  22
ATOM     22  C   UNL     1       0.591 -10.594  -5.635  0.00  0.00    +0.180 C 
BRANCH  22  23
ATOM     23  C   UNL     1       1.111 -10.597  -7.049  0.00  0.00    +0.225 C 
ATOM     24  O   UNL     1       2.054  -9.896  -7.349  0.00  0.00    -0.275 OA
ATOM     25  N   UNL     1       0.527 -11.377  -7.980  0.00  0.00    -0.328 N 
ATOM     26  H   UNL     1      -0.227 -11.937  -7.740  0.00  0.00    +0.145 HD
ATOM     27  H   UNL     1       0.862 -11.378  -8.891  0.00  0.00    +0.145 HD
ENDBRANCH  22  23
ENDBRANCH  18  22
ENDBRANCH   7  12
BRANCH   8  28
ATOM     28  C   UNL     1       1.353  -2.439  -3.597  0.00  0.00    +0.244 C 
ATOM     29  O   UNL     1       2.433  -2.075  -4.023  0.00  0.00    -0.270 OA
ATOM     30  N   UNL     1       0.269  -2.411  -4.398  0.00  0.00    -0.325 N 
ATOM     31  H   UNL     1      -0.593  -2.701  -4.059  0.00  0.00    +0.145 HD
ATOM     32  H   UNL     1       0.350  -2.100  -5.313  0.00  0.00    +0.145 HD
ENDBRANCH   8  28
TORSDOF 4
