REMARK  Name = ZINC01290506
REMARK  7 active torsions:
REMARK  status: ('A' for Active; 'I' for Inactive)
REMARK    1  A    between atoms: C_1  and  C_2
REMARK    2  A    between atoms: C_3  and  N_15
REMARK    3  A    between atoms: N_6  and  C_9
REMARK    4  A    between atoms: N_7  and  C_8
REMARK    5  A    between atoms: C_16  and  C_18
REMARK    6  A    between atoms: C_18  and  N_19
REMARK    7  A    between atoms: C_26  and  C_29
REMARK                            x       y       z     vdW  Elec       q    Type
REMARK                         _______ _______ _______ _____ _____    ______ ____
ROOT
ATOM      1  N   UNL     1      -3.417   4.152   2.885  0.00  0.00    -0.290 N 
ATOM      2  C   UNL     1      -4.078   3.210   2.164  0.00  0.00    +0.203 A 
ATOM      3  N   UNL     1      -3.587   2.751   1.044  0.00  0.00    -0.230 NA
ATOM      4  C   UNL     1      -2.424   3.192   0.573  0.00  0.00    +0.116 A 
ATOM      5  C   UNL     1      -1.667   4.161   1.252  0.00  0.00    +0.080 A 
ATOM      6  C   UNL     1      -2.235   4.646   2.474  0.00  0.00    +0.263 A 
ATOM      7  O   UNL     1      -1.654   5.492   3.133  0.00  0.00    -0.267 OA
ATOM      8  C   UNL     1      -0.419   4.538   0.601  0.00  0.00    +0.004 A 
ATOM      9  C   UNL     1      -0.087   3.940  -0.568  0.00  0.00    +0.056 A 
ATOM     10  S   UNL     1      -1.450   2.830  -0.865  0.00  0.00    -0.076 S 
ENDROOT
BRANCH   8  11
ATOM     11  C   UNL     1       0.473   5.554   1.210  0.00  0.00    -0.016 A 
ATOM     12  C   UNL     1      -0.041   6.782   1.626  0.00  0.00    +0.009 A 
ATOM     13  C   UNL     1       0.800   7.718   2.183  0.00  0.00    +0.004 A 
ATOM     14  C   UNL     1       2.156   7.452   2.338  0.00  0.00    -0.044 A 
ATOM     15  C   UNL     1       2.668   6.238   1.936  0.00  0.00    -0.044 A 
ATOM     16  C   UNL     1       1.829   5.288   1.374  0.00  0.00    +0.012 A 
ATOM     17  C   UNL     1       4.125   5.883   2.085  0.00  0.00    +0.035 C 
ATOM     18  C   UNL     1       4.965   7.139   2.301  0.00  0.00    +0.005 C 
ATOM     19  C   UNL     1       4.338   7.950   3.441  0.00  0.00    +0.005 C 
ATOM     20  C   UNL     1       3.014   8.531   2.947  0.00  0.00    +0.035 C 
ENDBRANCH   8  11
BRANCH   1  21
ATOM     21  C   UNL     1      -4.003   4.640   4.136  0.00  0.00    +0.222 C 
BRANCH  21  23
ATOM     22  N   UNL     1      -3.939   4.047   6.537  0.00  0.00    -0.278 N 
ATOM     23  C   UNL     1      -3.527   3.783   5.281  0.00  0.00    +0.237 C 
ATOM     24  O   UNL     1      -2.772   2.857   5.073  0.00  0.00    -0.274 OA
ATOM     25  H   UNL     1      -4.481   4.832   6.715  0.00  0.00    +0.155 HD
BRANCH  22  28
ATOM     26  C   UNL     1      -5.920   2.824   8.536  0.00  0.00    +0.067 C 
ATOM     27  C   UNL     1      -4.426   2.625   8.490  0.00  0.00    +0.059 A 
ATOM     28  C   UNL     1      -3.584   3.182   7.591  0.00  0.00    +0.121 A 
ATOM     29  C   UNL     1      -2.234   2.725   7.922  0.00  0.00    +0.293 A 
ATOM     30  O   UNL     1      -1.206   3.019   7.338  0.00  0.00    -0.264 OA
ATOM     31  N   UNL     1      -2.345   1.916   8.995  0.00  0.00    -0.216 N 
ATOM     32  N   UNL     1      -3.697   1.847   9.349  0.00  0.00    -0.282 N 
ATOM     33  C   UNL     1      -4.244   1.072  10.465  0.00  0.00    +0.171 C 
BRANCH  31  34
ATOM     34  C   UNL     1      -1.292   1.260   9.642  0.00  0.00    +0.067 A 
ATOM     35  C   UNL     1      -1.170   1.335  11.024  0.00  0.00    +0.028 A 
ATOM     36  C   UNL     1      -0.133   0.682  11.660  0.00  0.00    +0.002 A 
ATOM     37  C   UNL     1       0.790  -0.036  10.922  0.00  0.00    +0.000 A 
ATOM     38  C   UNL     1       0.675  -0.108   9.546  0.00  0.00    +0.002 A 
ATOM     39  C   UNL     1      -0.363   0.538   8.904  0.00  0.00    +0.028 A 
ENDBRANCH  31  34
ENDBRANCH  22  28
ENDBRANCH  21  23
ENDBRANCH   1  21
TORSDOF 5
