REMARK  Name = ZINC20731364
REMARK  3 active torsions:
REMARK  status: ('A' for Active; 'I' for Inactive)
REMARK    1  A    between atoms: C_2  and  C_3
REMARK    2  A    between atoms: C_3  and  N_4
REMARK    3  A    between atoms: N_22  and  C_23
REMARK                            x       y       z     vdW  Elec       q    Type
REMARK                         _______ _______ _______ _____ _____    ______ ____
ROOT
ATOM      1  N   UNL     1      -1.319  -1.726  -1.098  0.00  0.00    -0.266 N 
ATOM      2  C   UNL     1      -1.857  -1.435  -2.339  0.00  0.00    +0.041 A 
ATOM      3  C   UNL     1      -2.459  -0.259  -2.790  0.00  0.00    +0.024 A 
ATOM      4  C   UNL     1      -2.917  -0.241  -4.098  0.00  0.00    +0.002 A 
ATOM      5  C   UNL     1      -2.789  -1.334  -4.931  0.00  0.00    +0.000 A 
ATOM      6  C   UNL     1      -2.192  -2.512  -4.494  0.00  0.00    +0.007 A 
ATOM      7  C   UNL     1      -1.734  -2.538  -3.194  0.00  0.00    -0.006 A 
ATOM      8  C   UNL     1      -1.058  -3.608  -2.400  0.00  0.00    +0.112 C 
ATOM      9  C   UNL     1      -0.822  -2.980  -1.044  0.00  0.00    +0.236 C 
ATOM     10  O   UNL     1      -0.290  -3.505  -0.088  0.00  0.00    -0.274 OA
ATOM     11  C   UNL     1      -1.948  -4.843  -2.265  0.00  0.00    +0.122 C 
ATOM     12  C   UNL     1      -1.878  -5.702  -3.497  0.00  0.00    +0.220 C 
ATOM     13  O   UNL     1      -2.886  -6.255  -3.885  0.00  0.00    -0.275 OA
ATOM     14  N   UNL     1      -0.731  -5.877  -4.186  0.00  0.00    -0.270 N 
ATOM     15  C   UNL     1       0.367  -5.084  -3.858  0.00  0.00    +0.133 A 
ATOM     16  C   UNL     1       0.254  -4.005  -3.017  0.00  0.00    +0.032 A 
ATOM     17  C   UNL     1       1.509  -3.430  -2.889  0.00  0.00    +0.141 A 
ATOM     18  N   UNL     1       2.354  -4.115  -3.624  0.00  0.00    -0.173 NA
ATOM     19  N   UNL     1       1.655  -5.159  -4.251  0.00  0.00    -0.217 N 
ATOM     20  H   UNL     1      -0.672  -6.539  -4.893  0.00  0.00    +0.156 HD
ENDROOT
BRANCH  19  21
ATOM     21  C   UNL     1       2.197  -6.108  -5.128  0.00  0.00    +0.086 A 
ATOM     22  C   UNL     1       1.913  -7.456  -4.957  0.00  0.00    +0.029 A 
ATOM     23  C   UNL     1       2.448  -8.389  -5.823  0.00  0.00    +0.002 A 
ATOM     24  C   UNL     1       3.268  -7.983  -6.860  0.00  0.00    +0.002 A 
ATOM     25  C   UNL     1       3.554  -6.641  -7.034  0.00  0.00    +0.022 A 
ATOM     26  C   UNL     1       3.017  -5.702  -6.174  0.00  0.00    +0.066 A 
ATOM     27 CL   UNL     1       3.370  -4.017  -6.397  0.00  0.00    -0.081 Cl
ENDBRANCH  19  21
BRANCH   1  28
ATOM     28  C   UNL     1      -1.286  -0.783   0.023  0.00  0.00    +0.140 C 
BRANCH  28  30
ATOM     29  C   UNL     1      -0.065   1.330  -0.047  0.00  0.00    +0.005 C 
ATOM     30  C   UNL     1      -0.013   0.021  -0.034  0.00  0.00    -0.015 C 
ENDBRANCH  28  30
ENDBRANCH   1  28
TORSDOF 3
