REMARK  Name = ZINC04599237
REMARK  5 active torsions:
REMARK  status: ('A' for Active; 'I' for Inactive)
REMARK    1  A    between atoms: C_1  and  C_2
REMARK    2  A    between atoms: C_2  and  C_3
REMARK    3  A    between atoms: C_10  and  C_14
REMARK    4  A    between atoms: C_10  and  O_18
REMARK    5  A    between atoms: C_19  and  C_21
REMARK                            x       y       z     vdW  Elec       q    Type
REMARK                         _______ _______ _______ _____ _____    ______ ____
ROOT
ATOM      1  C   UNL     1      -0.040   1.095   2.501  0.00  0.00    -0.010 C 
ATOM      2  C   UNL     1      -0.167  -0.426   2.539  0.00  0.00    +0.009 C 
ATOM      3  C   UNL     1       0.649  -0.999   3.710  0.00  0.00    +0.053 C 
ATOM      4  C   UNL     1       0.224  -0.234   4.946  0.00  0.00    +0.045 C 
ATOM      5  N   UNL     1      -0.171  -0.675   6.059  0.00  0.00    -0.183 NA
ATOM      6  N   UNL     1      -0.592   0.311   6.954  0.00  0.00    -0.148 N 
ATOM      7  C   UNL     1      -0.474   1.626   6.296  0.00  0.00    +0.259 C 
ATOM      8  C   UNL     1       0.208   1.289   4.964  0.00  0.00    +0.097 C 
ATOM      9  C   UNL     1      -0.630   1.732   3.764  0.00  0.00    +0.018 C 
ATOM     10  C   UNL     1      -1.033   0.097   8.209  0.00  0.00    +0.269 C 
ATOM     11  O   UNL     1      -1.309   1.040   8.925  0.00  0.00    -0.268 OA
ENDROOT
BRANCH  10  12
ATOM     12  C   UNL     1      -1.179  -1.283   8.715  0.00  0.00    +0.039 A 
ATOM     13  C   UNL     1      -0.758  -2.364   7.937  0.00  0.00    +0.014 A 
ATOM     14  C   UNL     1      -0.892  -3.649   8.418  0.00  0.00    +0.021 A 
ATOM     15  C   UNL     1      -1.454  -3.871   9.664  0.00  0.00    +0.041 A 
ATOM     16  C   UNL     1      -1.879  -2.804  10.438  0.00  0.00    +0.021 A 
ATOM     17  C   UNL     1      -1.745  -1.513   9.971  0.00  0.00    +0.014 A 
ATOM     18 CL   UNL     1      -1.625  -5.493  10.259  0.00  0.00    -0.084 Cl
ENDBRANCH  10  12
BRANCH   7  19
ATOM     19  C   UNL     1       0.395   2.571   7.128  0.00  0.00    +0.438 C 
ATOM     20  F   UNL     1       1.663   2.007   7.302  0.00  0.00    -0.166 F 
ATOM     21  F   UNL     1       0.517   3.797   6.466  0.00  0.00    -0.166 F 
ATOM     22  F   UNL     1      -0.201   2.773   8.378  0.00  0.00    -0.166 F 
ENDBRANCH   7  19
BRANCH   1  24
ATOM     23  C   UNL     1      -0.096   1.129   0.003  0.00  0.00    +0.004 C 
ATOM     24  C   UNL     1      -0.784   1.629   1.276  0.00  0.00    +0.000 C 
ENDBRANCH   1  24
BRANCH   7  25
ATOM     25  O   UNL     1      -1.765   2.196   6.072  0.00  0.00    -0.363 OA
ATOM     26  H   UNL     1      -2.269   2.359   6.880  0.00  0.00    +0.212 HD
ENDBRANCH   7  25
TORSDOF 4
