REMARK  Name = ZINC32859539
REMARK  9 active torsions:
REMARK  status: ('A' for Active; 'I' for Inactive)
REMARK    1  A    between atoms: C_1  and  C_2
REMARK    2  A    between atoms: C_2  and  C_4
REMARK    3  A    between atoms: C_2  and  N_12
REMARK    4  A    between atoms: C_13  and  C_15
REMARK    5  A    between atoms: C_15  and  N_16
REMARK    6  A    between atoms: C_19  and  C_23
REMARK    7  A    between atoms: C_19  and  C_24
REMARK    8  A    between atoms: C_24  and  C_25
REMARK    9  A    between atoms: C_25  and  C_26
REMARK                            x       y       z     vdW  Elec       q    Type
REMARK                         _______ _______ _______ _____ _____    ______ ____
ROOT
ATOM      1  N   UNL     1       0.712   2.833   2.957  0.00  0.00    -0.215 N 
ATOM      2  C   UNL     1      -0.022   2.421   1.905  0.00  0.00    +0.247 C 
ATOM      3  O   UNL     1      -0.686   3.110   1.160  0.00  0.00    -0.273 OA
ATOM      4  C   UNL     1       0.156   0.917   1.845  0.00  0.00    +0.110 C 
ATOM      5  N   UNL     1       1.054   0.629   2.977  0.00  0.00    -0.285 N 
ATOM      6  C   UNL     1       1.323   1.809   3.564  0.00  0.00    +0.310 C 
ATOM      7  O   UNL     1       2.040   1.932   4.538  0.00  0.00    -0.252 OA
ATOM      8  C   UNL     1       0.807   0.503   0.524  0.00  0.00    +0.041 C 
ATOM      9  H   UNL     1       1.363  -0.406   3.184  0.00  0.00    +0.151 HD
ENDROOT
BRANCH   1  10
ATOM     10  C   UNL     1       0.828   4.230   3.383  0.00  0.00    +0.213 C 
BRANCH  10  12
ATOM     11  N   UNL     1       2.293   6.168   2.916  0.00  0.00    -0.307 N 
ATOM     12  C   UNL     1       1.993   4.875   2.678  0.00  0.00    +0.231 C 
ATOM     13  O   UNL     1       2.662   4.231   1.897  0.00  0.00    -0.274 OA
ATOM     14  H   UNL     1       1.687   6.752   3.624  0.00  0.00    +0.149 HD
BRANCH  11  16
ATOM     15  C   UNL     1       2.962   7.354   0.884  0.00  0.00    +0.033 C 
ATOM     16  C   UNL     1       3.426   6.795   2.230  0.00  0.00    +0.102 C 
BRANCH  16  17
ATOM     17  C   UNL     1       3.969   7.915   3.079  0.00  0.00    -0.009 A 
ATOM     18  C   UNL     1       3.139   8.575   3.966  0.00  0.00    +0.008 A 
ATOM     19  C   UNL     1       3.636   9.602   4.745  0.00  0.00    +0.020 A 
ATOM     20  C   UNL     1       4.966   9.971   4.639  0.00  0.00    +0.042 A 
ATOM     21  C   UNL     1       5.797   9.311   3.752  0.00  0.00    +0.040 A 
ATOM     22  C   UNL     1       5.300   8.279   2.976  0.00  0.00    +0.047 A 
ATOM     23 CL   UNL     1       6.344   7.445   1.867  0.00  0.00    -0.083 Cl
ATOM     24 CL   UNL     1       5.590  11.262   5.617  0.00  0.00    -0.083 Cl
ENDBRANCH  16  17
ENDBRANCH  11  16
ENDBRANCH  10  12
ENDBRANCH   1  10
BRANCH   4  25
ATOM     25  C   UNL     1      -1.186   0.205   2.028  0.00  0.00    +0.039 C 
BRANCH  25  26
ATOM     26  C   UNL     1      -0.952  -1.302   2.144  0.00  0.00    +0.037 C 
BRANCH  26  27
ATOM     27  C   UNL     1      -2.274  -2.003   2.324  0.00  0.00    -0.047 A 
ATOM     28  C   UNL     1      -2.773  -2.223   3.595  0.00  0.00    +0.003 A 
ATOM     29  C   UNL     1      -3.987  -2.862   3.760  0.00  0.00    +0.000 A 
ATOM     30  C   UNL     1      -4.699  -3.290   2.655  0.00  0.00    +0.000 A 
ATOM     31  C   UNL     1      -4.198  -3.075   1.385  0.00  0.00    +0.000 A 
ATOM     32  C   UNL     1      -2.986  -2.432   1.219  0.00  0.00    +0.003 A 
ENDBRANCH  26  27
ENDBRANCH  25  26
ENDBRANCH   4  25
TORSDOF 7
