REMARK  Name = ZINC02198649
REMARK  11 active torsions:
REMARK  status: ('A' for Active; 'I' for Inactive)
REMARK    1  A    between atoms: C_1  and  C_2
REMARK    2  A    between atoms: C_2  and  C_4
REMARK    3  A    between atoms: C_2  and  N_12
REMARK    4  A    between atoms: C_4  and  C_5
REMARK    5  A    between atoms: C_5  and  C_6
REMARK    6  A    between atoms: C_13  and  C_15
REMARK    7  A    between atoms: N_26  and  C_29
REMARK    8  A    between atoms: C_27  and  N_28
REMARK    9  A    between atoms: C_32  and  C_35
REMARK   10  A    between atoms: C_35  and  C_36
REMARK   11  A    between atoms: C_35  and  C_37
REMARK                            x       y       z     vdW  Elec       q    Type
REMARK                         _______ _______ _______ _____ _____    ______ ____
ROOT
ATOM      1  C   UNL     1       0.690  -1.079  -3.561  0.00  0.00    +0.104 A 
ATOM      2  C   UNL     1       0.830  -2.476  -4.004  0.00  0.00    +0.123 A 
ATOM      3  C   UNL     1       1.591  -2.413  -5.255  0.00  0.00    +0.166 A 
ATOM      4  N   UNL     1       1.877  -3.526  -5.895  0.00  0.00    -0.225 NA
ATOM      5  C   UNL     1       1.472  -4.703  -5.401  0.00  0.00    +0.092 A 
ATOM      6  C   UNL     1       1.773  -5.899  -6.079  0.00  0.00    +0.030 A 
ATOM      7  C   UNL     1       1.357  -7.090  -5.570  0.00  0.00    +0.002 A 
ATOM      8  C   UNL     1       0.633  -7.147  -4.380  0.00  0.00    +0.002 A 
ATOM      9  C   UNL     1       0.323  -6.013  -3.696  0.00  0.00    +0.030 A 
ATOM     10  C   UNL     1       0.736  -4.762  -4.191  0.00  0.00    +0.090 A 
ATOM     11  N   UNL     1       0.435  -3.639  -3.527  0.00  0.00    -0.241 NA
ATOM     12  N   UNL     1       1.859  -1.079  -5.497  0.00  0.00    -0.280 N 
ATOM     13  C   UNL     1       1.331  -0.296  -4.514  0.00  0.00    +0.117 A 
ENDROOT
BRANCH  12  14
ATOM     14  C   UNL     1       2.572  -0.598  -6.603  0.00  0.00    +0.050 A 
ATOM     15  C   UNL     1       3.912  -0.924  -6.763  0.00  0.00    +0.026 A 
ATOM     16  C   UNL     1       4.611  -0.448  -7.855  0.00  0.00    +0.006 A 
ATOM     17  C   UNL     1       3.978   0.353  -8.788  0.00  0.00    -0.045 A 
ATOM     18  C   UNL     1       2.643   0.679  -8.631  0.00  0.00    +0.006 A 
ATOM     19  C   UNL     1       1.937   0.202  -7.545  0.00  0.00    +0.026 A 
BRANCH  17  20
ATOM     20  C   UNL     1       4.744   0.871  -9.978  0.00  0.00    +0.013 C 
ATOM     21  C   UNL     1       4.087   0.369 -11.265  0.00  0.00    +0.012 C 
ATOM     22  C   UNL     1       4.736   2.401  -9.963  0.00  0.00    +0.012 C 
ENDBRANCH  17  20
ENDBRANCH  12  14
BRANCH   1  24
ATOM     23  N   UNL     1       0.688  -0.476  -1.203  0.00  0.00    -0.309 N 
ATOM     24  C   UNL     1       0.006  -0.608  -2.358  0.00  0.00    +0.250 C 
ATOM     25  O   UNL     1      -1.180  -0.334  -2.400  0.00  0.00    -0.270 OA
ATOM     26  H   UNL     1       1.632  -0.695  -1.170  0.00  0.00    +0.149 HD
BRANCH  23  28
ATOM     27  C   UNL     1      -0.019   1.526   0.010  0.00  0.00    +0.028 C 
ATOM     28  C   UNL     1       0.002  -0.004   0.002  0.00  0.00    +0.070 C 
BRANCH  28  29
ATOM     29  C   UNL     1       0.742  -0.511   1.242  0.00  0.00    +0.026 C 
BRANCH  29  30
ATOM     30  C   UNL     1       0.655  -2.037   1.299  0.00  0.00    +0.037 C 
BRANCH  30  31
ATOM     31  C   UNL     1       1.384  -2.537   2.519  0.00  0.00    -0.047 A 
ATOM     32  C   UNL     1       2.731  -2.841   2.444  0.00  0.00    +0.003 A 
ATOM     33  C   UNL     1       3.399  -3.299   3.564  0.00  0.00    +0.000 A 
ATOM     34  C   UNL     1       2.722  -3.452   4.759  0.00  0.00    +0.000 A 
ATOM     35  C   UNL     1       1.375  -3.146   4.835  0.00  0.00    +0.000 A 
ATOM     36  C   UNL     1       0.708  -2.684   3.716  0.00  0.00    +0.003 A 
ENDBRANCH  30  31
ENDBRANCH  29  30
ENDBRANCH  28  29
ENDBRANCH  23  28
ENDBRANCH   1  24
BRANCH  13  37
ATOM     37  N   UNL     1       1.423   1.071  -4.470  0.00  0.00    -0.343 N 
ATOM     38  H   UNL     1       1.022   1.560  -3.734  0.00  0.00    +0.144 HD
ATOM     39  H   UNL     1       1.887   1.549  -5.175  0.00  0.00    +0.144 HD
ENDBRANCH  13  37
TORSDOF 8
