REMARK  Name = ZINC00885624
REMARK  9 active torsions:
REMARK  status: ('A' for Active; 'I' for Inactive)
REMARK    1  A    between atoms: C_1  and  C_2
REMARK    2  A    between atoms: C_5  and  C_7
REMARK    3  A    between atoms: C_7  and  C_9
REMARK    4  A    between atoms: C_7  and  N_18
REMARK    5  A    between atoms: N_11  and  C_12
REMARK    6  A    between atoms: N_18  and  C_19
REMARK    7  A    between atoms: C_19  and  C_20
REMARK    8  A    between atoms: C_29  and  C_31
REMARK    9  A    between atoms: C_34  and  C_37
REMARK                            x       y       z     vdW  Elec       q    Type
REMARK                         _______ _______ _______ _____ _____    ______ ____
ROOT
ATOM      1  N   UNL     1       2.923  -3.058   1.611  0.00  0.00    -0.274 N 
ATOM      2  C   UNL     1       3.829  -3.280   2.584  0.00  0.00    +0.264 C 
ATOM      3  O   UNL     1       3.878  -4.365   3.134  0.00  0.00    -0.268 OA
ENDROOT
BRANCH   2   4
ATOM      4  C   UNL     1       4.755  -2.216   2.980  0.00  0.00    +0.102 A 
ATOM      5  C   UNL     1       5.475  -2.162   4.157  0.00  0.00    +0.033 A 
ATOM      6  C   UNL     1       6.228  -0.990   4.133  0.00  0.00    +0.028 A 
ATOM      7  C   UNL     1       5.959  -0.344   2.945  0.00  0.00    +0.047 A 
ATOM      8  N   UNL     1       5.066  -1.097   2.240  0.00  0.00    -0.351 N 
ATOM      9  H   UNL     1       4.707  -0.878   1.366  0.00  0.00    +0.166 HD
BRANCH   7  10
ATOM     10  C   UNL     1       6.544   0.940   2.507  0.00  0.00    -0.002 A 
ATOM     11  C   UNL     1       6.182   1.492   1.277  0.00  0.00    +0.010 A 
ATOM     12  C   UNL     1       6.731   2.692   0.874  0.00  0.00    +0.001 A 
ATOM     13  C   UNL     1       7.640   3.347   1.685  0.00  0.00    +0.000 A 
ATOM     14  C   UNL     1       8.004   2.805   2.905  0.00  0.00    +0.001 A 
ATOM     15  C   UNL     1       7.458   1.609   3.323  0.00  0.00    +0.010 A 
ENDBRANCH   7  10
ENDBRANCH   2   4
BRANCH   1  16
ATOM     16  C   UNL     1       1.946  -4.095   1.269  0.00  0.00    +0.229 C 
BRANCH  16  21
ATOM     17  C   UNL     1      -2.048  -1.024   1.033  0.00  0.00    +0.086 C 
ATOM     18  C   UNL     1      -1.184  -2.218   1.351  0.00  0.00    +0.102 A 
ATOM     19  C   UNL     1      -1.573  -3.312   2.030  0.00  0.00    +0.045 A 
ATOM     20  C   UNL     1      -0.454  -4.173   2.096  0.00  0.00    +0.047 A 
ATOM     21  C   UNL     1       0.552  -3.553   1.453  0.00  0.00    +0.135 A 
ATOM     22  O   UNL     1       0.103  -2.372   0.999  0.00  0.00    -0.462 OA
ENDBRANCH  16  21
BRANCH  16  23
ATOM     23  C   UNL     1       2.138  -4.511  -0.167  0.00  0.00    +0.241 C 
ATOM     24  O   UNL     1       3.102  -4.118  -0.789  0.00  0.00    -0.273 OA
ATOM     25  N   UNL     1       1.238  -5.321  -0.760  0.00  0.00    -0.311 N 
ATOM     26  H   UNL     1       0.467  -5.635  -0.263  0.00  0.00    +0.149 HD
BRANCH  25  27
ATOM     27  C   UNL     1       1.425  -5.725  -2.156  0.00  0.00    +0.073 C 
ATOM     28  C   UNL     1       0.848  -4.650  -3.079  0.00  0.00    +0.022 C 
ATOM     29  C   UNL     1       1.042  -5.072  -4.537  0.00  0.00    +0.002 C 
ATOM     30  C   UNL     1       0.321  -6.398  -4.785  0.00  0.00    +0.000 C 
ATOM     31  C   UNL     1       0.897  -7.473  -3.861  0.00  0.00    +0.002 C 
ATOM     32  C   UNL     1       0.703  -7.051  -2.403  0.00  0.00    +0.022 C 
ENDBRANCH  25  27
ENDBRANCH  16  23
ENDBRANCH   1  16
BRANCH   1  33
ATOM     33  C   UNL     1       2.914  -1.780   0.896  0.00  0.00    +0.144 C 
BRANCH  33  34
ATOM     34  C   UNL     1       3.803  -1.876  -0.317  0.00  0.00    -0.026 A 
ATOM     35  C   UNL     1       5.102  -2.331  -0.185  0.00  0.00    +0.009 A 
ATOM     36  C   UNL     1       5.921  -2.422  -1.295  0.00  0.00    +0.050 A 
ATOM     37  C   UNL     1       5.442  -2.057  -2.543  0.00  0.00    +0.166 A 
ATOM     38  C   UNL     1       4.133  -1.599  -2.675  0.00  0.00    +0.167 A 
ATOM     39  C   UNL     1       3.316  -1.516  -1.559  0.00  0.00    +0.054 A 
ATOM     40  O   UNL     1       3.904  -1.306  -3.988  0.00  0.00    -0.453 OA
ATOM     41  C   UNL     1       5.207  -1.202  -4.592  0.00  0.00    +0.466 C 
ATOM     42  O   UNL     1       6.033  -2.051  -3.773  0.00  0.00    -0.453 OA
ENDBRANCH  33  34
ENDBRANCH   1  33
TORSDOF 8
