REMARK  Name = ZINC62579970
REMARK  10 active torsions:
REMARK  status: ('A' for Active; 'I' for Inactive)
REMARK    1  A    between atoms: C_1  and  C_2
REMARK    2  A    between atoms: C_2  and  C_3
REMARK    3  A    between atoms: C_3  and  C_4
REMARK    4  A    between atoms: C_4  and  N_5
REMARK    5  A    between atoms: N_14  and  C_33
REMARK    6  A    between atoms: C_15  and  C_17
REMARK    7  A    between atoms: C_17  and  N_18
REMARK    8  A    between atoms: C_21  and  N_24
REMARK    9  A    between atoms: N_24  and  S_25
REMARK   10  A    between atoms: S_25  and  C_28
REMARK                            x       y       z     vdW  Elec       q    Type
REMARK                         _______ _______ _______ _____ _____    ______ ____
ROOT
ATOM      1  C   UNL     1      -2.079  -2.959  -5.935  0.00  0.00    -0.003 C 
ENDROOT
BRANCH   1  12
ATOM      2  N   UNL     1       1.425  -2.500  -2.470  0.00  0.00    -0.277 N 
ATOM      3  C   UNL     1       0.704  -2.728  -3.632  0.00  0.00    +0.168 A 
ATOM      4  C   UNL     1       1.377  -3.176  -4.761  0.00  0.00    +0.151 A 
ATOM      5  C   UNL     1       2.772  -3.385  -4.694  0.00  0.00    +0.280 A 
ATOM      6  O   UNL     1       3.384  -3.776  -5.671  0.00  0.00    -0.265 OA
ATOM      7  N   UNL     1       3.418  -3.144  -3.534  0.00  0.00    -0.273 N 
ATOM      8  H   UNL     1       4.376  -3.286  -3.483  0.00  0.00    +0.173 HD
ATOM      9  C   UNL     1       2.755  -2.706  -2.450  0.00  0.00    +0.331 A 
ATOM     10  O   UNL     1       3.372  -2.495  -1.423  0.00  0.00    -0.246 OA
ATOM     11  N   UNL     1       0.423  -3.315  -5.750  0.00  0.00    -0.327 N 
ATOM     12  C   UNL     1      -0.758  -2.960  -5.209  0.00  0.00    +0.096 A 
ATOM     13  N   UNL     1      -0.586  -2.614  -3.958  0.00  0.00    -0.216 NA
ATOM     14  C   UNL     1       0.653  -3.763  -7.125  0.00  0.00    +0.151 C 
BRANCH   2  15
ATOM     15  C   UNL     1       0.739  -2.027  -1.265  0.00  0.00    +0.128 C 
BRANCH  15  16
ATOM     16  C   UNL     1       0.718  -0.497  -1.257  0.00  0.00    +0.021 C 
BRANCH  16  18
ATOM     17  C   UNL     1      -0.019   1.526   0.010  0.00  0.00    +0.004 C 
ATOM     18  C   UNL     1       0.002  -0.004   0.002  0.00  0.00    -0.002 C 
ENDBRANCH  16  18
ENDBRANCH  15  16
ENDBRANCH   2  15
ENDBRANCH   1  12
BRANCH   1  19
ATOM     19  N   UNL     1      -2.724  -4.270  -5.779  0.00  0.00    +0.384 N 
ATOM     20  C   UNL     1      -3.049  -4.489  -4.365  0.00  0.00    -0.077 C 
ATOM     21  C   UNL     1      -3.646  -5.887  -4.186  0.00  0.00    +0.002 C 
ATOM     22  C   UNL     1      -4.920  -6.003  -5.028  0.00  0.00    +0.073 C 
ATOM     23  C   UNL     1      -4.583  -5.698  -6.490  0.00  0.00    +0.002 C 
ATOM     24  C   UNL     1      -3.951  -4.308  -6.584  0.00  0.00    -0.077 C 
ATOM     25  H   UNL     1      -2.094  -4.992  -6.094  0.00  0.00    -0.081 HD
BRANCH  22  26
ATOM     26  N   UNL     1      -5.456  -7.362  -4.921  0.00  0.00    -0.187 NA
ATOM     27  H   UNL     1      -4.852  -8.117  -4.847  0.00  0.00    +0.148 HD
BRANCH  26  28
ATOM     28  S   UNL     1      -7.094  -7.609  -4.926  0.00  0.00    +0.065 S 
ATOM     29  O   UNL     1      -7.293  -9.013  -4.838  0.00  0.00    -0.153 OA
ATOM     30  O   UNL     1      -7.645  -6.700  -3.983  0.00  0.00    -0.153 OA
BRANCH  28  31
ATOM     31  C   UNL     1      -7.690  -7.115  -6.509  0.00  0.00    +0.142 A 
ATOM     32  C   UNL     1      -7.835  -7.855  -7.636  0.00  0.00    +0.036 A 
ATOM     33  C   UNL     1      -8.329  -7.250  -8.776  0.00  0.00    +0.010 A 
ATOM     34  C   UNL     1      -8.654  -5.935  -8.734  0.00  0.00    +0.047 A 
ATOM     35  S   UNL     1      -8.267  -5.513  -7.043  0.00  0.00    -0.077 S 
ENDBRANCH  28  31
ENDBRANCH  26  28
ENDBRANCH  22  26
ENDBRANCH   1  19
TORSDOF 8
