REMARK  Name = ZINC56874187
REMARK  11 active torsions:
REMARK  status: ('A' for Active; 'I' for Inactive)
REMARK    1  A    between atoms: C_1  and  C_2
REMARK    2  A    between atoms: C_2  and  C_3
REMARK    3  A    between atoms: C_3  and  C_4
REMARK    4  A    between atoms: C_3  and  C_6
REMARK    5  A    between atoms: C_3  and  N_25
REMARK    6  A    between atoms: C_4  and  C_5
REMARK    7  A    between atoms: C_6  and  N_7
REMARK    8  A    between atoms: C_13  and  C_16
REMARK    9  A    between atoms: C_21  and  C_24
REMARK   10  A    between atoms: N_25  and  C_26
REMARK   11  A    between atoms: N_25  and  C_27
REMARK                            x       y       z     vdW  Elec       q    Type
REMARK                         _______ _______ _______ _____ _____    ______ ____
ROOT
ATOM      1  N   UNL     1       2.839  -0.428   2.613  0.00  0.00    -0.301 N 
ATOM      2  C   UNL     1       4.080  -0.051   2.980  0.00  0.00    +0.302 C 
ATOM      3  O   UNL     1       4.678   0.786   2.332  0.00  0.00    -0.253 OA
ATOM      4  N   UNL     1       4.658  -0.603   4.066  0.00  0.00    -0.286 N 
ATOM      5  C   UNL     1       5.954  -0.111   4.555  0.00  0.00    +0.110 C 
ATOM      6  C   UNL     1       6.918  -1.295   4.671  0.00  0.00    +0.032 C 
ATOM      7  C   UNL     1       6.286  -2.379   5.548  0.00  0.00    +0.078 C 
ATOM      8  C   UNL     1       4.992  -2.872   4.897  0.00  0.00    +0.032 C 
ATOM      9  C   UNL     1       4.002  -1.702   4.786  0.00  0.00    +0.110 C 
ATOM     10  H   UNL     1       2.332  -1.037   3.172  0.00  0.00    +0.150 HD
ENDROOT
BRANCH   7  11
ATOM     11  C   UNL     1       7.246  -3.531   5.692  0.00  0.00    +0.222 C 
ATOM     12  O   UNL     1       8.329  -3.490   5.149  0.00  0.00    -0.275 OA
ATOM     13  N   UNL     1       6.901  -4.608   6.426  0.00  0.00    -0.264 N 
ATOM     14  C   UNL     1       7.787  -5.671   6.560  0.00  0.00    +0.165 A 
ATOM     15  N   UNL     1       7.622  -6.794   7.225  0.00  0.00    -0.230 NA
ATOM     16  C   UNL     1       8.568  -7.714   7.255  0.00  0.00    +0.047 A 
ATOM     17  C   UNL     1       9.709  -7.448   6.573  0.00  0.00    +0.071 A 
ATOM     18  S   UNL     1       9.328  -5.837   5.904  0.00  0.00    -0.060 S 
ATOM     19  C   UNL     1       8.387  -9.003   8.015  0.00  0.00    +0.066 C 
ATOM     20  H   UNL     1       6.035  -4.641   6.861  0.00  0.00    +0.157 HD
ENDBRANCH   7  11
BRANCH   1  21
ATOM     21  C   UNL     1       2.256   0.082   1.370  0.00  0.00    +0.094 C 
BRANCH  21  22
ATOM     22  C   UNL     1       0.797  -0.365   1.270  0.00  0.00    -0.051 C 
BRANCH  22  23
ATOM     23  N   UNL     1       0.718  -1.821   1.444  0.00  0.00    +0.381 N 
ATOM     24  C   UNL     1      -0.665  -2.267   1.224  0.00  0.00    -0.096 C 
ATOM     25  C   UNL     1       1.605  -2.480   0.476  0.00  0.00    -0.096 C 
ATOM     26  H   UNL     1       1.004  -2.064   2.381  0.00  0.00    -0.082 HD
ENDBRANCH  22  23
BRANCH  22  28
ATOM     27  C   UNL     1       0.428  -0.177   3.734  0.00  0.00    +0.002 C 
ATOM     28  C   UNL     1      -0.024   0.325   2.361  0.00  0.00    -0.014 C 
ENDBRANCH  22  28
BRANCH  22  29
ATOM     29  C   UNL     1       0.240   0.015  -0.104  0.00  0.00    -0.014 C 
ATOM     30  C   UNL     1       0.442   1.513  -0.340  0.00  0.00    +0.002 C 
ENDBRANCH  22  29
ENDBRANCH  21  22
ENDBRANCH   1  21
TORSDOF 6
