REMARK  Name = ZINC39711101
REMARK  10 active torsions:
REMARK  status: ('A' for Active; 'I' for Inactive)
REMARK    1  A    between atoms: C_1  and  C_2
REMARK    2  A    between atoms: C_5  and  C_42
REMARK    3  A    between atoms: C_10  and  C_14
REMARK    4  A    between atoms: C_14  and  C_16
REMARK    5  A    between atoms: C_14  and  N_28
REMARK    6  A    between atoms: N_21  and  C_22
REMARK    7  A    between atoms: N_28  and  C_29
REMARK    8  A    between atoms: N_28  and  C_36
REMARK    9  A    between atoms: C_29  and  C_30
REMARK   10  A    between atoms: C_36  and  C_37
REMARK                            x       y       z     vdW  Elec       q    Type
REMARK                         _______ _______ _______ _____ _____    ______ ____
ROOT
ATOM      1  C   UNL     1      -1.700  -0.458   4.076  0.00  0.00    -0.010 C 
ENDROOT
BRANCH   1  11
ATOM      2  C   UNL     1      -4.055  -4.903   3.034  0.00  0.00    +0.044 C 
ATOM      3  C   UNL     1      -2.595  -5.052   3.378  0.00  0.00    -0.042 A 
ATOM      4  C   UNL     1      -2.081  -6.268   3.696  0.00  0.00    +0.004 A 
ATOM      5  C   UNL     1      -0.733  -6.426   4.017  0.00  0.00    +0.005 A 
ATOM      6  C   UNL     1       0.143  -5.387   4.032  0.00  0.00    -0.029 A 
ATOM      7  C   UNL     1      -0.287  -4.085   3.717  0.00  0.00    +0.043 A 
ATOM      8  N   UNL     1       0.581  -3.074   3.735  0.00  0.00    -0.284 N 
ATOM      9  C   UNL     1       0.244  -1.827   3.450  0.00  0.00    +0.223 C 
ATOM     10  O   UNL     1       1.081  -0.946   3.483  0.00  0.00    -0.275 OA
ATOM     11  C   UNL     1      -1.187  -1.502   3.083  0.00  0.00    +0.088 C 
ATOM     12  C   UNL     1      -2.179  -2.649   3.062  0.00  0.00    -0.006 C 
ATOM     13  C   UNL     1      -1.706  -3.890   3.369  0.00  0.00    -0.004 A 
ATOM     14  C   UNL     1       1.587  -5.632   4.389  0.00  0.00    +0.045 C 
ATOM     15  H   UNL     1       1.504  -3.261   3.968  0.00  0.00    +0.155 HD
ENDBRANCH   1  11
BRANCH   1  16
ATOM     16  C   UNL     1      -0.793   0.774   4.035  0.00  0.00    +0.183 C 
ATOM     17  N   UNL     1      -1.374   1.877   4.824  0.00  0.00    -0.229 N 
ATOM     18  N   UNL     1      -1.595   2.921   3.918  0.00  0.00    -0.064 NA
ATOM     19  N   UNL     1      -1.256   2.633   2.773  0.00  0.00    -0.061 NA
ATOM     20  N   UNL     1      -0.734   1.334   2.672  0.00  0.00    -0.213 N 
ATOM     21  H   UNL     1      -1.565   1.878   5.775  0.00  0.00    +0.172 HD
BRANCH  20  22
ATOM     22  C   UNL     1      -0.235   0.670   1.465  0.00  0.00    +0.096 C 
ATOM     23  C   UNL     1       0.855   1.530   0.823  0.00  0.00    +0.024 C 
ATOM     24  C   UNL     1       1.376   0.837  -0.437  0.00  0.00    +0.002 C 
ATOM     25  C   UNL     1       0.226   0.648  -1.428  0.00  0.00    +0.000 C 
ATOM     26  C   UNL     1      -0.864  -0.213  -0.786  0.00  0.00    +0.002 C 
ATOM     27  C   UNL     1      -1.385   0.480   0.474  0.00  0.00    +0.024 C 
ENDBRANCH  20  22
ENDBRANCH   1  16
BRANCH   1  28
ATOM     28  N   UNL     1      -1.694  -1.025   5.431  0.00  0.00    +0.392 N 
ATOM     29  H   UNL     1      -1.815  -2.026   5.377  0.00  0.00    -0.080 HD
BRANCH  28  30
ATOM     30  C   UNL     1      -0.414  -0.720   6.084  0.00  0.00    -0.040 C 
BRANCH  30  31
ATOM     31  C   UNL     1      -0.354  -1.414   7.421  0.00  0.00    -0.046 A 
ATOM     32  C   UNL     1      -0.825  -0.782   8.562  0.00  0.00    +0.005 A 
ATOM     33  C   UNL     1      -0.749  -1.459   9.769  0.00  0.00    +0.020 A 
ATOM     34  C   UNL     1      -0.212  -2.732   9.796  0.00  0.00    +0.111 A 
ATOM     35  N   UNL     1       0.227  -3.302   8.690  0.00  0.00    -0.263 NA
ATOM     36  C   UNL     1       0.165  -2.691   7.523  0.00  0.00    +0.112 A 
ENDBRANCH  30  31
ENDBRANCH  28  30
BRANCH  28  37
ATOM     37  C   UNL     1      -2.793  -0.441   6.212  0.00  0.00    -0.002 C 
BRANCH  37  38
ATOM     38  C   UNL     1      -4.111  -0.828   5.591  0.00  0.00    +0.089 A 
ATOM     39  C   UNL     1      -4.859  -1.893   5.933  0.00  0.00    +0.042 A 
ATOM     40  C   UNL     1      -6.003  -1.873   5.102  0.00  0.00    +0.041 A 
ATOM     41  C   UNL     1      -5.885  -0.798   4.302  0.00  0.00    +0.195 A 
ATOM     42  O   UNL     1      -4.740  -0.166   4.606  0.00  0.00    -0.470 OA
ENDBRANCH  37  38
ENDBRANCH  28  37
ENDBRANCH   1  28
TORSDOF 8
