REMARK  Name = ZINC46767622
REMARK  5 active torsions:
REMARK  status: ('A' for Active; 'I' for Inactive)
REMARK    1  A    between atoms: C_8  and  C_11
REMARK    2  A    between atoms: C_11  and  O_13
REMARK    3  A    between atoms: O_13  and  C_14
REMARK    4  A    between atoms: C_14  and  C_15
REMARK    5  A    between atoms: C_19  and  C_28
REMARK                            x       y       z     vdW  Elec       q    Type
REMARK                         _______ _______ _______ _____ _____    ______ ____
ROOT
ATOM      1  C   UNL     1       7.240  -4.333  -0.090  0.00  0.00    +0.258 C 
ATOM      2  O   UNL     1       7.663  -3.199  -0.166  0.00  0.00    -0.272 OA
ATOM      3  N   UNL     1       8.099  -5.368  -0.003  0.00  0.00    -0.261 N 
ATOM      4  C   UNL     1       7.618  -6.760  -0.009  0.00  0.00    +0.168 C 
ATOM      5  C   UNL     1       8.417  -7.532   1.051  0.00  0.00    +0.276 C 
ATOM      6  O   UNL     1       9.809  -7.440   0.736  0.00  0.00    -0.476 OA
ATOM      7  C   UNL     1      10.318  -6.208   0.472  0.00  0.00    +0.143 A 
ATOM      8  C   UNL     1       9.485  -5.157   0.092  0.00  0.00    +0.078 A 
ATOM      9  C   UNL     1      10.018  -3.909  -0.184  0.00  0.00    +0.027 A 
ATOM     10  C   UNL     1      11.383  -3.705  -0.086  0.00  0.00    +0.002 A 
ATOM     11  C   UNL     1      12.213  -4.745   0.287  0.00  0.00    +0.004 A 
ATOM     12  C   UNL     1      11.684  -5.994   0.574  0.00  0.00    +0.047 A 
ENDROOT
BRANCH   5  13
ATOM     13  C   UNL     1       7.991  -8.977   1.052  0.00  0.00    +0.253 C 
ATOM     14  O   UNL     1       8.778  -9.842   0.729  0.00  0.00    -0.272 OA
ATOM     15  N   UNL     1       6.735  -9.309   1.411  0.00  0.00    -0.326 N 
ATOM     16  H   UNL     1       6.106  -8.618   1.669  0.00  0.00    +0.145 HD
ATOM     17  H   UNL     1       6.461 -10.240   1.412  0.00  0.00    +0.145 HD
ENDBRANCH   5  13
BRANCH   1  18
ATOM     18  C   UNL     1       5.754  -4.585  -0.095  0.00  0.00    +0.328 C 
BRANCH  18  19
ATOM     19  O   UNL     1       5.059  -3.336  -0.079  0.00  0.00    -0.451 OA
BRANCH  19  20
ATOM     20  C   UNL     1       3.712  -3.386  -0.081  0.00  0.00    +0.358 C 
ATOM     21  O   UNL     1       3.142  -4.460  -0.096  0.00  0.00    -0.243 OA
BRANCH  20  29
ATOM     22  C   UNL     1      -0.022   1.353  -0.020  0.00  0.00    +0.001 A 
ATOM     23  C   UNL     1       1.163   2.078  -0.009  0.00  0.00    +0.002 A 
ATOM     24  C   UNL     1       2.380   1.433  -0.016  0.00  0.00    +0.026 A 
ATOM     25  C   UNL     1       2.426   0.042  -0.035  0.00  0.00    +0.048 A 
ATOM     26  C   UNL     1       1.223  -0.690  -0.046  0.00  0.00    +0.019 A 
ATOM     27  C   UNL     1      -0.003  -0.011  -0.038  0.00  0.00    +0.011 A 
ATOM     28  C   UNL     1       1.573  -2.063  -0.065  0.00  0.00    +0.080 A 
ATOM     29  C   UNL     1       2.932  -2.143  -0.065  0.00  0.00    +0.144 A 
ATOM     30  N   UNL     1       3.460  -0.864  -0.047  0.00  0.00    -0.348 N 
ATOM     31  H   UNL     1       4.405  -0.643  -0.043  0.00  0.00    +0.166 HD
ATOM     32 CL   UNL     1       0.468  -3.402  -0.083  0.00  0.00    -0.080 Cl
ENDBRANCH  20  29
ENDBRANCH  19  20
ENDBRANCH  18  19
ENDBRANCH   1  18
TORSDOF 5
