REMARK  Name = ZINC03579717
REMARK  7 active torsions:
REMARK  status: ('A' for Active; 'I' for Inactive)
REMARK    1  A    between atoms: C_1  and  C_2
REMARK    2  A    between atoms: C_6  and  C_8
REMARK    3  A    between atoms: N_9  and  N_10
REMARK    4  A    between atoms: C_13  and  C_17
REMARK    5  A    between atoms: C_13  and  C_18
REMARK    6  A    between atoms: C_21  and  O_24
REMARK    7  A    between atoms: O_24  and  C_25
REMARK                            x       y       z     vdW  Elec       q    Type
REMARK                         _______ _______ _______ _____ _____    ______ ____
ROOT
ATOM      1  N   UNL     1      -0.022  -4.851   3.646  0.00  0.00    -0.109 N 
ATOM      2  C   UNL     1      -0.007  -6.196   3.736  0.00  0.00    +0.271 C 
ATOM      3  O   UNL     1       0.084  -6.990   2.824  0.00  0.00    -0.271 OA
ATOM      4  C   UNL     1      -0.127  -6.509   5.214  0.00  0.00    +0.137 C 
ATOM      5  N   UNL     1      -0.203  -5.180   5.845  0.00  0.00    -0.280 N 
ATOM      6  C   UNL     1      -0.129  -4.277   4.850  0.00  0.00    +0.330 C 
ATOM      7  O   UNL     1      -0.158  -3.075   5.025  0.00  0.00    -0.250 OA
ATOM      8  C   UNL     1       1.107  -7.269   5.705  0.00  0.00    +0.047 C 
ATOM      9  H   UNL     1      -0.286  -4.992   6.793  0.00  0.00    +0.152 HD
ENDROOT
BRANCH   4  10
ATOM     10  C   UNL     1      -1.381  -7.298   5.489  0.00  0.00    -0.015 A 
ATOM     11  C   UNL     1      -1.887  -8.149   4.524  0.00  0.00    +0.010 A 
ATOM     12  C   UNL     1      -3.036  -8.874   4.773  0.00  0.00    +0.046 A 
ATOM     13  C   UNL     1      -3.684  -8.747   5.993  0.00  0.00    +0.120 A 
ATOM     14  C   UNL     1      -3.174  -7.893   6.960  0.00  0.00    +0.046 A 
ATOM     15  C   UNL     1      -2.021  -7.175   6.708  0.00  0.00    +0.010 A 
BRANCH  13  16
ATOM     16  O   UNL     1      -4.815  -9.458   6.240  0.00  0.00    -0.495 OA
ATOM     17  C   UNL     1      -5.428  -9.277   7.519  0.00  0.00    +0.277 C 
ENDBRANCH  13  16
ENDBRANCH   4  10
BRANCH   1  19
ATOM     18  C   UNL     1       0.063  -4.779   1.312  0.00  0.00    +0.139 C 
ATOM     19  N   UNL     1       0.069  -4.142   2.442  0.00  0.00    -0.176 NA
BRANCH  18  25
ATOM     20  C   UNL     1       0.019  -4.739  -3.676  0.00  0.00    +0.044 C 
ATOM     21  C   UNL     1       0.025  -4.004  -2.360  0.00  0.00    -0.050 A 
ATOM     22  C   UNL     1       0.016  -2.620  -2.342  0.00  0.00    +0.003 A 
ATOM     23  C   UNL     1       0.022  -1.937  -1.139  0.00  0.00    +0.001 A 
ATOM     24  C   UNL     1       0.037  -2.632   0.052  0.00  0.00    +0.009 A 
ATOM     25  C   UNL     1       0.046  -4.029   0.042  0.00  0.00    -0.005 A 
ATOM     26  C   UNL     1       0.035  -4.712  -1.177  0.00  0.00    +0.012 A 
ENDBRANCH  18  25
ENDBRANCH   1  19
TORSDOF 4
