REMARK  Name = ZINC04140710
REMARK  7 active torsions:
REMARK  status: ('A' for Active; 'I' for Inactive)
REMARK    1  A    between atoms: C_1  and  C_2
REMARK    2  A    between atoms: C_9  and  C_13
REMARK    3  A    between atoms: C_9  and  O_17
REMARK    4  A    between atoms: C_18  and  C_20
REMARK    5  A    between atoms: C_23  and  N_26
REMARK    6  A    between atoms: N_26  and  C_27
REMARK    7  A    between atoms: N_26  and  C_28
REMARK                            x       y       z     vdW  Elec       q    Type
REMARK                         _______ _______ _______ _____ _____    ______ ____
ROOT
ATOM      1  C   UNL     1      -0.052  -0.053  -0.060  0.00  0.00    +0.007 C 
ATOM      2  C   UNL     1      -0.068   1.476  -0.020  0.00  0.00    -0.013 C 
ATOM      3  C   UNL     1      -0.789   1.937   1.245  0.00  0.00    +0.009 C 
ATOM      4  C   UNL     1      -0.728   3.469   1.360  0.00  0.00    +0.053 C 
ATOM      5  C   UNL     1      -1.220   4.023   0.039  0.00  0.00    +0.045 C 
ATOM      6  N   UNL     1      -2.150   4.849  -0.172  0.00  0.00    -0.183 NA
ATOM      7  N   UNL     1      -2.458   5.038  -1.520  0.00  0.00    -0.148 N 
ATOM      8  C   UNL     1      -1.596   4.156  -2.329  0.00  0.00    +0.259 C 
ATOM      9  C   UNL     1      -0.659   3.532  -1.287  0.00  0.00    +0.096 C 
ATOM     10  C   UNL     1      -0.768   2.005  -1.276  0.00  0.00    +0.017 C 
ATOM     11  C   UNL     1      -3.388   5.886  -2.002  0.00  0.00    +0.269 C 
ATOM     12  O   UNL     1      -3.521   6.023  -3.203  0.00  0.00    -0.268 OA
ENDROOT
BRANCH  11  13
ATOM     13  C   UNL     1      -4.244   6.647  -1.073  0.00  0.00    +0.039 A 
ATOM     14  C   UNL     1      -4.016   6.580   0.304  0.00  0.00    +0.015 A 
ATOM     15  C   UNL     1      -4.813   7.296   1.168  0.00  0.00    +0.024 A 
ATOM     16  C   UNL     1      -5.853   8.078   0.672  0.00  0.00    +0.029 A 
ATOM     17  C   UNL     1      -6.086   8.142  -0.699  0.00  0.00    +0.024 A 
ATOM     18  C   UNL     1      -5.289   7.433  -1.568  0.00  0.00    +0.015 A 
BRANCH  16  19
ATOM     19  N   UNL     1      -6.660   8.796   1.548  0.00  0.00    -0.336 N 
ATOM     20  C   UNL     1      -7.822   9.529   1.039  0.00  0.00    +0.129 C 
ATOM     21  C   UNL     1      -6.349   8.818   2.979  0.00  0.00    +0.129 C 
ENDBRANCH  16  19
ENDBRANCH  11  13
BRANCH   8  22
ATOM     22  C   UNL     1      -0.801   4.969  -3.353  0.00  0.00    +0.438 C 
ATOM     23  F   UNL     1       0.109   4.132  -4.007  0.00  0.00    -0.166 F 
ATOM     24  F   UNL     1      -1.679   5.526  -4.289  0.00  0.00    -0.166 F 
ATOM     25  F   UNL     1      -0.107   5.992  -2.698  0.00  0.00    -0.166 F 
ENDBRANCH   8  22
BRANCH   8  26
ATOM     26  O   UNL     1      -2.371   3.147  -2.980  0.00  0.00    -0.363 OA
ATOM     27  H   UNL     1      -2.981   3.490  -3.648  0.00  0.00    +0.212 HD
ENDBRANCH   8  26
TORSDOF 4
