REMARK  Name = ZINC43216055
REMARK  6 active torsions:
REMARK  status: ('A' for Active; 'I' for Inactive)
REMARK    1  A    between atoms: C_1  and  C_2
REMARK    2  A    between atoms: C_9  and  C_10
REMARK    3  A    between atoms: C_9  and  C_11
REMARK    4  A    between atoms: C_13  and  N_15
REMARK    5  A    between atoms: C_16  and  C_18
REMARK    6  A    between atoms: C_21  and  C_23
REMARK                            x       y       z     vdW  Elec       q    Type
REMARK                         _______ _______ _______ _____ _____    ______ ____
ROOT
ATOM      1  N   UNL     1       0.257  -1.046   2.694  0.00  0.00    -0.307 N 
ATOM      2  C   UNL     1       0.909  -1.189   3.865  0.00  0.00    +0.266 C 
ATOM      3  O   UNL     1       2.118  -1.315   3.877  0.00  0.00    -0.268 OA
ATOM      4  H   UNL     1      -0.708  -0.946   2.684  0.00  0.00    +0.149 HD
ENDROOT
BRANCH   1  14
ATOM      5  C   UNL     1       0.289   1.226   0.645  0.00  0.00    +0.009 C 
ATOM      6  C   UNL     1       0.214  -0.277   0.366  0.00  0.00    +0.010 C 
ATOM      7  C   UNL     1       0.841  -0.582  -1.006  0.00  0.00    -0.000 C 
ATOM      8  C   UNL     1       2.297  -1.066  -0.849  0.00  0.00    +0.008 C 
ATOM      9  C   UNL     1       1.679  -2.439  -0.514  0.00  0.00    -0.003 C 
ATOM     10  C   UNL     1       0.515  -2.018  -1.460  0.00  0.00    -0.029 C 
ATOM     11  C   UNL     1      -0.866  -2.506  -1.020  0.00  0.00    +0.011 C 
ATOM     12  C   UNL     1       0.800  -2.277  -2.941  0.00  0.00    +0.011 C 
ATOM     13  C   UNL     1       1.224  -2.491   0.955  0.00  0.00    +0.026 C 
ATOM     14  C   UNL     1       1.006  -1.043   1.435  0.00  0.00    +0.077 C 
ENDBRANCH   1  14
BRANCH   2  15
ATOM     15  C   UNL     1       0.155  -1.192   5.132  0.00  0.00    +0.163 A 
ATOM     16  C   UNL     1       0.676  -1.321   6.382  0.00  0.00    +0.230 A 
ATOM     17  O   UNL     1      -0.354  -1.271   7.242  0.00  0.00    -0.447 OA
ATOM     18  C   UNL     1      -1.482  -1.115   6.537  0.00  0.00    +0.199 A 
ATOM     19  N   UNL     1      -1.192  -1.062   5.271  0.00  0.00    -0.208 NA
BRANCH  18  20
ATOM     20  C   UNL     1      -2.869  -1.014   7.119  0.00  0.00    +0.072 C 
ATOM     21  C   UNL     1      -2.940   0.188   8.065  0.00  0.00    -0.006 C 
ATOM     22  C   UNL     1      -4.325   0.239   8.713  0.00  0.00    -0.082 C 
ATOM     23  N   UNL     1      -4.560  -0.996   9.471  0.00  0.00    +0.379 N 
ATOM     24  C   UNL     1      -4.564  -2.147   8.559  0.00  0.00    -0.082 C 
ATOM     25  C   UNL     1      -3.188  -2.289   7.905  0.00  0.00    -0.006 C 
ATOM     26  H   UNL     1      -3.829  -1.114  10.156  0.00  0.00    -0.086 HD
ATOM     27  H   UNL     1      -5.451  -0.937   9.940  0.00  0.00    -0.086 HD
ENDBRANCH  18  20
ENDBRANCH   2  15
TORSDOF 3
