REMARK  Name = ZINC13494851
REMARK  13 active torsions:
REMARK  status: ('A' for Active; 'I' for Inactive)
REMARK    1  A    between atoms: C_1  and  C_2
REMARK    2  A    between atoms: C_2  and  C_3
REMARK    3  A    between atoms: C_3  and  C_5
REMARK    4  A    between atoms: C_3  and  N_16
REMARK    5  A    between atoms: N_9  and  C_10
REMARK    6  A    between atoms: N_16  and  C_17
REMARK    7  A    between atoms: N_16  and  C_25
REMARK    8  A    between atoms: C_17  and  C_18
REMARK    9  A    between atoms: C_21  and  C_24
REMARK   10  A    between atoms: C_25  and  C_26
REMARK   11  A    between atoms: C_30  and  O_38
REMARK   12  A    between atoms: O_38  and  C_39
REMARK   13  A    between atoms: C_39  and  C_40
REMARK                            x       y       z     vdW  Elec       q    Type
REMARK                         _______ _______ _______ _____ _____    ______ ____
ROOT
ATOM      1  N   UNL     1      -0.301  -0.352  -2.763  0.00  0.00    -0.284 NA
ENDROOT
BRANCH   1   2
ATOM      2  C   UNL     1       0.458  -1.230  -1.863  0.00  0.00    +0.127 C 
BRANCH   2   3
ATOM      3  C   UNL     1       0.296  -2.662  -2.303  0.00  0.00    +0.169 A 
ATOM      4  N   UNL     1      -0.820  -3.250  -2.660  0.00  0.00    -0.112 NA
ATOM      5  N   UNL     1      -0.546  -4.471  -2.967  0.00  0.00    -0.023 NA
ATOM      6  N   UNL     1       0.715  -4.678  -2.815  0.00  0.00    -0.044 NA
ATOM      7  N   UNL     1       1.270  -3.585  -2.412  0.00  0.00    -0.225 N 
BRANCH   7   8
ATOM      8  C   UNL     1       2.693  -3.386  -2.124  0.00  0.00    +0.111 C 
ATOM      9  C   UNL     1       3.512  -3.660  -3.387  0.00  0.00    +0.027 C 
ATOM     10  C   UNL     1       4.998  -3.453  -3.086  0.00  0.00    +0.002 C 
ATOM     11  C   UNL     1       5.432  -4.414  -1.977  0.00  0.00    +0.000 C 
ATOM     12  C   UNL     1       4.613  -4.139  -0.714  0.00  0.00    +0.002 C 
ATOM     13  C   UNL     1       3.127  -4.347  -1.015  0.00  0.00    +0.027 C 
ENDBRANCH   7   8
ENDBRANCH   2   3
BRANCH   2  15
ATOM     14  C   UNL     1       0.151   0.367   0.034  0.00  0.00    +0.006 C 
ATOM     15  C   UNL     1      -0.068  -1.073  -0.435  0.00  0.00    +0.023 C 
ENDBRANCH   2  15
ENDBRANCH   1   2
BRANCH   1  16
ATOM     16  C   UNL     1      -1.729  -0.352  -2.419  0.00  0.00    +0.120 C 
BRANCH  16  17
ATOM     17  C   UNL     1      -2.524   0.201  -3.574  0.00  0.00    -0.033 A 
ATOM     18  C   UNL     1      -2.889   1.534  -3.586  0.00  0.00    +0.005 A 
ATOM     19  C   UNL     1      -3.619   2.041  -4.644  0.00  0.00    +0.003 A 
ATOM     20  C   UNL     1      -3.982   1.216  -5.692  0.00  0.00    -0.050 A 
ATOM     21  C   UNL     1      -3.616  -0.117  -5.680  0.00  0.00    +0.003 A 
ATOM     22  C   UNL     1      -2.883  -0.624  -4.623  0.00  0.00    +0.005 A 
ATOM     23  C   UNL     1      -4.778   1.769  -6.846  0.00  0.00    +0.044 C 
ENDBRANCH  16  17
ENDBRANCH   1  16
BRANCH   1  24
ATOM     24  C   UNL     1       0.244   1.012  -2.751  0.00  0.00    +0.126 C 
BRANCH  24  25
ATOM     25  C   UNL     1       1.502   1.058  -3.578  0.00  0.00    +0.031 A 
ATOM     26  C   UNL     1       1.437   1.395  -4.890  0.00  0.00    +0.020 A 
ATOM     27  C   UNL     1       2.677   1.431  -5.666  0.00  0.00    +0.002 A 
ATOM     28  C   UNL     1       2.671   1.772  -7.023  0.00  0.00    +0.055 A 
ATOM     29  C   UNL     1       3.858   1.797  -7.725  0.00  0.00    +0.121 A 
ATOM     30  C   UNL     1       5.058   1.484  -7.089  0.00  0.00    +0.047 A 
ATOM     31  C   UNL     1       5.077   1.147  -5.754  0.00  0.00    +0.030 A 
ATOM     32  C   UNL     1       3.891   1.116  -5.028  0.00  0.00    +0.049 A 
ATOM     33  N   UNL     1       3.890   0.781  -3.689  0.00  0.00    -0.322 N 
ATOM     34  H   UNL     1       4.727   0.565  -3.250  0.00  0.00    +0.169 HD
ATOM     35  C   UNL     1       2.746   0.757  -2.983  0.00  0.00    +0.254 A 
ATOM     36  O   UNL     1       2.784   0.462  -1.801  0.00  0.00    -0.268 OA
BRANCH  29  37
ATOM     37  O   UNL     1       3.858   2.127  -9.044  0.00  0.00    -0.492 OA
BRANCH  37  38
ATOM     38  C   UNL     1       5.122   2.133  -9.711  0.00  0.00    +0.225 C 
ATOM     39  C   UNL     1       4.922   2.525 -11.177  0.00  0.00    +0.048 C 
ENDBRANCH  37  38
ENDBRANCH  29  37
ENDBRANCH  24  25
ENDBRANCH   1  24
TORSDOF 10
