REMARK  Name = ZINC49107036
REMARK  6 active torsions:
REMARK  status: ('A' for Active; 'I' for Inactive)
REMARK    1  A    between atoms: C_1  and  C_2
REMARK    2  A    between atoms: C_2  and  C_4
REMARK    3  A    between atoms: C_2  and  N_8
REMARK    4  A    between atoms: N_6  and  C_7
REMARK    5  A    between atoms: N_8  and  C_9
REMARK    6  A    between atoms: C_9  and  C_20
REMARK                            x       y       z     vdW  Elec       q    Type
REMARK                         _______ _______ _______ _____ _____    ______ ____
ROOT
ATOM      1  C   UNL     1      -1.989  -0.015  -1.102  0.00  0.00    +0.062 C 
ATOM      2  C   UNL     1      -3.416   0.437  -1.407  0.00  0.00    +0.003 C 
ATOM      3  C   UNL     1      -4.238   0.333  -0.121  0.00  0.00    -0.000 C 
ATOM      4  C   UNL     1      -3.640   1.243   0.947  0.00  0.00    +0.005 C 
ATOM      5  C   UNL     1      -3.053   2.467   0.239  0.00  0.00    +0.035 C 
ATOM      6  C   UNL     1      -1.591   2.268  -0.064  0.00  0.00    -0.045 A 
ATOM      7  C   UNL     1      -1.113   1.146  -0.700  0.00  0.00    -0.044 A 
ATOM      8  C   UNL     1       0.242   1.049  -0.992  0.00  0.00    +0.003 A 
ATOM      9  C   UNL     1       1.113   2.054  -0.626  0.00  0.00    +0.000 A 
ATOM     10  C   UNL     1       0.636   3.168   0.039  0.00  0.00    +0.000 A 
ATOM     11  C   UNL     1      -0.711   3.273   0.317  0.00  0.00    +0.004 A 
ENDROOT
BRANCH   1  12
ATOM     12  N   UNL     1      -2.019  -0.995  -0.008  0.00  0.00    +0.400 N 
ATOM     13  H   UNL     1      -2.436  -0.574   0.809  0.00  0.00    -0.083 HD
ATOM     14  H   UNL     1      -1.078  -1.288   0.208  0.00  0.00    -0.083 HD
BRANCH  12  16
ATOM     15  C   UNL     1      -1.938  -3.115  -1.230  0.00  0.00    -0.004 C 
ATOM     16  C   UNL     1      -2.814  -2.161  -0.416  0.00  0.00    +0.015 C 
BRANCH  16  17
ATOM     17  C   UNL     1      -3.328  -2.872   0.808  0.00  0.00    +0.199 C 
ATOM     18  O   UNL     1      -3.060  -2.449   1.913  0.00  0.00    -0.278 OA
ATOM     19  N   UNL     1      -4.087  -3.978   0.676  0.00  0.00    -0.320 N 
ATOM     20  C   UNL     1      -4.588  -4.670   1.867  0.00  0.00    +0.128 C 
ATOM     21  H   UNL     1      -4.302  -4.316  -0.207  0.00  0.00    +0.148 HD
ENDBRANCH  16  17
ENDBRANCH  12  16
ENDBRANCH   1  12
BRANCH   1  22
ATOM     22  C   UNL     1      -1.408  -0.667  -2.330  0.00  0.00    +0.350 C 
ATOM     23  O   UNL     1      -0.434  -1.395  -2.231  0.00  0.00    -0.248 OA
ATOM     24  O   UNL     1      -1.911  -0.467  -3.422  0.00  0.00    -0.248 OA
ENDBRANCH   1  22
TORSDOF 4
