REMARK  Name = ZINC39710938
REMARK  12 active torsions:
REMARK  status: ('A' for Active; 'I' for Inactive)
REMARK    1  A    between atoms: C_1  and  C_2
REMARK    2  A    between atoms: C_8  and  C_14
REMARK    3  A    between atoms: C_14  and  C_16
REMARK    4  A    between atoms: C_14  and  N_25
REMARK    5  A    between atoms: N_20  and  C_21
REMARK    6  A    between atoms: C_21  and  C_22
REMARK    7  A    between atoms: C_22  and  O_23
REMARK    8  A    between atoms: O_23  and  C_24
REMARK    9  A    between atoms: N_25  and  C_26
REMARK   10  A    between atoms: N_25  and  C_34
REMARK   11  A    between atoms: C_26  and  C_27
REMARK   12  A    between atoms: C_34  and  C_35
REMARK                            x       y       z     vdW  Elec       q    Type
REMARK                         _______ _______ _______ _____ _____    ______ ____
ROOT
ATOM      1  C   UNL     1      -1.568  -2.983   4.553  0.00  0.00    +0.019 C 
ENDROOT
BRANCH   1   9
ATOM      2  C   UNL     1       2.222  -4.034  -0.159  0.00  0.00    +0.045 C 
ATOM      3  C   UNL     1       2.474  -3.952   1.324  0.00  0.00    -0.029 A 
ATOM      4  C   UNL     1       3.637  -4.432   1.838  0.00  0.00    +0.005 A 
ATOM      5  C   UNL     1       3.932  -4.386   3.201  0.00  0.00    +0.001 A 
ATOM      6  C   UNL     1       3.061  -3.854   4.096  0.00  0.00    +0.009 A 
ATOM      7  C   UNL     1       1.789  -3.319   3.611  0.00  0.00    -0.007 A 
ATOM      8  C   UNL     1       0.884  -2.775   4.473  0.00  0.00    -0.006 C 
ATOM      9  C   UNL     1      -0.408  -2.245   3.882  0.00  0.00    +0.092 C 
ATOM     10  C   UNL     1      -0.587  -2.364   2.385  0.00  0.00    +0.223 C 
ATOM     11  O   UNL     1      -1.605  -1.955   1.858  0.00  0.00    -0.275 OA
ATOM     12  N   UNL     1       0.366  -2.913   1.651  0.00  0.00    -0.284 N 
ATOM     13  C   UNL     1       1.505  -3.375   2.166  0.00  0.00    +0.043 A 
ATOM     14  H   UNL     1       0.231  -2.979   0.693  0.00  0.00    +0.155 HD
ENDBRANCH   1   9
BRANCH   1  15
ATOM     15  C   UNL     1      -1.375  -4.470   4.398  0.00  0.00    +0.139 A 
ATOM     16  N   UNL     1      -0.562  -5.230   5.090  0.00  0.00    -0.115 NA
ATOM     17  N   UNL     1      -0.686  -6.438   4.661  0.00  0.00    -0.023 NA
ATOM     18  N   UNL     1      -1.557  -6.469   3.713  0.00  0.00    -0.044 NA
ATOM     19  N   UNL     1      -2.009  -5.275   3.525  0.00  0.00    -0.229 N 
BRANCH  19  20
ATOM     20  C   UNL     1      -3.018  -4.872   2.543  0.00  0.00    +0.175 C 
BRANCH  20  21
ATOM     21  C   UNL     1      -2.357  -4.691   1.176  0.00  0.00    +0.183 C 
BRANCH  21  22
ATOM     22  O   UNL     1      -3.334  -4.261   0.227  0.00  0.00    -0.381 OA
ATOM     23  C   UNL     1      -2.817  -4.061  -1.091  0.00  0.00    +0.194 C 
ENDBRANCH  21  22
ENDBRANCH  20  21
ENDBRANCH  19  20
ENDBRANCH   1  15
BRANCH   1  24
ATOM     24  N   UNL     1      -1.606  -2.641   5.981  0.00  0.00    +0.394 N 
ATOM     25  H   UNL     1      -0.715  -2.859   6.403  0.00  0.00    -0.080 HD
BRANCH  24  26
ATOM     26  C   UNL     1      -2.664  -3.416   6.643  0.00  0.00    -0.041 C 
BRANCH  26  27
ATOM     27  C   UNL     1      -3.985  -3.133   5.976  0.00  0.00    -0.064 A 
ATOM     28  C   UNL     1      -4.721  -2.022   6.344  0.00  0.00    +0.003 A 
ATOM     29  C   UNL     1      -5.933  -1.762   5.734  0.00  0.00    +0.020 A 
ATOM     30  C   UNL     1      -6.410  -2.614   4.753  0.00  0.00    +0.041 A 
ATOM     31  C   UNL     1      -5.674  -3.726   4.385  0.00  0.00    +0.020 A 
ATOM     32  C   UNL     1      -4.459  -3.982   4.993  0.00  0.00    +0.003 A 
ATOM     33 CL   UNL     1      -7.933  -2.288   3.986  0.00  0.00    -0.084 Cl
ENDBRANCH  26  27
ENDBRANCH  24  26
BRANCH  24  34
ATOM     34  C   UNL     1      -1.882  -1.206   6.133  0.00  0.00    -0.002 C 
BRANCH  34  35
ATOM     35  C   UNL     1      -1.778  -0.826   7.588  0.00  0.00    +0.089 A 
ATOM     36  C   UNL     1      -0.688  -0.320   8.193  0.00  0.00    +0.042 A 
ATOM     37  C   UNL     1      -1.032  -0.113   9.549  0.00  0.00    +0.041 A 
ATOM     38  C   UNL     1      -2.311  -0.505   9.691  0.00  0.00    +0.195 A 
ATOM     39  O   UNL     1      -2.759  -0.930   8.499  0.00  0.00    -0.470 OA
ENDBRANCH  34  35
ENDBRANCH  24  34
ENDBRANCH   1  24
TORSDOF 10
