REMARK  Name = ZINC25781724
REMARK  10 active torsions:
REMARK  status: ('A' for Active; 'I' for Inactive)
REMARK    1  A    between atoms: C_1  and  C_2
REMARK    2  A    between atoms: C_9  and  C_11
REMARK    3  A    between atoms: C_12  and  C_35
REMARK    4  A    between atoms: C_16  and  C_18
REMARK    5  A    between atoms: C_20  and  O_26
REMARK    6  A    between atoms: C_23  and  O_24
REMARK    7  A    between atoms: O_24  and  C_25
REMARK    8  A    between atoms: O_26  and  C_27
REMARK    9  A    between atoms: C_31  and  C_33
REMARK   10  A    between atoms: C_31  and  C_34
REMARK                            x       y       z     vdW  Elec       q    Type
REMARK                         _______ _______ _______ _____ _____    ______ ____
ROOT
ATOM      1  C   UNL     1       4.860  -2.695  -0.092  0.00  0.00    +0.043 C 
ATOM      2  C   UNL     1       4.812  -4.036  -0.145  0.00  0.00    +0.014 C 
ATOM      3  N   UNL     1       5.965  -4.771  -0.169  0.00  0.00    -0.321 N 
ATOM      4  C   UNL     1       7.151  -4.195  -0.538  0.00  0.00    +0.016 C 
ATOM      5  C   UNL     1       7.301  -2.854  -0.502  0.00  0.00    +0.024 C 
ATOM      6  C   UNL     1       6.170  -1.964  -0.057  0.00  0.00    +0.094 C 
ATOM      7  C   UNL     1       8.513  -2.249  -0.878  0.00  0.00    +0.162 C 
ATOM      8  O   UNL     1       8.609  -1.038  -0.851  0.00  0.00    -0.292 OA
ATOM      9  C   UNL     1       9.693  -3.074  -1.315  0.00  0.00    +0.086 C 
ATOM     10  C   UNL     1       9.620  -4.446  -0.635  0.00  0.00    -0.023 C 
ATOM     11  C   UNL     1       8.278  -5.091  -0.988  0.00  0.00    +0.058 C 
ATOM     12  C   UNL     1       9.725  -4.274   0.881  0.00  0.00    +0.011 C 
ATOM     13  C   UNL     1      10.763  -5.332  -1.133  0.00  0.00    +0.011 C 
ATOM     14  C   UNL     1       3.477  -4.736  -0.177  0.00  0.00    +0.061 C 
ATOM     15  H   UNL     1       5.945  -5.835   0.110  0.00  0.00    +0.152 HD
ENDROOT
BRANCH   1  24
ATOM     16  C   UNL     1      -1.078  -0.385   3.484  0.00  0.00    +0.044 C 
ATOM     17  C   UNL     1      -0.242  -0.474   2.233  0.00  0.00    -0.046 A 
ATOM     18  C   UNL     1      -0.692   0.071   1.038  0.00  0.00    +0.023 A 
ATOM     19  C   UNL     1       0.098  -0.029  -0.090  0.00  0.00    +0.113 A 
ATOM     20  N   UNL     1       1.270  -0.634  -0.044  0.00  0.00    -0.240 NA
ATOM     21  C   UNL     1       1.733  -1.166   1.076  0.00  0.00    +0.125 A 
ATOM     22  C   UNL     1       0.991  -1.103   2.250  0.00  0.00    +0.047 A 
ATOM     23  N   UNL     1       2.976  -1.795   1.078  0.00  0.00    -0.267 N 
ATOM     24  C   UNL     1       3.652  -1.956  -0.076  0.00  0.00    +0.248 C 
ATOM     25  O   UNL     1       3.224  -1.467  -1.106  0.00  0.00    -0.270 OA
ATOM     26  H   UNL     1       3.406  -2.160   2.023  0.00  0.00    +0.157 HD
ENDBRANCH   1  24
BRANCH   6  27
ATOM     27  C   UNL     1       6.438  -1.498   1.351  0.00  0.00    +0.010 A 
ATOM     28  C   UNL     1       6.537  -2.418   2.376  0.00  0.00    +0.053 A 
ATOM     29  C   UNL     1       6.784  -1.989   3.672  0.00  0.00    +0.121 A 
ATOM     30  C   UNL     1       6.933  -0.636   3.938  0.00  0.00    +0.049 A 
ATOM     31  C   UNL     1       6.835   0.284   2.912  0.00  0.00    +0.049 A 
ATOM     32  C   UNL     1       6.592  -0.145   1.616  0.00  0.00    +0.124 A 
BRANCH  32  33
ATOM     33  O   UNL     1       6.501   0.760   0.606  0.00  0.00    -0.495 OA
ATOM     34  C   UNL     1       6.670   2.137   0.951  0.00  0.00    +0.277 C 
ENDBRANCH  32  33
BRANCH  29  35
ATOM     35  O   UNL     1       6.880  -2.895   4.681  0.00  0.00    -0.495 OA
ATOM     36  C   UNL     1       7.137  -2.383   5.990  0.00  0.00    +0.277 C 
ENDBRANCH  29  35
ENDBRANCH   6  27
TORSDOF 4
