REMARK  Name = ZINC62349643
REMARK  8 active torsions:
REMARK  status: ('A' for Active; 'I' for Inactive)
REMARK    1  A    between atoms: C_1  and  C_2
REMARK    2  A    between atoms: C_5  and  C_11
REMARK    3  A    between atoms: C_7  and  N_8
REMARK    4  A    between atoms: C_11  and  C_13
REMARK    5  A    between atoms: C_13  and  N_14
REMARK    6  A    between atoms: N_14  and  C_15
REMARK    7  A    between atoms: N_14  and  C_16
REMARK    8  A    between atoms: C_16  and  C_17
REMARK                            x       y       z     vdW  Elec       q    Type
REMARK                         _______ _______ _______ _____ _____    ______ ____
ROOT
ATOM      1  C   UNL     1       0.578  -4.220  -0.099  0.00  0.00    +0.124 C 
ATOM      2 CL   UNL     1      -0.837  -5.087  -0.805  0.00  0.00    -0.115 Cl
ENDROOT
BRANCH   1   7
ATOM      3  C   UNL     1      -0.537   1.447   0.088  0.00  0.00    +0.046 C 
ATOM      4  C   UNL     1      -0.246  -0.031   0.039  0.00  0.00    -0.020 A 
ATOM      5  C   UNL     1      -0.347  -0.716  -1.157  0.00  0.00    +0.006 A 
ATOM      6  C   UNL     1      -0.080  -2.071  -1.202  0.00  0.00    +0.005 A 
ATOM      7  C   UNL     1       0.288  -2.742  -0.051  0.00  0.00    -0.026 A 
ATOM      8  C   UNL     1       0.390  -2.057   1.145  0.00  0.00    +0.038 A 
ATOM      9  C   UNL     1       0.127  -0.700   1.190  0.00  0.00    +0.129 A 
BRANCH   9  10
ATOM     10  N   UNL     1       0.241   0.035   2.470  0.00  0.00    +0.057 N 
ATOM     11  O   UNL     1       0.674   1.163   2.482  0.00  0.00    -0.126 OA
ATOM     12  O   UNL     1      -0.099  -0.494   3.502  0.00  0.00    -0.126 OA
ENDBRANCH   9  10
ENDBRANCH   1   7
BRANCH   1  13
ATOM     13  C   UNL     1       1.813  -4.469  -0.967  0.00  0.00    +0.108 C 
BRANCH  13  14
ATOM     14  N   UNL     1       2.096  -5.910  -1.015  0.00  0.00    -0.299 NA
ATOM     15  C   UNL     1       2.491  -6.413   0.308  0.00  0.00    +0.105 C 
BRANCH  14  16
ATOM     16  C   UNL     1       3.123  -6.212  -2.021  0.00  0.00    +0.119 C 
BRANCH  16  17
ATOM     17  C   UNL     1       3.211  -7.703  -2.216  0.00  0.00    -0.033 A 
ATOM     18  C   UNL     1       4.074  -8.453  -1.439  0.00  0.00    +0.005 A 
ATOM     19  C   UNL     1       4.155  -9.821  -1.618  0.00  0.00    +0.000 A 
ATOM     20  C   UNL     1       3.373 -10.440  -2.574  0.00  0.00    +0.000 A 
ATOM     21  C   UNL     1       2.509  -9.691  -3.351  0.00  0.00    +0.000 A 
ATOM     22  C   UNL     1       2.425  -8.323  -3.169  0.00  0.00    +0.005 A 
ENDBRANCH  16  17
ENDBRANCH  14  16
ENDBRANCH  13  14
ENDBRANCH   1  13
TORSDOF 6
