REMARK  Name = ZINC67406669
REMARK  7 active torsions:
REMARK  status: ('A' for Active; 'I' for Inactive)
REMARK    1  A    between atoms: C_1  and  C_2
REMARK    2  A    between atoms: C_9  and  C_11
REMARK    3  A    between atoms: C_11  and  C_13
REMARK    4  A    between atoms: C_11  and  N_14
REMARK    5  A    between atoms: N_17  and  C_18
REMARK    6  A    between atoms: C_22  and  S_24
REMARK    7  A    between atoms: S_24  and  N_27
REMARK                            x       y       z     vdW  Elec       q    Type
REMARK                         _______ _______ _______ _____ _____    ______ ____
ROOT
ATOM      1  N   UNL     1       2.476   0.913   4.128  0.00  0.00    -0.288 N 
ATOM      2  C   UNL     1       3.579   0.866   4.901  0.00  0.00    +0.304 C 
ATOM      3  O   UNL     1       4.387  -0.031   4.753  0.00  0.00    -0.252 OA
ATOM      4  N   UNL     1       3.786   1.811   5.839  0.00  0.00    -0.269 N 
ATOM      5  H   UNL     1       1.831   1.628   4.247  0.00  0.00    +0.151 HD
ATOM      6  H   UNL     1       3.108   2.484   6.007  0.00  0.00    +0.156 HD
ENDROOT
BRANCH   4   7
ATOM      7  C   UNL     1       4.979   1.822   6.570  0.00  0.00    +0.037 A 
ATOM      8  C   UNL     1       4.977   2.221   7.901  0.00  0.00    +0.023 A 
ATOM      9  C   UNL     1       6.155   2.230   8.620  0.00  0.00    +0.004 A 
ATOM     10  C   UNL     1       7.338   1.842   8.016  0.00  0.00    +0.028 A 
ATOM     11  C   UNL     1       7.344   1.445   6.692  0.00  0.00    +0.107 A 
ATOM     12  C   UNL     1       6.167   1.428   5.969  0.00  0.00    +0.051 A 
BRANCH  11  13
ATOM     13  S   UNL     1       8.854   0.954   5.928  0.00  0.00    +0.056 S 
ATOM     14  O   UNL     1       8.684   1.148   4.530  0.00  0.00    -0.153 OA
ATOM     15  O   UNL     1       9.901   1.574   6.661  0.00  0.00    -0.153 OA
BRANCH  13  16
ATOM     16  N   UNL     1       9.013  -0.678   6.162  0.00  0.00    -0.204 NA
ATOM     17  H   UNL     1       8.331  -1.167   6.649  0.00  0.00    +0.144 HD
ATOM     18  H   UNL     1       9.788  -1.145   5.813  0.00  0.00    +0.144 HD
ENDBRANCH  13  16
ENDBRANCH  11  13
ENDBRANCH   4   7
BRANCH   1  19
ATOM     19  C   UNL     1       2.251  -0.115   3.109  0.00  0.00    +0.157 C 
ATOM     20  C   UNL     1       1.571  -1.327   3.749  0.00  0.00    +0.038 C 
BRANCH  19  28
ATOM     21  C   UNL     1       0.118   1.784   0.057  0.00  0.00    +0.028 C 
ATOM     22  C   UNL     1       0.397   0.305  -0.221  0.00  0.00    +0.073 C 
ATOM     23  C   UNL     1       1.234   0.172  -1.497  0.00  0.00    +0.022 C 
ATOM     24  C   UNL     1       1.626  -1.294  -1.694  0.00  0.00    +0.003 C 
ATOM     25  C   UNL     1       2.475  -1.760  -0.508  0.00  0.00    +0.019 C 
ATOM     26  C   UNL     1       1.651  -1.649   0.779  0.00  0.00    +0.108 C 
ATOM     27  N   UNL     1       1.145  -0.275   0.902  0.00  0.00    -0.297 N 
ATOM     28  C   UNL     1       1.367   0.441   2.022  0.00  0.00    +0.236 C 
ATOM     29  O   UNL     1       0.855   1.532   2.156  0.00  0.00    -0.274 OA
ENDBRANCH  19  28
ENDBRANCH   1  19
TORSDOF 5
