REMARK  Name = ZINC35711705
REMARK  15 active torsions:
REMARK  status: ('A' for Active; 'I' for Inactive)
REMARK    1  A    between atoms: C_1  and  C_2
REMARK    2  A    between atoms: C_2  and  C_3
REMARK    3  A    between atoms: C_3  and  N_4
REMARK    4  A    between atoms: C_5  and  C_37
REMARK    5  A    between atoms: C_6  and  C_30
REMARK    6  A    between atoms: C_7  and  C_12
REMARK    7  A    between atoms: C_15  and  N_18
REMARK    8  A    between atoms: N_21  and  C_22
REMARK    9  A    between atoms: C_25  and  S_28
REMARK   10  A    between atoms: S_28  and  C_29
REMARK   11  A    between atoms: C_30  and  O_32
REMARK   12  A    between atoms: O_32  and  C_33
REMARK   13  A    between atoms: C_33  and  C_34
REMARK   14  A    between atoms: C_34  and  C_35
REMARK   15  A    between atoms: C_34  and  C_36
REMARK                            x       y       z     vdW  Elec       q    Type
REMARK                         _______ _______ _______ _____ _____    ______ ____
ROOT
ATOM      1  C   UNL     1       0.374  -5.586  -0.085  0.00  0.00    -0.022 A 
ATOM      2  C   UNL     1      -0.361  -5.026   0.945  0.00  0.00    +0.007 A 
ATOM      3  C   UNL     1      -0.738  -5.799   2.026  0.00  0.00    +0.024 A 
ATOM      4  C   UNL     1      -0.378  -7.139   2.078  0.00  0.00    +0.035 A 
ATOM      5  C   UNL     1       0.360  -7.698   1.043  0.00  0.00    +0.024 A 
ATOM      6  C   UNL     1       0.729  -6.922  -0.038  0.00  0.00    +0.007 A 
ENDROOT
BRANCH   1  10
ATOM      7  N   UNL     1       0.779  -1.976  -1.364  0.00  0.00    -0.259 N 
ATOM      8  C   UNL     1       1.922  -2.590  -0.936  0.00  0.00    +0.024 C 
ATOM      9  C   UNL     1       2.002  -3.936  -0.859  0.00  0.00    +0.078 C 
ATOM     10  C   UNL     1       0.783  -4.740  -1.263  0.00  0.00    +0.143 C 
ATOM     11  N   UNL     1      -0.398  -3.982  -1.709  0.00  0.00    -0.288 N 
ATOM     12  C   UNL     1      -0.327  -2.636  -1.727  0.00  0.00    +0.307 C 
ATOM     13  O   UNL     1      -1.298  -2.002  -2.090  0.00  0.00    -0.252 OA
ATOM     14  C   UNL     1       3.111  -1.753  -0.545  0.00  0.00    +0.061 C 
ATOM     15  H   UNL     1      -1.209  -4.441  -1.980  0.00  0.00    +0.151 HD
BRANCH   9  16
ATOM     16  C   UNL     1       3.185  -4.574  -0.417  0.00  0.00    +0.339 C 
ATOM     17  O   UNL     1       4.153  -3.908  -0.099  0.00  0.00    -0.245 OA
BRANCH  16  18
ATOM     18  O   UNL     1       3.241  -5.920  -0.349  0.00  0.00    -0.461 OA
BRANCH  18  19
ATOM     19  C   UNL     1       4.467  -6.497   0.105  0.00  0.00    +0.235 C 
BRANCH  19  20
ATOM     20  C   UNL     1       4.341  -8.021   0.116  0.00  0.00    +0.020 C 
ATOM     21  C   UNL     1       4.162  -8.528  -1.317  0.00  0.00    +0.010 C 
ATOM     22  C   UNL     1       5.606  -8.634   0.719  0.00  0.00    +0.010 C 
ENDBRANCH  19  20
ENDBRANCH  18  19
ENDBRANCH  16  18
ENDBRANCH   9  16
BRANCH   7  23
ATOM     23  C   UNL     1       0.762  -0.512  -1.423  0.00  0.00    +0.114 C 
BRANCH  23  25
ATOM     24  C   UNL     1       1.349   1.481  -2.810  0.00  0.00    +0.005 C 
ATOM     25  C   UNL     1       1.368  -0.048  -2.748  0.00  0.00    +0.016 C 
ENDBRANCH  23  25
ENDBRANCH   7  23
ENDBRANCH   1  10
BRANCH   4  26
ATOM     26  N   UNL     1      -0.757  -7.925   3.173  0.00  0.00    -0.269 N 
ATOM     27  C   UNL     1      -1.945  -7.713   3.774  0.00  0.00    +0.308 C 
ATOM     28  O   UNL     1      -2.651  -6.790   3.418  0.00  0.00    -0.252 OA
ATOM     29  N   UNL     1      -2.350  -8.527   4.769  0.00  0.00    -0.269 N 
ATOM     30  H   UNL     1      -0.166  -8.621   3.498  0.00  0.00    +0.156 HD
ATOM     31  H   UNL     1      -1.754  -9.213   5.108  0.00  0.00    +0.156 HD
BRANCH  29  32
ATOM     32  C   UNL     1      -3.633  -8.380   5.316  0.00  0.00    +0.035 A 
ATOM     33  C   UNL     1      -4.695  -8.005   4.503  0.00  0.00    +0.024 A 
ATOM     34  C   UNL     1      -5.958  -7.861   5.040  0.00  0.00    +0.016 A 
ATOM     35  C   UNL     1      -6.167  -8.091   6.395  0.00  0.00    +0.008 A 
ATOM     36  C   UNL     1      -5.105  -8.467   7.207  0.00  0.00    +0.016 A 
ATOM     37  C   UNL     1      -3.843  -8.616   6.668  0.00  0.00    +0.024 A 
BRANCH  35  38
ATOM     38  S   UNL     1      -7.780  -7.907   7.081  0.00  0.00    -0.129 S 
ATOM     39  C   UNL     1      -7.557  -8.304   8.837  0.00  0.00    +0.090 C 
ENDBRANCH  35  38
ENDBRANCH  29  32
ENDBRANCH   4  26
TORSDOF 10
