REMARK  Name = ZINC63437318
REMARK  7 active torsions:
REMARK  status: ('A' for Active; 'I' for Inactive)
REMARK    1  A    between atoms: C_1  and  C_2
REMARK    2  A    between atoms: C_5  and  C_8
REMARK    3  A    between atoms: N_10  and  C_11
REMARK    4  A    between atoms: C_11  and  C_13
REMARK    5  A    between atoms: C_11  and  C_23
REMARK    6  A    between atoms: C_13  and  C_14
REMARK    7  A    between atoms: N_25  and  C_26
REMARK                            x       y       z     vdW  Elec       q    Type
REMARK                         _______ _______ _______ _____ _____    ______ ____
ROOT
ATOM      1  C   UNL     1      -1.593  -1.934   4.902  0.00  0.00    +0.163 C 
ENDROOT
BRANCH   1   4
ATOM      2  C   UNL     1      -1.381  -2.076   2.479  0.00  0.00    +0.217 C 
ATOM      3  O   UNL     1      -2.374  -1.387   2.381  0.00  0.00    -0.275 OA
ATOM      4  N   UNL     1      -0.907  -2.407   3.697  0.00  0.00    -0.303 N 
ATOM      5  H   UNL     1      -0.113  -2.958   3.775  0.00  0.00    +0.149 HD
BRANCH   2  10
ATOM      6  C   UNL     1      -0.002   1.534   0.017  0.00  0.00    +0.007 C 
ATOM      7  C   UNL     1       0.012   0.005   0.004  0.00  0.00    -0.014 C 
ATOM      8  C   UNL     1      -1.425  -0.519   0.012  0.00  0.00    +0.004 C 
ATOM      9  C   UNL     1      -1.411  -2.049  -0.000  0.00  0.00    +0.013 C 
ATOM     10  C   UNL     1      -0.675  -2.562   1.239  0.00  0.00    +0.075 C 
ATOM     11  C   UNL     1       0.762  -2.038   1.232  0.00  0.00    +0.013 C 
ATOM     12  C   UNL     1       0.748  -0.508   1.244  0.00  0.00    +0.004 C 
ENDBRANCH   2  10
ENDBRANCH   1   4
BRANCH   1  13
ATOM     13  C   UNL     1      -1.106  -0.551   5.248  0.00  0.00    +0.238 C 
ATOM     14  O   UNL     1      -0.268  -0.012   4.556  0.00  0.00    -0.273 OA
ATOM     15  N   UNL     1      -1.601   0.088   6.326  0.00  0.00    -0.283 N 
ATOM     16  H   UNL     1      -2.319  -0.313   6.841  0.00  0.00    +0.155 HD
BRANCH  15  17
ATOM     17  C   UNL     1      -1.079   1.331   6.704  0.00  0.00    +0.052 A 
ATOM     18  C   UNL     1      -0.654   2.241   5.740  0.00  0.00    +0.026 A 
ATOM     19  C   UNL     1      -0.145   3.458   6.163  0.00  0.00    +0.021 A 
ATOM     20  C   UNL     1      -0.076   3.727   7.518  0.00  0.00    +0.111 A 
ATOM     21  N   UNL     1      -0.487   2.843   8.406  0.00  0.00    -0.261 NA
ATOM     22  C   UNL     1      -0.983   1.676   8.046  0.00  0.00    +0.134 A 
ENDBRANCH  15  17
ENDBRANCH   1  13
BRANCH   1  23
ATOM     23  C   UNL     1      -1.296  -2.885   6.064  0.00  0.00    +0.065 C 
BRANCH  23  24
ATOM     24  C   UNL     1      -1.891  -4.238   5.771  0.00  0.00    -0.039 C 
ATOM     25  C   UNL     1      -1.262  -5.301   5.220  0.00  0.00    -0.001 A 
ATOM     26  C   UNL     1       0.112  -5.508   4.747  0.00  0.00    +0.010 A 
ATOM     27  C   UNL     1       0.454  -6.711   4.231  0.00  0.00    +0.001 A 
ATOM     28  C   UNL     1      -0.468  -7.762   4.138  0.00  0.00    +0.002 A 
ATOM     29  C   UNL     1      -1.748  -7.648   4.552  0.00  0.00    +0.026 A 
ATOM     30  C   UNL     1      -2.217  -6.427   5.111  0.00  0.00    +0.043 A 
ATOM     31  N   UNL     1      -3.391  -6.074   5.576  0.00  0.00    -0.380 N 
ATOM     32  C   UNL     1      -3.311  -4.684   6.038  0.00  0.00    +0.144 C 
ATOM     33  H   UNL     1      -4.179  -6.638   5.611  0.00  0.00    +0.160 HD
ENDBRANCH  23  24
ENDBRANCH   1  23
TORSDOF 6
