REMARK  Name = ZINC13363619
REMARK  12 active torsions:
REMARK  status: ('A' for Active; 'I' for Inactive)
REMARK    1  A    between atoms: C_1  and  C_2
REMARK    2  A    between atoms: C_4  and  C_34
REMARK    3  A    between atoms: C_5  and  N_9
REMARK    4  A    between atoms: C_6  and  C_8
REMARK    5  A    between atoms: C_10  and  C_12
REMARK    6  A    between atoms: C_12  and  N_13
REMARK    7  A    between atoms: C_14  and  C_16
REMARK    8  A    between atoms: C_16  and  S_17
REMARK    9  A    between atoms: S_17  and  C_18
REMARK   10  A    between atoms: C_22  and  C_32
REMARK   11  A    between atoms: N_28  and  C_29
REMARK   12  A    between atoms: C_29  and  C_30
REMARK                            x       y       z     vdW  Elec       q    Type
REMARK                         _______ _______ _______ _____ _____    ______ ____
ROOT
ATOM      1  C   UNL     1      -2.539   6.294  -3.379  0.00  0.00    +0.173 C 
ENDROOT
BRANCH   1   3
ATOM      2  N   UNL     1      -1.150   6.998  -5.301  0.00  0.00    -0.306 N 
ATOM      3  C   UNL     1      -1.207   6.599  -4.015  0.00  0.00    +0.224 C 
ATOM      4  O   UNL     1      -0.187   6.485  -3.370  0.00  0.00    -0.275 OA
ATOM      5  H   UNL     1      -1.966   7.089  -5.818  0.00  0.00    +0.149 HD
BRANCH   2   6
ATOM      6  C   UNL     1       0.145   7.294  -5.920  0.00  0.00    +0.200 C 
BRANCH   6   8
ATOM      7  N   UNL     1       0.991   8.039  -8.122  0.00  0.00    -0.284 N 
ATOM      8  C   UNL     1      -0.067   7.715  -7.351  0.00  0.00    +0.234 C 
ATOM      9  O   UNL     1      -1.189   7.764  -7.810  0.00  0.00    -0.274 OA
ATOM     10  H   UNL     1       1.883   8.051  -7.741  0.00  0.00    +0.155 HD
BRANCH   7  15
ATOM     11  C   UNL     1       0.226   9.326 -13.594  0.00  0.00    +0.044 C 
ATOM     12  C   UNL     1       0.429   8.984 -12.140  0.00  0.00    -0.050 A 
ATOM     13  C   UNL     1       1.135   9.846 -11.321  0.00  0.00    +0.008 A 
ATOM     14  C   UNL     1       1.323   9.535  -9.988  0.00  0.00    -0.029 A 
ATOM     15  C   UNL     1       0.802   8.356  -9.471  0.00  0.00    +0.039 A 
ATOM     16  C   UNL     1       0.098   7.490 -10.298  0.00  0.00    -0.029 A 
ATOM     17  C   UNL     1      -0.091   7.809 -11.629  0.00  0.00    +0.008 A 
ATOM     18  C   UNL     1      -0.465   6.207  -9.743  0.00  0.00    +0.045 C 
ATOM     19  C   UNL     1       2.091  10.475  -9.096  0.00  0.00    +0.045 C 
ENDBRANCH   7  15
ENDBRANCH   6   8
ENDBRANCH   2   6
ENDBRANCH   1   3
BRANCH   1  20
ATOM     20  S   UNL     1      -2.285   5.788  -1.660  0.00  0.00    -0.078 S 
BRANCH  20  21
ATOM     21  C   UNL     1      -3.955   5.502  -1.175  0.00  0.00    +0.173 A 
ATOM     22  N   UNL     1      -4.903   5.690  -2.060  0.00  0.00    -0.223 NA
ATOM     23  C   UNL     1      -6.207   5.495  -1.754  0.00  0.00    +0.080 A 
ATOM     24  C   UNL     1      -7.217   5.701  -2.697  0.00  0.00    +0.043 A 
ATOM     25  C   UNL     1      -8.542   5.487  -2.337  0.00  0.00    +0.065 A 
ATOM     26  C   UNL     1      -8.867   5.068  -1.041  0.00  0.00    +0.016 A 
ATOM     27  C   UNL     1      -7.888   4.864  -0.110  0.00  0.00    +0.016 A 
ATOM     28  C   UNL     1      -6.552   5.073  -0.450  0.00  0.00    +0.065 A 
ATOM     29  C   UNL     1      -5.466   4.864   0.521  0.00  0.00    +0.263 A 
ATOM     30  O   UNL     1      -5.699   4.501   1.659  0.00  0.00    -0.267 OA
ATOM     31  N   UNL     1      -4.200   5.090   0.103  0.00  0.00    -0.283 N 
BRANCH  25  32
ATOM     32  C   UNL     1      -9.617   5.703  -3.331  0.00  0.00    +0.387 C 
ATOM     33  O   UNL     1      -9.340   6.065  -4.456  0.00  0.00    -0.241 OA
ATOM     34  O   UNL     1     -10.902   5.497  -2.987  0.00  0.00    -0.241 OA
ENDBRANCH  25  32
BRANCH  31  35
ATOM     35  C   UNL     1      -3.083   4.898   1.031  0.00  0.00    +0.154 C 
BRANCH  35  36
ATOM     36  C   UNL     1      -2.593   3.475   0.939  0.00  0.00    -0.013 C 
ATOM     37  C   UNL     1      -1.332   3.232   0.678  0.00  0.00    +0.005 C 
ENDBRANCH  35  36
ENDBRANCH  31  35
ENDBRANCH  20  21
ENDBRANCH   1  20
TORSDOF 9
