REMARK  Name = ZINC12246752
REMARK  5 active torsions:
REMARK  status: ('A' for Active; 'I' for Inactive)
REMARK    1  A    between atoms: C_5  and  C_7
REMARK    2  A    between atoms: C_7  and  N_8
REMARK    3  A    between atoms: C_19  and  N_64
REMARK    4  A    between atoms: C_23  and  C_24
REMARK    5  A    between atoms: C_23  and  N_64
REMARK                            x       y       z     vdW  Elec       q    Type
REMARK                         _______ _______ _______ _____ _____    ______ ____
ROOT
ATOM      1  N   UNL     1      -0.698   1.558   1.213  0.00  0.00    -0.293 N 
ATOM      2  C   UNL     1      -0.336   2.746   1.763  0.00  0.00    +0.203 A 
ATOM      3  N   UNL     1      -0.926   3.204   2.834  0.00  0.00    -0.230 NA
ATOM      4  C   UNL     1      -1.896   2.514   3.428  0.00  0.00    +0.116 A 
ATOM      5  C   UNL     1      -2.336   1.275   2.937  0.00  0.00    +0.076 A 
ATOM      6  C   UNL     1      -1.671   0.804   1.757  0.00  0.00    +0.263 A 
ATOM      7  O   UNL     1      -1.982  -0.263   1.255  0.00  0.00    -0.267 OA
ATOM      8  C   UNL     1      -3.410   0.631   3.692  0.00  0.00    -0.023 A 
ATOM      9  C   UNL     1      -3.871   1.286   4.779  0.00  0.00    -0.006 A 
ATOM     10  S   UNL     1      -2.914   2.776   4.858  0.00  0.00    -0.073 S 
ATOM     11  C   UNL     1      -4.956   0.843   5.712  0.00  0.00    +0.027 C 
ATOM     12  C   UNL     1      -5.734  -0.299   5.043  0.00  0.00    -0.067 C 
ATOM     13  C   UNL     1      -4.732  -1.316   4.487  0.00  0.00    -0.011 C 
ATOM     14  C   UNL     1      -3.997  -0.718   3.287  0.00  0.00    +0.035 C 
ENDROOT
BRANCH  12  15
ATOM     15  N   UNL     1      -6.600  -0.959   6.039  0.00  0.00    +0.381 N 
ATOM     16  H   UNL     1      -6.127  -0.962   6.950  0.00  0.00    -0.086 HD
ATOM     17  H   UNL     1      -6.781  -1.925   5.743  0.00  0.00    -0.086 HD
BRANCH  15  18
ATOM     18  C   UNL     1      -7.882  -0.238   6.159  0.00  0.00    -0.078 C 
BRANCH  18  19
ATOM     19  C   UNL     1      -8.758  -0.944   7.196  0.00  0.00    -0.022 C 
ATOM     20  C   UNL     1      -9.120  -2.342   6.692  0.00  0.00    -0.009 C 
ATOM     21  C   UNL     1      -9.996  -3.047   7.730  0.00  0.00    +0.007 C 
ATOM     22  C   UNL     1     -11.275  -2.238   7.952  0.00  0.00    -0.010 C 
ATOM     23  C   UNL     1     -12.041  -2.122   6.633  0.00  0.00    +0.007 C 
ATOM     24  C   UNL     1     -11.165  -1.417   5.595  0.00  0.00    -0.010 C 
ATOM     25  C   UNL     1      -9.886  -2.226   5.373  0.00  0.00    +0.007 C 
ATOM     26  C   UNL     1     -10.803  -0.018   6.099  0.00  0.00    +0.007 C 
ATOM     27  C   UNL     1     -10.037  -0.135   7.419  0.00  0.00    -0.009 C 
ATOM     28  C   UNL     1     -10.913  -0.840   8.456  0.00  0.00    +0.007 C 
ENDBRANCH  18  19
ENDBRANCH  15  18
ENDBRANCH  12  15
BRANCH   1  29
ATOM     29  C   UNL     1      -0.013   1.086   0.008  0.00  0.00    +0.181 C 
BRANCH  29  34
ATOM     30  C   UNL     1      -1.001   3.200  -2.952  0.00  0.00    +0.003 A 
ATOM     31  C   UNL     1      -2.078   2.459  -3.415  0.00  0.00    +0.020 A 
ATOM     32  C   UNL     1      -2.437   1.304  -2.747  0.00  0.00    +0.111 A 
ATOM     33  N   UNL     1      -1.767   0.903  -1.684  0.00  0.00    -0.258 NA
ATOM     34  C   UNL     1      -0.742   1.585  -1.213  0.00  0.00    +0.061 A 
ATOM     35  C   UNL     1      -0.324   2.750  -1.829  0.00  0.00    +0.025 A 
ENDBRANCH  29  34
ENDBRANCH   1  29
TORSDOF 5
