REMARK  Name = ZINC09004956
REMARK  7 active torsions:
REMARK  status: ('A' for Active; 'I' for Inactive)
REMARK    1  A    between atoms: C_1  and  C_2
REMARK    2  A    between atoms: C_15  and  S_17
REMARK    3  A    between atoms: S_17  and  C_18
REMARK    4  A    between atoms: C_18  and  C_19
REMARK    5  A    between atoms: C_19  and  C_21
REMARK    6  A    between atoms: C_24  and  N_27
REMARK    7  A    between atoms: C_28  and  C_30
REMARK                            x       y       z     vdW  Elec       q    Type
REMARK                         _______ _______ _______ _____ _____    ______ ____
ROOT
ATOM      1  C   UNL     1       9.940  12.643   0.341  0.00  0.00    +0.008 C 
ATOM      2  C   UNL     1       8.462  12.459   0.689  0.00  0.00    -0.009 C 
ATOM      3  C   UNL     1       7.628  13.520  -0.035  0.00  0.00    +0.008 C 
ATOM      4  C   UNL     1       6.192  13.502   0.492  0.00  0.00    +0.037 C 
ATOM      5  C   UNL     1       5.657  12.075   0.413  0.00  0.00    -0.023 A 
ATOM      6  C   UNL     1       6.498  11.028   0.298  0.00  0.00    -0.004 A 
ATOM      7  S   UNL     1       5.451   9.599   0.242  0.00  0.00    -0.073 S 
ATOM      8  C   UNL     1       3.880  10.414   0.376  0.00  0.00    +0.117 A 
ATOM      9  C   UNL     1       4.224  11.774   0.459  0.00  0.00    +0.075 A 
ATOM     10  C   UNL     1       3.130  12.688   0.576  0.00  0.00    +0.261 A 
ATOM     11  O   UNL     1       3.332  13.887   0.653  0.00  0.00    -0.267 OA
ATOM     12  N   UNL     1       1.874  12.205   0.596  0.00  0.00    -0.301 N 
ATOM     13  H   UNL     1       1.128  12.821   0.672  0.00  0.00    +0.171 HD
ATOM     14  C   UNL     1       1.629  10.864   0.516  0.00  0.00    +0.170 A 
ATOM     15  N   UNL     1       2.619  10.001   0.406  0.00  0.00    -0.216 NA
ATOM     16  C   UNL     1       7.995  11.069   0.231  0.00  0.00    +0.046 C 
ENDROOT
BRANCH  14  17
ATOM     17  S   UNL     1      -0.033  10.280   0.554  0.00  0.00    -0.080 S 
BRANCH  17  18
ATOM     18  C   UNL     1       0.256   8.499   0.411  0.00  0.00    +0.156 C 
BRANCH  18  19
ATOM     19  C   UNL     1      -1.065   7.774   0.421  0.00  0.00    +0.173 C 
ATOM     20  O   UNL     1      -2.100   8.399   0.516  0.00  0.00    -0.291 OA
BRANCH  19  21
ATOM     21  C   UNL     1      -1.099   6.309   0.317  0.00  0.00    +0.018 A 
ATOM     22  C   UNL     1      -2.325   5.633   0.327  0.00  0.00    +0.013 A 
ATOM     23  C   UNL     1      -2.352   4.266   0.229  0.00  0.00    +0.024 A 
ATOM     24  C   UNL     1      -1.162   3.550   0.119  0.00  0.00    +0.033 A 
ATOM     25  C   UNL     1       0.059   4.218   0.115  0.00  0.00    +0.024 A 
ATOM     26  C   UNL     1       0.095   5.585   0.207  0.00  0.00    +0.013 A 
BRANCH  24  27
ATOM     27  N   UNL     1      -1.195   2.161   0.019  0.00  0.00    -0.286 N 
ATOM     28  C   UNL     1      -0.268   1.516  -0.717  0.00  0.00    +0.214 C 
ATOM     29  O   UNL     1       0.533   2.149  -1.372  0.00  0.00    -0.276 OA
ATOM     30  C   UNL     1      -0.232   0.010  -0.732  0.00  0.00    +0.109 C 
ATOM     31  H   UNL     1      -1.884   1.657   0.480  0.00  0.00    +0.155 HD
ENDBRANCH  24  27
ENDBRANCH  19  21
ENDBRANCH  18  19
ENDBRANCH  17  18
ENDBRANCH  14  17
TORSDOF 5
