REMARK  Name = ZINC39325523
REMARK  8 active torsions:
REMARK  status: ('A' for Active; 'I' for Inactive)
REMARK    1  A    between atoms: C_1  and  C_2
REMARK    2  A    between atoms: C_7  and  C_14
REMARK    3  A    between atoms: C_14  and  N_15
REMARK    4  A    between atoms: N_15  and  C_16
REMARK    5  A    between atoms: N_15  and  S_24
REMARK    6  A    between atoms: C_16  and  C_17
REMARK    7  A    between atoms: C_17  and  C_18
REMARK    8  A    between atoms: S_24  and  C_27
REMARK                            x       y       z     vdW  Elec       q    Type
REMARK                         _______ _______ _______ _____ _____    ______ ____
ROOT
ATOM      1  N   UNL     1      -1.041  -6.678   2.477  0.00  0.00    -0.175 NA
ENDROOT
BRANCH   1   2
ATOM      2  S   UNL     1      -0.210  -8.105   2.356  0.00  0.00    +0.061 S 
ATOM      3  O   UNL     1      -0.765  -8.981   3.328  0.00  0.00    -0.153 OA
ATOM      4  O   UNL     1      -0.163  -8.433   0.974  0.00  0.00    -0.153 OA
BRANCH   2   5
ATOM      5  C   UNL     1       1.449  -7.787   2.855  0.00  0.00    +0.106 A 
ATOM      6  C   UNL     1       2.388  -7.392   1.920  0.00  0.00    +0.029 A 
ATOM      7  C   UNL     1       3.690  -7.141   2.311  0.00  0.00    +0.017 A 
ATOM      8  C   UNL     1       4.053  -7.285   3.638  0.00  0.00    +0.018 A 
ATOM      9  C   UNL     1       3.113  -7.680   4.573  0.00  0.00    +0.017 A 
ATOM     10  C   UNL     1       1.810  -7.925   4.182  0.00  0.00    +0.029 A 
ATOM     11 BR   UNL     1       5.834  -6.943   4.174  0.00  0.00    -0.050 Br
ENDBRANCH   2   5
ENDBRANCH   1   2
BRANCH   1  12
ATOM     12  C   UNL     1      -1.216  -5.830   1.294  0.00  0.00    +0.126 C 
BRANCH  12  19
ATOM     13  C   UNL     1      -0.095   1.511   0.267  0.00  0.00    +0.044 C 
ATOM     14  C   UNL     1      -0.113   0.007   0.171  0.00  0.00    -0.049 A 
ATOM     15  C   UNL     1      -0.292  -0.581  -1.082  0.00  0.00    +0.004 A 
ATOM     16  C   UNL     1      -0.317  -1.930  -1.232  0.00  0.00    +0.010 A 
ATOM     17  C   UNL     1      -0.151  -2.775  -0.049  0.00  0.00    -0.007 A 
ATOM     18  C   UNL     1      -0.169  -4.135  -0.152  0.00  0.00    -0.003 C 
ATOM     19  C   UNL     1       0.010  -4.931   1.126  0.00  0.00    +0.114 C 
ATOM     20  C   UNL     1       0.194  -4.153   2.409  0.00  0.00    +0.225 C 
ATOM     21  O   UNL     1       0.343  -4.742   3.464  0.00  0.00    -0.275 OA
ATOM     22  N   UNL     1       0.194  -2.831   2.381  0.00  0.00    -0.284 N 
ATOM     23  C   UNL     1       0.036  -2.127   1.261  0.00  0.00    +0.041 A 
ATOM     24  C   UNL     1       0.051  -0.721   1.306  0.00  0.00    +0.027 A 
ATOM     25  H   UNL     1       0.313  -2.351   3.216  0.00  0.00    +0.155 HD
ENDBRANCH  12  19
ENDBRANCH   1  12
BRANCH   1  26
ATOM     26  C   UNL     1      -1.601  -6.262   3.765  0.00  0.00    +0.114 C 
BRANCH  26  27
ATOM     27  C   UNL     1      -3.054  -6.728   3.864  0.00  0.00    +0.052 C 
BRANCH  27  28
ATOM     28  C   UNL     1      -3.630  -6.301   5.189  0.00  0.00    -0.046 A 
ATOM     29  C   UNL     1      -3.526  -7.133   6.288  0.00  0.00    +0.003 A 
ATOM     30  C   UNL     1      -4.054  -6.740   7.504  0.00  0.00    +0.000 A 
ATOM     31  C   UNL     1      -4.686  -5.516   7.621  0.00  0.00    +0.000 A 
ATOM     32  C   UNL     1      -4.789  -4.684   6.522  0.00  0.00    +0.000 A 
ATOM     33  C   UNL     1      -4.258  -5.075   5.307  0.00  0.00    +0.003 A 
ENDBRANCH  27  28
ENDBRANCH  26  27
ENDBRANCH   1  26
TORSDOF 7
