REMARK  Name = ZINC35098379
REMARK  13 active torsions:
REMARK  status: ('A' for Active; 'I' for Inactive)
REMARK    1  A    between atoms: C_1  and  C_2
REMARK    2  A    between atoms: C_2  and  C_3
REMARK    3  A    between atoms: C_3  and  C_4
REMARK    4  A    between atoms: C_4  and  N_5
REMARK    5  A    between atoms: C_13  and  C_15
REMARK    6  A    between atoms: C_16  and  C_18
REMARK    7  A    between atoms: C_18  and  C_20
REMARK    8  A    between atoms: C_18  and  N_25
REMARK    9  A    between atoms: C_20  and  C_22
REMARK   10  A    between atoms: C_20  and  C_23
REMARK   11  A    between atoms: C_23  and  C_24
REMARK   12  A    between atoms: N_25  and  S_26
REMARK   13  A    between atoms: S_26  and  C_29
REMARK                            x       y       z     vdW  Elec       q    Type
REMARK                         _______ _______ _______ _____ _____    ______ ____
ROOT
ATOM      1  N   UNL     1      -3.056  -4.544  -1.615  0.00  0.00    -0.299 N 
ATOM      2  C   UNL     1      -3.453  -5.705  -1.058  0.00  0.00    +0.303 C 
ATOM      3  O   UNL     1      -2.679  -6.640  -0.986  0.00  0.00    -0.253 OA
ATOM      4  N   UNL     1      -4.707  -5.831  -0.583  0.00  0.00    -0.280 N 
ATOM      5  C   UNL     1      -5.690  -4.755  -0.772  0.00  0.00    +0.128 C 
ATOM      6  C   UNL     1      -6.245  -4.351   0.600  0.00  0.00    +0.127 C 
ATOM      7  N   UNL     1      -6.655  -5.567   1.317  0.00  0.00    -0.297 N 
ATOM      8  C   UNL     1      -5.673  -6.644   1.505  0.00  0.00    +0.130 C 
ATOM      9  C   UNL     1      -5.119  -7.049   0.129  0.00  0.00    +0.092 C 
ATOM     10  C   UNL     1      -6.205  -7.770  -0.673  0.00  0.00    +0.030 C 
ATOM     11  C   UNL     1      -7.910  -5.693   1.792  0.00  0.00    +0.235 C 
ATOM     12  O   UNL     1      -8.217  -6.668   2.443  0.00  0.00    -0.274 OA
ATOM     13  H   UNL     1      -3.694  -3.824  -1.741  0.00  0.00    +0.150 HD
ENDROOT
BRANCH   1  14
ATOM     14  C   UNL     1      -1.662  -4.369  -2.029  0.00  0.00    +0.106 C 
BRANCH  14  15
ATOM     15  C   UNL     1      -1.479  -2.971  -2.626  0.00  0.00    +0.018 C 
BRANCH  15  17
ATOM     16  C   UNL     1       0.160  -1.391  -3.655  0.00  0.00    +0.004 C 
ATOM     17  C   UNL     1      -0.023  -2.788  -3.058  0.00  0.00    -0.002 C 
ENDBRANCH  15  17
ENDBRANCH  14  15
ENDBRANCH   1  14
BRANCH  11  18
ATOM     18  C   UNL     1      -8.932  -4.620   1.515  0.00  0.00    +0.165 C 
BRANCH  18  19
ATOM     19  C   UNL     1      -9.745  -4.999   0.276  0.00  0.00    +0.013 C 
ATOM     20  C   UNL     1      -8.837  -4.984  -0.955  0.00  0.00    +0.009 C 
BRANCH  19  21
ATOM     21  C   UNL     1     -10.331  -6.401   0.460  0.00  0.00    +0.002 C 
ATOM     22  C   UNL     1     -11.245  -6.731  -0.722  0.00  0.00    +0.004 C 
ENDBRANCH  19  21
ENDBRANCH  18  19
BRANCH  18  23
ATOM     23  N   UNL     1      -9.828  -4.490   2.666  0.00  0.00    -0.178 NA
ATOM     24  H   UNL     1     -10.073  -5.274   3.182  0.00  0.00    +0.149 HD
BRANCH  23  25
ATOM     25  S   UNL     1     -10.423  -3.003   3.088  0.00  0.00    +0.059 S 
ATOM     26  O   UNL     1     -11.269  -3.208   4.211  0.00  0.00    -0.153 OA
ATOM     27  O   UNL     1      -9.313  -2.116   3.123  0.00  0.00    -0.153 OA
BRANCH  25  28
ATOM     28  C   UNL     1     -11.458  -2.462   1.769  0.00  0.00    +0.105 A 
ATOM     29  C   UNL     1     -10.923  -1.731   0.726  0.00  0.00    +0.029 A 
ATOM     30  C   UNL     1     -11.734  -1.307  -0.309  0.00  0.00    +0.017 A 
ATOM     31  C   UNL     1     -13.083  -1.615  -0.301  0.00  0.00    +0.018 A 
ATOM     32  C   UNL     1     -13.618  -2.348   0.743  0.00  0.00    +0.017 A 
ATOM     33  C   UNL     1     -12.805  -2.775   1.775  0.00  0.00    +0.029 A 
ATOM     34 BR   UNL     1     -14.194  -1.035  -1.717  0.00  0.00    -0.050 Br
ENDBRANCH  25  28
ENDBRANCH  23  25
ENDBRANCH  18  23
ENDBRANCH  11  18
TORSDOF 9
