REMARK  Name = ZINC33959568
REMARK  12 active torsions:
REMARK  status: ('A' for Active; 'I' for Inactive)
REMARK    1  A    between atoms: C_1  and  C_2
REMARK    2  A    between atoms: C_2  and  C_3
REMARK    3  A    between atoms: C_6  and  C_9
REMARK    4  A    between atoms: N_10  and  N_11
REMARK    5  A    between atoms: C_12  and  C_14
REMARK    6  A    between atoms: C_14  and  C_16
REMARK    7  A    between atoms: C_14  and  N_29
REMARK    8  A    between atoms: C_16  and  C_17
REMARK    9  A    between atoms: C_17  and  C_18
REMARK   10  A    between atoms: C_18  and  C_19
REMARK   11  A    between atoms: C_19  and  N_20
REMARK   12  A    between atoms: C_21  and  C_23
REMARK                            x       y       z     vdW  Elec       q    Type
REMARK                         _______ _______ _______ _____ _____    ______ ____
ROOT
ATOM      1  C   UNL     1      -9.392  -3.461  -2.230  0.00  0.00    +0.021 C 
ENDROOT
BRANCH   1   2
ATOM      2  N   UNL     1      -9.485  -4.022  -3.585  0.00  0.00    +0.387 N 
ATOM      3  C   UNL     1     -10.870  -4.429  -3.850  0.00  0.00    -0.078 C 
ATOM      4  C   UNL     1     -10.990  -4.939  -5.288  0.00  0.00    -0.019 C 
ATOM      5  C   UNL     1     -10.058  -6.140  -5.477  0.00  0.00    -0.004 C 
ATOM      6  C   UNL     1      -8.627  -5.723  -5.125  0.00  0.00    -0.019 C 
ATOM      7  C   UNL     1      -8.595  -5.184  -3.694  0.00  0.00    -0.078 C 
ATOM      8  H   UNL     1      -9.208  -3.323  -4.257  0.00  0.00    -0.081 HD
ENDBRANCH   1   2
BRANCH   1  10
ATOM      9  N   UNL     1      -7.548  -2.774  -0.732  0.00  0.00    -0.208 N 
ATOM     10  C   UNL     1      -7.993  -2.956  -1.991  0.00  0.00    +0.219 C 
ATOM     11  O   UNL     1      -7.267  -2.712  -2.932  0.00  0.00    -0.276 OA
ATOM     12  H   UNL     1      -8.129  -2.968   0.021  0.00  0.00    +0.177 HD
BRANCH   9  14
ATOM     13  C   UNL     1      -5.819  -2.129   0.703  0.00  0.00    +0.138 C 
ATOM     14  N   UNL     1      -6.248  -2.304  -0.509  0.00  0.00    -0.188 NA
BRANCH  13  18
ATOM     15  C   UNL     1      -1.878  -0.706   1.377  0.00  0.00    -0.048 A 
ATOM     16  C   UNL     1      -2.704  -0.981   2.453  0.00  0.00    +0.004 A 
ATOM     17  C   UNL     1      -3.986  -1.444   2.241  0.00  0.00    +0.010 A 
ATOM     18  C   UNL     1      -4.450  -1.634   0.937  0.00  0.00    -0.005 A 
ATOM     19  C   UNL     1      -3.611  -1.353  -0.143  0.00  0.00    +0.010 A 
ATOM     20  C   UNL     1      -2.333  -0.886   0.083  0.00  0.00    +0.004 A 
BRANCH  15  22
ATOM     21  C   UNL     1      -0.491   1.328   1.680  0.00  0.00    +0.009 C 
ATOM     22  C   UNL     1      -0.478  -0.201   1.617  0.00  0.00    +0.032 C 
ENDBRANCH  15  22
ENDBRANCH  13  18
ENDBRANCH   9  14
ENDBRANCH   1  10
BRANCH   1  23
ATOM     23  C   UNL     1     -10.384  -2.305  -2.088  0.00  0.00    -0.006 C 
BRANCH  23  24
ATOM     24  C   UNL     1     -10.100  -1.255  -3.164  0.00  0.00    +0.000 C 
BRANCH  24  25
ATOM     25  C   UNL     1     -11.020  -0.050  -2.955  0.00  0.00    +0.019 C 
BRANCH  25  26
ATOM     26  C   UNL     1     -10.736   1.000  -4.031  0.00  0.00    +0.104 C 
BRANCH  26  27
ATOM     27  N   UNL     1     -11.617   2.154  -3.832  0.00  0.00    -0.311 N 
ATOM     28  C   UNL     1     -11.544   3.210  -4.667  0.00  0.00    +0.244 C 
ATOM     29  O   UNL     1     -10.748   3.204  -5.585  0.00  0.00    -0.270 OA
ATOM     30  H   UNL     1     -12.252   2.158  -3.099  0.00  0.00    +0.149 HD
BRANCH  28  31
ATOM     31  C   UNL     1     -12.433   4.374  -4.465  0.00  0.00    +0.037 A 
ATOM     32  C   UNL     1     -13.344   4.385  -3.408  0.00  0.00    +0.013 A 
ATOM     33  C   UNL     1     -14.171   5.475  -3.226  0.00  0.00    +0.001 A 
ATOM     34  C   UNL     1     -14.098   6.555  -4.088  0.00  0.00    +0.000 A 
ATOM     35  C   UNL     1     -13.197   6.549  -5.138  0.00  0.00    +0.001 A 
ATOM     36  C   UNL     1     -12.361   5.468  -5.328  0.00  0.00    +0.013 A 
ENDBRANCH  28  31
ENDBRANCH  26  27
ENDBRANCH  25  26
ENDBRANCH  24  25
ENDBRANCH  23  24
ENDBRANCH   1  23
TORSDOF 11
