REMARK  Name = ZINC32967800
REMARK  11 active torsions:
REMARK  status: ('A' for Active; 'I' for Inactive)
REMARK    1  A    between atoms: C_1  and  C_2
REMARK    2  A    between atoms: C_5  and  S_8
REMARK    3  A    between atoms: S_8  and  N_11
REMARK    4  A    between atoms: N_11  and  C_12
REMARK    5  A    between atoms: C_12  and  C_14
REMARK    6  A    between atoms: C_12  and  C_15
REMARK    7  A    between atoms: N_17  and  C_18
REMARK    8  A    between atoms: C_23  and  C_24
REMARK    9  A    between atoms: C_24  and  N_25
REMARK   10  A    between atoms: N_25  and  C_26
REMARK   11  A    between atoms: N_25  and  C_27
REMARK                            x       y       z     vdW  Elec       q    Type
REMARK                         _______ _______ _______ _____ _____    ______ ____
ROOT
ATOM      1  C   UNL     1       4.659   1.642   0.633  0.00  0.00    +0.236 C 
ATOM      2  O   UNL     1       4.611   0.547   1.154  0.00  0.00    -0.274 OA
ATOM      3  N   UNL     1       3.584   2.123  -0.022  0.00  0.00    -0.284 N 
ATOM      4  H   UNL     1       3.650   3.083  -0.557  0.00  0.00    +0.155 HD
ENDROOT
BRANCH   3   5
ATOM      5  C   UNL     1       2.384   1.404  -0.022  0.00  0.00    +0.035 A 
ATOM      6  C   UNL     1       2.406   0.015  -0.034  0.00  0.00    +0.023 A 
ATOM      7  C   UNL     1       1.220  -0.693  -0.035  0.00  0.00    +0.002 A 
ATOM      8  C   UNL     1       0.011  -0.020  -0.025  0.00  0.00    +0.000 A 
ATOM      9  C   UNL     1      -0.013   1.363  -0.014  0.00  0.00    +0.003 A 
ATOM     10  C   UNL     1       1.169   2.076  -0.012  0.00  0.00    -0.043 A 
BRANCH  10  11
ATOM     11  C   UNL     1       1.141   3.583  -0.000  0.00  0.00    -0.041 C 
BRANCH  11  12
ATOM     12  N   UNL     1       1.368   4.087  -1.361  0.00  0.00    +0.382 N 
ATOM     13  C   UNL     1       0.256   3.724  -2.249  0.00  0.00    -0.095 C 
ATOM     14  H   UNL     1       2.280   3.612  -1.750  0.00  0.00    -0.081 HD
BRANCH  12  15
ATOM     15  C   UNL     1       1.583   5.540  -1.355  0.00  0.00    -0.069 C 
ATOM     16  C   UNL     1       0.306   6.243  -0.890  0.00  0.00    -0.015 C 
ATOM     17  C   UNL     1       0.531   7.757  -0.883  0.00  0.00    -0.002 C 
ATOM     18  C   UNL     1       0.886   8.226  -2.295  0.00  0.00    -0.000 C 
ATOM     19  C   UNL     1       2.163   7.523  -2.760  0.00  0.00    -0.002 C 
ATOM     20  C   UNL     1       1.938   6.010  -2.767  0.00  0.00    -0.015 C 
ENDBRANCH  12  15
ENDBRANCH  11  12
ENDBRANCH  10  11
ENDBRANCH   3   5
BRANCH   1  21
ATOM     21  C   UNL     1       5.919   2.463   0.720  0.00  0.00    +0.159 C 
ATOM     22  C   UNL     1       6.442   2.744  -0.691  0.00  0.00    +0.035 C 
BRANCH  21  23
ATOM     23  N   UNL     1       6.932   1.724   1.478  0.00  0.00    -0.178 NA
ATOM     24  H   UNL     1       6.890   0.626   1.527  0.00  0.00    +0.149 HD
BRANCH  23  25
ATOM     25  S   UNL     1       7.989   2.539   2.459  0.00  0.00    +0.059 S 
ATOM     26  O   UNL     1       8.816   1.557   3.068  0.00  0.00    -0.153 OA
ATOM     27  O   UNL     1       8.518   3.608   1.687  0.00  0.00    -0.153 OA
BRANCH  25  32
ATOM     28  C   UNL     1       4.744   5.045   6.885  0.00  0.00    +0.044 C 
ATOM     29  C   UNL     1       5.554   4.419   5.780  0.00  0.00    -0.050 A 
ATOM     30  C   UNL     1       6.069   3.146   5.936  0.00  0.00    +0.005 A 
ATOM     31  C   UNL     1       6.813   2.572   4.922  0.00  0.00    +0.029 A 
ATOM     32  C   UNL     1       7.041   3.271   3.751  0.00  0.00    +0.105 A 
ATOM     33  C   UNL     1       6.530   4.546   3.597  0.00  0.00    +0.029 A 
ATOM     34  C   UNL     1       5.783   5.118   4.609  0.00  0.00    +0.005 A 
ENDBRANCH  25  32
ENDBRANCH  23  25
ENDBRANCH  21  23
ENDBRANCH   1  21
TORSDOF 8
