REMARK  Name = ZINC15782952
REMARK  4 active torsions:
REMARK  status: ('A' for Active; 'I' for Inactive)
REMARK    1  A    between atoms: C_1  and  C_2
REMARK    2  A    between atoms: C_7  and  C_26
REMARK    3  A    between atoms: N_11  and  C_12
REMARK    4  A    between atoms: N_18  and  C_19
REMARK                            x       y       z     vdW  Elec       q    Type
REMARK                         _______ _______ _______ _____ _____    ______ ____
ROOT
ATOM      1  C   UNL     1      -0.211   0.894  -0.210  0.00  0.00    +0.028 C 
ATOM      2  C   UNL     1       0.882  -0.110  -0.582  0.00  0.00    +0.073 C 
ATOM      3  C   UNL     1       0.254  -1.484  -0.833  0.00  0.00    +0.022 C 
ATOM      4  C   UNL     1       1.363  -2.513  -1.067  0.00  0.00    +0.004 C 
ATOM      5  C   UNL     1       2.247  -2.605   0.179  0.00  0.00    +0.022 C 
ATOM      6  C   UNL     1       2.898  -1.243   0.441  0.00  0.00    +0.073 C 
ATOM      7  N   UNL     1       1.845  -0.221   0.522  0.00  0.00    -0.299 N 
ATOM      8  C   UNL     1       1.761   0.614   1.612  0.00  0.00    +0.161 C 
ATOM      9  N   UNL     1       1.636   0.112   2.808  0.00  0.00    -0.358 N 
ATOM     10  N   UNL     1       1.808   1.978   1.439  0.00  0.00    -0.289 N 
ATOM     11  C   UNL     1       3.855  -0.904  -0.703  0.00  0.00    +0.028 C 
ATOM     12  H   UNL     1       1.683   2.568   2.199  0.00  0.00    +0.155 HD
ATOM     13  H   UNL     1       1.690   0.691   3.585  0.00  0.00    +0.162 HD
ENDROOT
BRANCH  10  14
ATOM     14  C   UNL     1       2.035   2.515   0.167  0.00  0.00    +0.033 A 
ATOM     15  C   UNL     1       2.579   1.723  -0.835  0.00  0.00    +0.025 A 
ATOM     16  C   UNL     1       2.802   2.255  -2.090  0.00  0.00    +0.022 A 
ATOM     17  C   UNL     1       2.483   3.577  -2.349  0.00  0.00    +0.041 A 
ATOM     18  C   UNL     1       1.941   4.368  -1.352  0.00  0.00    +0.022 A 
ATOM     19  C   UNL     1       1.710   3.839  -0.097  0.00  0.00    +0.025 A 
ATOM     20 CL   UNL     1       2.765   4.243  -3.927  0.00  0.00    -0.084 Cl
ENDBRANCH  10  14
BRANCH   9  21
ATOM     21  C   UNL     1       1.415  -1.326   2.981  0.00  0.00    +0.082 C 
ATOM     22  C   UNL     1       0.194  -1.551   3.875  0.00  0.00    +0.024 C 
ATOM     23  C   UNL     1      -0.036  -3.053   4.054  0.00  0.00    +0.002 C 
ATOM     24  C   UNL     1       1.196  -3.684   4.706  0.00  0.00    +0.000 C 
ATOM     25  C   UNL     1       2.417  -3.459   3.812  0.00  0.00    +0.002 C 
ATOM     26  C   UNL     1       2.647  -1.957   3.632  0.00  0.00    +0.024 C 
ENDBRANCH   9  21
TORSDOF 2
