REMARK  Name = ZINC26255038
REMARK  14 active torsions:
REMARK  status: ('A' for Active; 'I' for Inactive)
REMARK    1  A    between atoms: C_1  and  C_2
REMARK    2  A    between atoms: C_2  and  C_3
REMARK    3  A    between atoms: C_3  and  O_5
REMARK    4  A    between atoms: O_5  and  C_6
REMARK    5  A    between atoms: C_6  and  C_7
REMARK    6  A    between atoms: C_7  and  C_9
REMARK    7  A    between atoms: C_9  and  O_36
REMARK    8  A    between atoms: C_10  and  C_35
REMARK    9  A    between atoms: C_15  and  C_34
REMARK   10  A    between atoms: C_17  and  O_33
REMARK   11  A    between atoms: C_30  and  C_31
REMARK   12  A    between atoms: O_36  and  C_37
REMARK   13  A    between atoms: C_37  and  C_39
REMARK   14  A    between atoms: C_39  and  C_40
REMARK                            x       y       z     vdW  Elec       q    Type
REMARK                         _______ _______ _______ _____ _____    ______ ____
ROOT
ATOM      1  C   UNL     1       0.579   8.294   3.556  0.00  0.00    +0.182 C 
ATOM      2  C   UNL     1      -0.232   7.466   4.571  0.00  0.00    +0.038 C 
ATOM      3  C   UNL     1      -1.016   6.426   3.749  0.00  0.00    +0.012 C 
ATOM      4  C   UNL     1      -1.124   7.068   2.354  0.00  0.00    +0.005 C 
ATOM      5  C   UNL     1       0.267   7.696   2.158  0.00  0.00    +0.021 C 
ATOM      6  C   UNL     1       1.314   6.609   1.903  0.00  0.00    +0.044 C 
ATOM      7  C   UNL     1       0.890   5.755   0.678  0.00  0.00    +0.137 C 
ATOM      8  C   UNL     1      -0.403   5.029   1.068  0.00  0.00    +0.086 C 
ATOM      9  C   UNL     1      -1.500   6.070   1.284  0.00  0.00    +0.018 C 
ATOM     10  C   UNL     1      -2.807   5.379   1.683  0.00  0.00    +0.010 C 
ATOM     11  C   UNL     1      -3.284   4.478   0.541  0.00  0.00    +0.032 C 
ATOM     12  C   UNL     1      -2.160   3.518   0.198  0.00  0.00    -0.055 C 
ATOM     13  C   UNL     1      -2.414   2.217   0.162  0.00  0.00    +0.051 C 
ATOM     14  C   UNL     1      -1.340   1.254  -0.127  0.00  0.00    +0.179 C 
ATOM     15  O   UNL     1      -1.575   0.061  -0.191  0.00  0.00    -0.288 OA
ATOM     16  C   UNL     1       0.024   1.765  -0.343  0.00  0.00    +0.047 C 
ATOM     17  C   UNL     1       0.251   3.069  -0.314  0.00  0.00    -0.011 C 
ATOM     18  C   UNL     1      -0.804   4.095  -0.079  0.00  0.00    +0.029 C 
ATOM     19  C   UNL     1      -0.925   4.941  -1.348  0.00  0.00    +0.022 C 
ATOM     20 CL   UNL     1      -0.164   4.073   2.578  0.00  0.00    -0.114 Cl
ATOM     21  C   UNL     1       0.265   8.756   1.054  0.00  0.00    +0.016 C 
ATOM     22  C   UNL     1      -1.185   8.377   5.348  0.00  0.00    +0.012 C 
ENDROOT
BRANCH   1  23
ATOM     23  C   UNL     1       0.153   9.739   3.608  0.00  0.00    +0.214 C 
ATOM     24  O   UNL     1      -0.999  10.036   3.401  0.00  0.00    -0.289 OA
BRANCH  23  25
ATOM     25  C   UNL     1       1.164  10.812   3.920  0.00  0.00    +0.310 C 
BRANCH  25  26
ATOM     26  O   UNL     1       0.508  12.107   3.931  0.00  0.00    -0.457 OA
BRANCH  26  27
ATOM     27  C   UNL     1       1.275  13.177   4.194  0.00  0.00    +0.307 C 
ATOM     28  O   UNL     1       2.455  13.035   4.408  0.00  0.00    -0.251 OA
BRANCH  27  30
ATOM     29  C   UNL     1       1.746  15.586   4.544  0.00  0.00    +0.015 C 
ATOM     30  C   UNL     1       0.663  14.553   4.223  0.00  0.00    +0.117 C 
ENDBRANCH  27  30
ENDBRANCH  26  27
ENDBRANCH  25  26
ENDBRANCH  23  25
ENDBRANCH   1  23
BRANCH   7  31
ATOM     31  O   UNL     1       0.659   6.553  -0.484  0.00  0.00    -0.390 OA
ATOM     32  H   UNL     1       0.352   6.077  -1.427  0.00  0.00    +0.210 HD
ENDBRANCH   7  31
BRANCH   1  33
ATOM     33  O   UNL     1       1.998   8.181   3.841  0.00  0.00    -0.449 OA
BRANCH  33  34
ATOM     34  C   UNL     1       2.404   8.541   5.069  0.00  0.00    +0.308 C 
ATOM     35  O   UNL     1       1.591   8.851   5.907  0.00  0.00    -0.251 OA
BRANCH  34  36
ATOM     36  C   UNL     1       3.874   8.559   5.402  0.00  0.00    +0.117 C 
ATOM     37  C   UNL     1       4.062   9.002   6.854  0.00  0.00    +0.015 C 
ENDBRANCH  34  36
ENDBRANCH  33  34
ENDBRANCH   1  33
TORSDOF 9
