REMARK  Name = ZINC19959949
REMARK  10 active torsions:
REMARK  status: ('A' for Active; 'I' for Inactive)
REMARK    1  A    between atoms: C_1  and  C_2
REMARK    2  A    between atoms: C_2  and  C_3
REMARK    3  A    between atoms: C_3  and  C_5
REMARK    4  A    between atoms: C_3  and  N_6
REMARK    5  A    between atoms: C_7  and  C_9
REMARK    6  A    between atoms: C_9  and  N_10
REMARK    7  A    between atoms: C_13  and  C_23
REMARK    8  A    between atoms: C_18  and  C_22
REMARK    9  A    between atoms: C_23  and  C_25
REMARK   10  A    between atoms: C_25  and  C_26
REMARK                            x       y       z     vdW  Elec       q    Type
REMARK                         _______ _______ _______ _____ _____    ______ ____
ROOT
ATOM      1  N   UNL     1      -1.115   1.834  -6.096  0.00  0.00    -0.256 N 
ATOM      2  C   UNL     1      -0.454   1.381  -4.945  0.00  0.00    +0.079 A 
ATOM      3  C   UNL     1      -0.927   1.702  -3.689  0.00  0.00    +0.038 A 
ATOM      4  C   UNL     1      -0.248   1.244  -2.553  0.00  0.00    +0.019 A 
ATOM      5  C   UNL     1       0.900   0.456  -2.699  0.00  0.00    +0.015 A 
ATOM      6  C   UNL     1       1.363   0.136  -3.956  0.00  0.00    +0.048 A 
ATOM      7  C   UNL     1       0.693   0.593  -5.082  0.00  0.00    +0.143 A 
ATOM      8  O   UNL     1       1.140   0.280  -6.325  0.00  0.00    -0.478 OA
ATOM      9  C   UNL     1       0.150   0.114  -7.343  0.00  0.00    +0.256 C 
ATOM     10  C   UNL     1      -0.835   1.254  -7.283  0.00  0.00    +0.261 C 
ATOM     11  O   UNL     1      -1.373   1.649  -8.296  0.00  0.00    -0.271 OA
ATOM     12  C   UNL     1      -0.588  -1.208  -7.125  0.00  0.00    +0.062 C 
ENDROOT
BRANCH   4  13
ATOM     13  C   UNL     1      -0.742   1.585  -1.213  0.00  0.00    +0.163 C 
ATOM     14  O   UNL     1      -1.736   2.268  -1.088  0.00  0.00    -0.292 OA
BRANCH  13  15
ATOM     15  C   UNL     1      -0.013   1.086   0.008  0.00  0.00    +0.076 C 
ATOM     16  C   UNL     1      -0.729   1.579   1.267  0.00  0.00    +0.012 C 
ENDBRANCH  13  15
ENDBRANCH   4  13
BRANCH   1  17
ATOM     17  C   UNL     1      -2.095   2.920  -6.011  0.00  0.00    +0.209 C 
BRANCH  17  19
ATOM     18  N   UNL     1      -2.104   5.389  -6.165  0.00  0.00    -0.311 N 
ATOM     19  C   UNL     1      -1.397   4.242  -6.203  0.00  0.00    +0.231 C 
ATOM     20  O   UNL     1      -0.200   4.274  -6.391  0.00  0.00    -0.274 OA
ATOM     21  H   UNL     1      -3.191   5.360  -5.994  0.00  0.00    +0.149 HD
BRANCH  18  22
ATOM     22  C   UNL     1      -1.426   6.674  -6.351  0.00  0.00    +0.070 C 
ATOM     23  C   UNL     1      -0.860   7.151  -5.012  0.00  0.00    +0.028 C 
BRANCH  22  25
ATOM     24  C   UNL     1      -2.897   7.292  -8.274  0.00  0.00    +0.005 C 
ATOM     25  C   UNL     1      -2.425   7.706  -6.878  0.00  0.00    +0.018 C 
ENDBRANCH  22  25
ENDBRANCH  18  22
ENDBRANCH  17  19
ENDBRANCH   1  17
TORSDOF 6
