REMARK  Name = ZINC09385634
REMARK  12 active torsions:
REMARK  status: ('A' for Active; 'I' for Inactive)
REMARK    1  A    between atoms: C_1  and  C_2
REMARK    2  A    between atoms: C_2  and  N_59
REMARK    3  A    between atoms: C_3  and  C_4
REMARK    4  A    between atoms: C_3  and  N_59
REMARK    5  A    between atoms: C_5  and  C_6
REMARK    6  A    between atoms: C_5  and  N_59
REMARK    7  A    between atoms: C_6  and  N_7
REMARK    8  A    between atoms: C_13  and  N_17
REMARK    9  A    between atoms: C_20  and  C_22
REMARK   10  A    between atoms: C_22  and  S_23
REMARK   11  A    between atoms: S_23  and  C_26
REMARK   12  A    between atoms: C_29  and  C_32
REMARK                            x       y       z     vdW  Elec       q    Type
REMARK                         _______ _______ _______ _____ _____    ______ ____
ROOT
ATOM      1  N   UNL     1       0.913  -5.510  -3.541  0.00  0.00    -0.251 N 
ATOM      2  C   UNL     1       0.919  -6.864  -3.832  0.00  0.00    +0.168 A 
ATOM      3  N   UNL     1       0.998  -7.455  -5.002  0.00  0.00    -0.224 NA
ATOM      4  C   UNL     1       0.994  -8.798  -5.138  0.00  0.00    +0.080 A 
ATOM      5  C   UNL     1       1.073  -9.555  -6.330  0.00  0.00    +0.031 A 
ATOM      6  C   UNL     1       1.056 -10.925  -6.292  0.00  0.00    +0.035 A 
ATOM      7  C   UNL     1       0.962 -11.616  -5.093  0.00  0.00    +0.127 A 
ATOM      8  C   UNL     1       0.883 -10.908  -3.907  0.00  0.00    +0.050 A 
ATOM      9  C   UNL     1       0.899  -9.536  -3.936  0.00  0.00    +0.043 A 
ATOM     10  S   UNL     1       0.832  -8.252  -2.709  0.00  0.00    -0.052 S 
ATOM     11  C   UNL     1       0.825  -5.095  -2.262  0.00  0.00    +0.243 C 
ATOM     12  O   UNL     1       0.751  -5.908  -1.365  0.00  0.00    -0.273 OA
ENDROOT
BRANCH   7  13
ATOM     13  N   UNL     1       0.947 -13.096  -5.082  0.00  0.00    +0.056 N 
ATOM     14  O   UNL     1       0.864 -13.697  -4.025  0.00  0.00    -0.126 OA
ATOM     15  O   UNL     1       1.017 -13.714  -6.129  0.00  0.00    -0.126 OA
ENDBRANCH   7  13
BRANCH   1  16
ATOM     16  C   UNL     1       1.001  -4.527  -4.625  0.00  0.00    +0.097 C 
BRANCH  16  17
ATOM     17  C   UNL     1       2.470  -4.200  -4.898  0.00  0.00    -0.059 C 
BRANCH  17  18
ATOM     18  N   UNL     1       2.543  -3.226  -6.007  0.00  0.00    +0.380 N 
ATOM     19  H   UNL     1       1.993  -3.579  -6.798  0.00  0.00    -0.082 HD
BRANCH  18  21
ATOM     20  C   UNL     1       2.813  -1.340  -4.431  0.00  0.00    -0.017 C 
ATOM     21  C   UNL     1       1.984  -1.927  -5.575  0.00  0.00    -0.082 C 
ENDBRANCH  18  21
BRANCH  18  22
ATOM     22  C   UNL     1       3.947  -3.053  -6.436  0.00  0.00    -0.082 C 
ATOM     23  C   UNL     1       3.965  -2.317  -7.777  0.00  0.00    -0.017 C 
ENDBRANCH  18  22
ENDBRANCH  17  18
ENDBRANCH  16  17
ENDBRANCH   1  16
BRANCH  11  24
ATOM     24  C   UNL     1       0.817  -3.622  -1.946  0.00  0.00    +0.267 C 
BRANCH  24  25
ATOM     25  S   UNL     1       0.690  -3.389  -0.151  0.00  0.00    +0.005 S 
ATOM     26  O   UNL     1       1.877  -3.840   0.486  0.00  0.00    -0.169 OA
ATOM     27  O   UNL     1      -0.585  -3.815   0.309  0.00  0.00    -0.169 OA
BRANCH  25  28
ATOM     28  C   UNL     1       0.692  -1.642   0.080  0.00  0.00    +0.089 A 
ATOM     29  C   UNL     1      -0.502  -0.945   0.085  0.00  0.00    +0.027 A 
ATOM     30  C   UNL     1      -0.501   0.425   0.267  0.00  0.00    +0.005 A 
ATOM     31  C   UNL     1       0.694   1.098   0.445  0.00  0.00    -0.050 A 
ATOM     32  C   UNL     1       1.887   0.401   0.439  0.00  0.00    +0.005 A 
ATOM     33  C   UNL     1       1.886  -0.970   0.257  0.00  0.00    +0.027 A 
ATOM     34  C   UNL     1       0.695   2.592   0.643  0.00  0.00    +0.044 C 
ENDBRANCH  25  28
ENDBRANCH  24  25
ENDBRANCH  11  24
TORSDOF 9
