REMARK  Name = ZINC14133977
REMARK  13 active torsions:
REMARK  status: ('A' for Active; 'I' for Inactive)
REMARK    1  A    between atoms: C_1  and  C_2
REMARK    2  A    between atoms: C_2  and  C_3
REMARK    3  A    between atoms: C_2  and  C_4
REMARK    4  A    between atoms: C_4  and  C_5
REMARK    5  A    between atoms: C_5  and  C_7
REMARK    6  A    between atoms: C_5  and  N_31
REMARK    7  A    between atoms: C_10  and  S_15
REMARK    8  A    between atoms: N_11  and  C_12
REMARK    9  A    between atoms: C_12  and  C_13
REMARK   10  A    between atoms: S_15  and  C_16
REMARK   11  A    between atoms: C_16  and  C_17
REMARK   12  A    between atoms: N_22  and  C_25
REMARK   13  A    between atoms: C_32  and  C_34
REMARK                            x       y       z     vdW  Elec       q    Type
REMARK                         _______ _______ _______ _____ _____    ______ ____
ROOT
ATOM      1  C   UNL     1       7.484   0.432  -0.196  0.00  0.00    +0.155 A 
ATOM      2  N   UNL     1       7.425   1.694   0.122  0.00  0.00    -0.132 NA
ATOM      3  N   UNL     1       8.487   2.299  -0.276  0.00  0.00    -0.122 NA
ATOM      4  C   UNL     1       9.283   1.450  -0.884  0.00  0.00    +0.192 A 
ATOM      5  N   UNL     1       8.667   0.231  -0.851  0.00  0.00    -0.301 N 
ENDROOT
BRANCH   1   6
ATOM      6  C   UNL     1       6.438  -0.612   0.098  0.00  0.00    +0.142 C 
BRANCH   6   7
ATOM      7  N   UNL     1       5.122  -0.115  -0.312  0.00  0.00    -0.301 N 
ATOM      8  C   UNL     1       4.121  -0.983  -0.561  0.00  0.00    +0.245 C 
ATOM      9  O   UNL     1       4.332  -2.179  -0.529  0.00  0.00    -0.270 OA
ATOM     10  H   UNL     1       4.971   0.839  -0.405  0.00  0.00    +0.150 HD
BRANCH   8  11
ATOM     11  C   UNL     1       2.767  -0.479  -0.873  0.00  0.00    +0.037 A 
ATOM     12  C   UNL     1       1.728  -1.375  -1.131  0.00  0.00    +0.013 A 
ATOM     13  C   UNL     1       0.466  -0.898  -1.422  0.00  0.00    +0.001 A 
ATOM     14  C   UNL     1       0.230   0.464  -1.458  0.00  0.00    +0.000 A 
ATOM     15  C   UNL     1       1.255   1.358  -1.204  0.00  0.00    +0.001 A 
ATOM     16  C   UNL     1       2.521   0.894  -0.911  0.00  0.00    +0.013 A 
ENDBRANCH   8  11
ENDBRANCH   6   7
BRANCH   6  17
ATOM     17  C   UNL     1       6.424  -0.912   1.599  0.00  0.00    +0.033 C 
BRANCH  17  19
ATOM     18  C   UNL     1       7.794  -1.730   3.521  0.00  0.00    +0.007 C 
ATOM     19  C   UNL     1       7.750  -1.560   2.001  0.00  0.00    -0.015 C 
ATOM     20  C   UNL     1       7.872  -2.930   1.331  0.00  0.00    +0.007 C 
ENDBRANCH  17  19
ENDBRANCH   6  17
ENDBRANCH   1   6
BRANCH   5  21
ATOM     21  C   UNL     1       9.169  -1.029  -1.405  0.00  0.00    +0.152 C 
BRANCH  21  22
ATOM     22  C   UNL     1       8.805  -1.117  -2.864  0.00  0.00    -0.013 C 
ATOM     23  C   UNL     1       9.738  -1.319  -3.761  0.00  0.00    +0.005 C 
ENDBRANCH  21  22
ENDBRANCH   5  21
BRANCH   4  24
ATOM     24  S   UNL     1      10.849   1.813  -1.605  0.00  0.00    -0.077 S 
BRANCH  24  25
ATOM     25  C   UNL     1      10.957   3.584  -1.246  0.00  0.00    +0.173 C 
BRANCH  25  26
ATOM     26  C   UNL     1      12.254   4.128  -1.787  0.00  0.00    +0.226 C 
ATOM     27  O   UNL     1      13.030   3.390  -2.358  0.00  0.00    -0.275 OA
ATOM     28  N   UNL     1      12.553   5.433  -1.635  0.00  0.00    -0.298 N 
ATOM     29  C   UNL     1      11.623   6.346  -0.952  0.00  0.00    +0.126 C 
ATOM     30  C   UNL     1      12.405   7.106   0.132  0.00  0.00    +0.124 C 
ATOM     31  N   UNL     1      13.574   7.754  -0.479  0.00  0.00    -0.327 N 
ATOM     32  C   UNL     1      14.506   6.761  -1.030  0.00  0.00    +0.124 C 
ATOM     33  C   UNL     1      13.813   5.984  -2.155  0.00  0.00    +0.126 C 
BRANCH  31  34
ATOM     34  C   UNL     1      14.217   8.590   0.436  0.00  0.00    +0.030 A 
ATOM     35  C   UNL     1      15.566   8.409   0.716  0.00  0.00    +0.023 A 
ATOM     36  C   UNL     1      16.200   9.241   1.617  0.00  0.00    +0.002 A 
ATOM     37  C   UNL     1      15.492  10.247   2.249  0.00  0.00    +0.000 A 
ATOM     38  C   UNL     1      14.148  10.426   1.977  0.00  0.00    +0.002 A 
ATOM     39  C   UNL     1      13.509   9.601   1.073  0.00  0.00    +0.023 A 
ENDBRANCH  31  34
ENDBRANCH  25  26
ENDBRANCH  24  25
ENDBRANCH   4  24
TORSDOF 11
