REMARK  Name = ZINC01107781
REMARK  7 active torsions:
REMARK  status: ('A' for Active; 'I' for Inactive)
REMARK    1  A    between atoms: C_1  and  C_2
REMARK    2  A    between atoms: C_6  and  C_8
REMARK    3  A    between atoms: N_10  and  C_11
REMARK    4  A    between atoms: C_11  and  C_13
REMARK    5  A    between atoms: C_11  and  O_17
REMARK    6  A    between atoms: O_17  and  C_18
REMARK    7  A    between atoms: C_22  and  N_24
REMARK                            x       y       z     vdW  Elec       q    Type
REMARK                         _______ _______ _______ _____ _____    ______ ____
ROOT
ATOM      1  C   UNL     1       1.246   5.775   0.050  0.00  0.00    +0.314 C 
ENDROOT
BRANCH   1   4
ATOM      2  C   UNL     1       2.854   4.516   1.381  0.00  0.00    +0.247 C 
ATOM      3  O   UNL     1       3.122   3.864   0.390  0.00  0.00    -0.270 OA
ATOM      4  N   UNL     1       1.890   5.457   1.327  0.00  0.00    -0.273 N 
ATOM      5  H   UNL     1       1.623   5.924   2.134  0.00  0.00    +0.153 HD
BRANCH   2  11
ATOM      6  C   UNL     1       6.338   2.033   3.949  0.00  0.00    +0.044 C 
ATOM      7  C   UNL     1       5.260   3.085   3.884  0.00  0.00    -0.050 A 
ATOM      8  C   UNL     1       4.953   3.829   5.009  0.00  0.00    +0.003 A 
ATOM      9  C   UNL     1       3.965   4.797   4.957  0.00  0.00    +0.001 A 
ATOM     10  C   UNL     1       3.279   5.025   3.782  0.00  0.00    +0.013 A 
ATOM     11  C   UNL     1       3.585   4.278   2.643  0.00  0.00    +0.037 A 
ATOM     12  C   UNL     1       4.579   3.300   2.704  0.00  0.00    +0.016 A 
ENDBRANCH   2  11
ENDBRANCH   1   4
BRANCH   1  13
ATOM     13  C   UNL     1       0.976   7.279  -0.025  0.00  0.00    +0.244 C 
ATOM     14 CL   UNL     1      -0.109   7.763   1.332  0.00  0.00    -0.078 Cl
ATOM     15 CL   UNL     1       2.534   8.177   0.102  0.00  0.00    -0.078 Cl
ATOM     16 CL   UNL     1       0.183   7.670  -1.596  0.00  0.00    -0.078 Cl
ENDBRANCH   1  13
BRANCH   1  17
ATOM     17  O   UNL     1       0.011   5.063  -0.051  0.00  0.00    -0.467 OA
BRANCH  17  18
ATOM     18  C   UNL     1      -0.331   4.591  -1.278  0.00  0.00    +0.125 A 
ATOM     19  C   UNL     1       0.456   4.891  -2.382  0.00  0.00    +0.046 A 
ATOM     20  C   UNL     1       0.106   4.411  -3.629  0.00  0.00    +0.006 A 
ATOM     21  C   UNL     1      -1.027   3.631  -3.778  0.00  0.00    +0.033 A 
ATOM     22  C   UNL     1      -1.815   3.335  -2.681  0.00  0.00    +0.130 A 
ATOM     23  C   UNL     1      -1.466   3.809  -1.431  0.00  0.00    +0.078 A 
BRANCH  22  24
ATOM     24  N   UNL     1      -3.030   2.506  -2.845  0.00  0.00    +0.057 N 
ATOM     25  O   UNL     1      -3.335   2.085  -3.947  0.00  0.00    -0.126 OA
ATOM     26  O   UNL     1      -3.724   2.246  -1.879  0.00  0.00    -0.126 OA
ENDBRANCH  22  24
ENDBRANCH  17  18
ENDBRANCH   1  17
TORSDOF 6
