REMARK  Name = ZINC63372400
REMARK  11 active torsions:
REMARK  status: ('A' for Active; 'I' for Inactive)
REMARK    1  A    between atoms: C_1  and  C_2
REMARK    2  A    between atoms: C_2  and  C_4
REMARK    3  A    between atoms: C_2  and  N_12
REMARK    4  A    between atoms: C_4  and  C_5
REMARK    5  A    between atoms: C_5  and  C_6
REMARK    6  A    between atoms: C_13  and  C_15
REMARK    7  A    between atoms: C_15  and  C_17
REMARK    8  A    between atoms: C_15  and  N_20
REMARK    9  A    between atoms: C_17  and  C_18
REMARK   10  A    between atoms: C_17  and  C_19
REMARK   11  A    between atoms: C_23  and  C_39
REMARK                            x       y       z     vdW  Elec       q    Type
REMARK                         _______ _______ _______ _____ _____    ______ ____
ROOT
ATOM      1  N   UNL     1       4.140  -1.310  -2.217  0.00  0.00    -0.212 N 
ATOM      2  C   UNL     1       5.100  -0.727  -2.966  0.00  0.00    +0.249 C 
ATOM      3  O   UNL     1       4.945  -0.049  -3.958  0.00  0.00    -0.273 OA
ATOM      4  C   UNL     1       6.411  -1.098  -2.308  0.00  0.00    +0.136 C 
ATOM      5  C   UNL     1       7.308  -1.859  -3.284  0.00  0.00    +0.139 C 
ATOM      6  C   UNL     1       7.397  -3.296  -2.791  0.00  0.00    -0.034 C 
ATOM      7  C   UNL     1       7.001  -4.062  -3.805  0.00  0.00    -0.001 A 
ATOM      8  C   UNL     1       6.933  -5.524  -3.955  0.00  0.00    +0.010 A 
ATOM      9  C   UNL     1       6.460  -5.982  -5.145  0.00  0.00    +0.001 A 
ATOM     10  C   UNL     1       6.054  -5.141  -6.186  0.00  0.00    +0.002 A 
ATOM     11  C   UNL     1       6.088  -3.786  -6.136  0.00  0.00    +0.026 A 
ATOM     12  C   UNL     1       6.570  -3.186  -4.936  0.00  0.00    +0.043 A 
ATOM     13  N   UNL     1       6.728  -1.918  -4.627  0.00  0.00    -0.375 N 
ATOM     14  C   UNL     1       7.795  -3.676  -1.386  0.00  0.00    +0.052 C 
ATOM     15  C   UNL     1       6.916  -2.845  -0.429  0.00  0.00    +0.115 C 
ATOM     16  N   UNL     1       6.003  -2.037  -1.243  0.00  0.00    -0.269 N 
ATOM     17  C   UNL     1       4.663  -2.023  -1.211  0.00  0.00    +0.313 C 
ATOM     18  O   UNL     1       3.999  -2.594  -0.368  0.00  0.00    -0.252 OA
ATOM     19  C   UNL     1       7.112   0.133  -1.730  0.00  0.00    +0.044 C 
ATOM     20  H   UNL     1       6.500  -1.155  -5.180  0.00  0.00    +0.160 HD
ENDROOT
BRANCH   1  21
ATOM     21  C   UNL     1       2.704  -1.173  -2.470  0.00  0.00    +0.174 C 
BRANCH  21  23
ATOM     22  N   UNL     1       0.911   0.176  -1.428  0.00  0.00    -0.311 N 
ATOM     23  C   UNL     1       2.040  -0.544  -1.272  0.00  0.00    +0.235 C 
ATOM     24  O   UNL     1       2.522  -0.685  -0.168  0.00  0.00    -0.274 OA
ATOM     25  H   UNL     1       0.567   0.351  -2.317  0.00  0.00    +0.149 HD
BRANCH  22  27
ATOM     26  C   UNL     1       0.824   2.028   0.166  0.00  0.00    +0.028 C 
ATOM     27  C   UNL     1       0.205   0.694  -0.254  0.00  0.00    +0.070 C 
BRANCH  27  28
ATOM     28  C   UNL     1      -1.271   0.901  -0.597  0.00  0.00    +0.026 C 
BRANCH  28  29
ATOM     29  C   UNL     1      -1.921  -0.452  -0.896  0.00  0.00    +0.037 C 
BRANCH  29  30
ATOM     30  C   UNL     1      -3.375  -0.247  -1.234  0.00  0.00    -0.047 A 
ATOM     31  C   UNL     1      -4.327  -0.266  -0.232  0.00  0.00    +0.003 A 
ATOM     32  C   UNL     1      -5.661  -0.078  -0.542  0.00  0.00    +0.000 A 
ATOM     33  C   UNL     1      -6.043   0.129  -1.854  0.00  0.00    +0.000 A 
ATOM     34  C   UNL     1      -5.091   0.149  -2.856  0.00  0.00    +0.000 A 
ATOM     35  C   UNL     1      -3.756  -0.035  -2.546  0.00  0.00    +0.003 A 
ENDBRANCH  29  30
ENDBRANCH  28  29
ENDBRANCH  27  28
ENDBRANCH  22  27
ENDBRANCH  21  23
BRANCH  21  36
ATOM     36  C   UNL     1       2.097  -2.555  -2.722  0.00  0.00    +0.013 C 
ATOM     37  C   UNL     1       0.622  -2.404  -3.097  0.00  0.00    +0.009 C 
ATOM     38  C   UNL     1       2.847  -3.241  -3.866  0.00  0.00    +0.009 C 
ENDBRANCH  21  36
ENDBRANCH   1  21
TORSDOF 7
