REMARK  Name = ZINC02680359
REMARK  12 active torsions:
REMARK  status: ('A' for Active; 'I' for Inactive)
REMARK    1  A    between atoms: C_1  and  C_2
REMARK    2  A    between atoms: C_2  and  C_3
REMARK    3  A    between atoms: C_2  and  C_4
REMARK    4  A    between atoms: C_4  and  C_6
REMARK    5  A    between atoms: C_4  and  N_26
REMARK    6  A    between atoms: N_8  and  C_9
REMARK    7  A    between atoms: C_10  and  C_18
REMARK    8  A    between atoms: N_20  and  C_21
REMARK    9  A    between atoms: C_21  and  C_22
REMARK   10  A    between atoms: C_22  and  C_23
REMARK   11  A    between atoms: C_23  and  O_24
REMARK   12  A    between atoms: O_24  and  C_25
REMARK                            x       y       z     vdW  Elec       q    Type
REMARK                         _______ _______ _______ _____ _____    ______ ____
ROOT
ATOM      1  C   UNL     1      -1.734  -3.903   1.065  0.00  0.00    +0.239 C 
ATOM      2  O   UNL     1      -1.509  -3.143   1.983  0.00  0.00    -0.273 OA
ATOM      3  N   UNL     1      -2.582  -4.936   1.239  0.00  0.00    -0.278 N 
ATOM      4  H   UNL     1      -2.712  -5.582   0.527  0.00  0.00    +0.155 HD
ENDROOT
BRANCH   3   5
ATOM      5  C   UNL     1      -3.269  -5.076   2.435  0.00  0.00    +0.084 A 
ATOM      6  C   UNL     1      -4.179  -6.059   2.797  0.00  0.00    +0.069 A 
ATOM      7  C   UNL     1      -4.760  -5.980   4.127  0.00  0.00    -0.023 A 
ATOM      8  C   UNL     1      -4.349  -4.931   4.872  0.00  0.00    -0.004 A 
ATOM      9  S   UNL     1      -3.204  -4.062   3.839  0.00  0.00    -0.077 S 
ATOM     10  C   UNL     1      -4.778  -4.591   6.266  0.00  0.00    +0.043 C 
ATOM     11  C   UNL     1      -6.041  -5.400   6.595  0.00  0.00    +0.005 C 
ATOM     12  C   UNL     1      -5.808  -6.861   6.197  0.00  0.00    +0.005 C 
ATOM     13  C   UNL     1      -5.767  -6.984   4.673  0.00  0.00    +0.037 C 
BRANCH   6  14
ATOM     14  C   UNL     1      -4.538  -7.140   1.874  0.00  0.00    +0.247 C 
ATOM     15  O   UNL     1      -3.900  -8.177   1.874  0.00  0.00    -0.270 OA
ATOM     16  N   UNL     1      -5.574  -6.986   1.026  0.00  0.00    -0.311 N 
ATOM     17  H   UNL     1      -6.082  -6.160   1.026  0.00  0.00    +0.149 HD
BRANCH  16  18
ATOM     18  C   UNL     1      -5.932  -8.066   0.103  0.00  0.00    +0.107 C 
BRANCH  18  19
ATOM     19  C   UNL     1      -7.134  -7.638  -0.742  0.00  0.00    +0.047 C 
BRANCH  19  20
ATOM     20  C   UNL     1      -7.508  -8.765  -1.705  0.00  0.00    +0.161 C 
BRANCH  20  21
ATOM     21  O   UNL     1      -8.630  -8.365  -2.494  0.00  0.00    -0.383 OA
ATOM     22  C   UNL     1      -9.063  -9.353  -3.432  0.00  0.00    +0.193 C 
ENDBRANCH  20  21
ENDBRANCH  19  20
ENDBRANCH  18  19
ENDBRANCH  16  18
ENDBRANCH   6  14
ENDBRANCH   3   5
BRANCH   1  23
ATOM     23  C   UNL     1      -1.067  -3.692  -0.269  0.00  0.00    +0.173 C 
BRANCH  23  24
ATOM     24  N   UNL     1       0.156  -2.907  -0.085  0.00  0.00    -0.222 N 
ATOM     25  C   UNL     1       0.193  -1.666   0.434  0.00  0.00    +0.255 C 
ATOM     26  O   UNL     1      -0.768  -1.029   0.818  0.00  0.00    -0.270 OA
ATOM     27  C   UNL     1       1.598  -1.207   0.459  0.00  0.00    +0.049 A 
ATOM     28  C   UNL     1       2.229  -0.046   0.873  0.00  0.00    +0.014 A 
ATOM     29  C   UNL     1       3.606   0.067   0.756  0.00  0.00    +0.001 A 
ATOM     30  C   UNL     1       4.352  -0.970   0.228  0.00  0.00    +0.001 A 
ATOM     31  C   UNL     1       3.734  -2.138  -0.190  0.00  0.00    +0.014 A 
ATOM     32  C   UNL     1       2.358  -2.265  -0.079  0.00  0.00    +0.049 A 
ATOM     33  C   UNL     1       1.390  -3.331  -0.412  0.00  0.00    +0.255 C 
ATOM     34  O   UNL     1       1.662  -4.410  -0.898  0.00  0.00    -0.270 OA
ENDBRANCH  23  24
BRANCH  23  36
ATOM     35  C   UNL     1      -1.308  -2.642  -2.523  0.00  0.00    +0.009 C 
ATOM     36  C   UNL     1      -2.019  -2.942  -1.203  0.00  0.00    +0.013 C 
ATOM     37  C   UNL     1      -3.254  -3.804  -1.472  0.00  0.00    +0.009 C 
ENDBRANCH  23  36
ENDBRANCH   1  23
TORSDOF 9
