REMARK  Name = ZINC16533729
REMARK  14 active torsions:
REMARK  status: ('A' for Active; 'I' for Inactive)
REMARK    1  A    between atoms: C_1  and  C_2
REMARK    2  A    between atoms: C_2  and  C_3
REMARK    3  A    between atoms: C_3  and  N_4
REMARK    4  A    between atoms: N_4  and  C_5
REMARK    5  A    between atoms: C_5  and  C_6
REMARK    6  A    between atoms: N_10  and  C_11
REMARK    7  A    between atoms: C_11  and  C_12
REMARK    8  A    between atoms: C_15  and  C_17
REMARK    9  A    between atoms: N_19  and  C_20
REMARK   10  A    between atoms: C_20  and  C_21
REMARK   11  A    between atoms: C_21  and  C_22
REMARK   12  A    between atoms: C_22  and  N_77
REMARK   13  A    between atoms: C_27  and  C_29
REMARK   14  A    between atoms: C_30  and  C_32
REMARK                            x       y       z     vdW  Elec       q    Type
REMARK                         _______ _______ _______ _____ _____    ______ ____
ROOT
ATOM      1  C   UNL     1       2.122  -0.109   9.441  0.00  0.00    +0.195 C 
ENDROOT
BRANCH   1   6
ATOM      2  C   UNL     1       3.420  -2.040  10.402  0.00  0.00    +0.037 A 
ATOM      3  C   UNL     1       3.266  -3.377  10.484  0.00  0.00    +0.024 A 
ATOM      4  C   UNL     1       2.050  -3.701   9.851  0.00  0.00    +0.019 A 
ATOM      5  C   UNL     1       1.504  -2.549   9.411  0.00  0.00    +0.086 A 
ATOM      6  N   UNL     1       2.343  -1.526   9.741  0.00  0.00    -0.342 N 
BRANCH   2   7
ATOM      7  C   UNL     1       4.582  -1.249  10.947  0.00  0.00    +0.161 C 
BRANCH   7   8
ATOM      8  N   UNL     1       5.558  -1.017   9.879  0.00  0.00    -0.292 N 
ATOM      9  C   UNL     1       5.529   0.133   9.177  0.00  0.00    +0.247 C 
ATOM     10  O   UNL     1       4.726   0.999   9.463  0.00  0.00    -0.270 OA
BRANCH   9  11
ATOM     11  C   UNL     1       6.473   0.341   8.060  0.00  0.00    +0.037 A 
ATOM     12  C   UNL     1       7.018  -0.756   7.390  0.00  0.00    +0.016 A 
ATOM     13  C   UNL     1       7.894  -0.557   6.345  0.00  0.00    +0.039 A 
ATOM     14  C   UNL     1       8.243   0.730   5.966  0.00  0.00    +0.123 A 
ATOM     15  C   UNL     1       7.710   1.823   6.632  0.00  0.00    +0.039 A 
ATOM     16  C   UNL     1       6.828   1.635   7.675  0.00  0.00    +0.016 A 
ATOM     17  F   UNL     1       9.107   0.920   4.944  0.00  0.00    -0.205 F 
ENDBRANCH   9  11
BRANCH   8  18
ATOM     18  C   UNL     1       6.566  -2.036   9.575  0.00  0.00    +0.108 C 
BRANCH  18  20
ATOM     19  C   UNL     1       6.970  -4.241   8.472  0.00  0.00    +0.005 C 
ATOM     20  C   UNL     1       5.917  -3.177   8.790  0.00  0.00    +0.016 C 
ENDBRANCH  18  20
ENDBRANCH   8  18
ENDBRANCH   7   8
ENDBRANCH   2   7
ENDBRANCH   1   6
BRANCH   1  21
ATOM     21  C   UNL     1       0.748   0.070   8.848  0.00  0.00    +0.126 A 
ATOM     22  C   UNL     1      -0.398   0.221   9.548  0.00  0.00    +0.047 A 
ATOM     23  C   UNL     1      -1.437   0.355   8.615  0.00  0.00    +0.055 A 
ATOM     24  C   UNL     1      -0.866   0.278   7.377  0.00  0.00    +0.189 A 
ATOM     25  O   UNL     1       0.461   0.100   7.540  0.00  0.00    -0.453 OA
BRANCH  24  26
ATOM     26  C   UNL     1      -1.572   0.368   6.095  0.00  0.00    +0.279 C 
ATOM     27  O   UNL     1      -2.763   0.617   6.072  0.00  0.00    -0.267 OA
ATOM     28  N   UNL     1      -0.902   0.175   4.942  0.00  0.00    -0.309 N 
ATOM     29  H   UNL     1       0.029  -0.095   4.961  0.00  0.00    +0.149 HD
BRANCH  28  30
ATOM     30  C   UNL     1      -1.581   0.372   3.658  0.00  0.00    +0.103 C 
BRANCH  30  31
ATOM     31  C   UNL     1      -0.573   0.212   2.518  0.00  0.00    +0.000 C 
BRANCH  31  32
ATOM     32  C   UNL     1      -1.282   0.418   1.178  0.00  0.00    -0.077 C 
BRANCH  32  39
ATOM     33  C   UNL     1       0.926   0.998   0.370  0.00  0.00    -0.078 C 
ATOM     34  C   UNL     1       1.960   0.698  -0.717  0.00  0.00    -0.019 C 
ATOM     35  C   UNL     1       1.399   1.118  -2.079  0.00  0.00    -0.003 C 
ATOM     36  C   UNL     1       0.084   0.375  -2.331  0.00  0.00    -0.016 C 
ATOM     37  C   UNL     1      -0.897   0.684  -1.197  0.00  0.00    -0.072 C 
ATOM     38  C   UNL     1      -2.206  -0.072  -1.434  0.00  0.00    -0.013 C 
ATOM     39  N   UNL     1      -0.308   0.234   0.083  0.00  0.00    +0.381 N 
ATOM     40  H   UNL     1      -0.073  -0.762   0.009  0.00  0.00    -0.081 HD
ENDBRANCH  32  39
ENDBRANCH  31  32
ENDBRANCH  30  31
ENDBRANCH  28  30
ENDBRANCH  24  26
ENDBRANCH   1  21
TORSDOF 12
