REMARK  Name = ZINC65265842
REMARK  8 active torsions:
REMARK  status: ('A' for Active; 'I' for Inactive)
REMARK    1  A    between atoms: C_1  and  C_2
REMARK    2  A    between atoms: C_2  and  C_3
REMARK    3  A    between atoms: C_6  and  S_9
REMARK    4  A    between atoms: S_9  and  N_12
REMARK    5  A    between atoms: N_27  and  C_28
REMARK    6  A    between atoms: C_28  and  C_29
REMARK    7  A    between atoms: C_29  and  O_30
REMARK    8  A    between atoms: O_30  and  C_31
REMARK                            x       y       z     vdW  Elec       q    Type
REMARK                         _______ _______ _______ _____ _____    ______ ____
ROOT
ATOM      1  N   UNL     1       3.339  -0.635  -5.812  0.00  0.00    -0.174 NA
ATOM      2  C   UNL     1       2.530   0.048  -6.839  0.00  0.00    +0.112 C 
ATOM      3  C   UNL     1       3.070   1.502  -6.872  0.00  0.00    +0.048 C 
ATOM      4  C   UNL     1       4.572   1.276  -6.623  0.00  0.00    +0.089 C 
ATOM      5  C   UNL     1       4.618   0.081  -5.666  0.00  0.00    +0.139 C 
ATOM      6  C   UNL     1       5.226   2.483  -6.042  0.00  0.00    +0.094 C 
ATOM      7  N   UNL     1       5.756   3.386  -6.931  0.00  0.00    -0.303 N 
ATOM      8  C   UNL     1       7.075   3.226  -7.346  0.00  0.00    +0.037 A 
ATOM      9  C   UNL     1       7.926   4.321  -7.390  0.00  0.00    +0.023 A 
ATOM     10  C   UNL     1       9.231   4.169  -7.816  0.00  0.00    +0.002 A 
ATOM     11  C   UNL     1       9.679   2.917  -8.198  0.00  0.00    +0.000 A 
ATOM     12  C   UNL     1       8.835   1.829  -8.149  0.00  0.00    +0.007 A 
ATOM     13  C   UNL     1       7.520   1.963  -7.715  0.00  0.00    -0.012 A 
ATOM     14  C   UNL     1       6.689   0.706  -7.663  0.00  0.00    +0.119 C 
ATOM     15  N   UNL     1       5.261   0.958  -7.895  0.00  0.00    -0.299 NA
ATOM     16  N   UNL     1       5.291   2.671  -4.763  0.00  0.00    -0.373 N 
ATOM     17  H   UNL     1       4.826   0.173  -8.355  0.00  0.00    +0.123 HD
ATOM     18  H   UNL     1       4.838   2.061  -4.160  0.00  0.00    +0.161 HD
ATOM     19  H   UNL     1       5.220   4.122  -7.264  0.00  0.00    +0.153 HD
ENDROOT
BRANCH   1  20
ATOM     20  S   UNL     1       2.883  -1.981  -4.960  0.00  0.00    +0.061 S 
ATOM     21  O   UNL     1       4.080  -2.612  -4.527  0.00  0.00    -0.153 OA
ATOM     22  O   UNL     1       1.911  -2.651  -5.751  0.00  0.00    -0.153 OA
BRANCH  20  26
ATOM     23  C   UNL     1       0.753  -0.549  -1.232  0.00  0.00    -0.048 A 
ATOM     24  C   UNL     1       0.036  -0.785  -2.389  0.00  0.00    +0.005 A 
ATOM     25  C   UNL     1       0.686  -1.222  -3.528  0.00  0.00    +0.029 A 
ATOM     26  C   UNL     1       2.054  -1.422  -3.509  0.00  0.00    +0.105 A 
ATOM     27  C   UNL     1       2.772  -1.185  -2.352  0.00  0.00    +0.029 A 
ATOM     28  C   UNL     1       2.122  -0.744  -1.214  0.00  0.00    +0.005 A 
BRANCH  23  30
ATOM     29  C   UNL     1       0.005   1.457   0.019  0.00  0.00    +0.009 C 
ATOM     30  C   UNL     1       0.044  -0.072   0.010  0.00  0.00    +0.032 C 
ENDBRANCH  23  30
ENDBRANCH  20  26
ENDBRANCH   1  20
BRANCH  16  31
ATOM     31  C   UNL     1       6.050   3.803  -4.227  0.00  0.00    +0.141 C 
BRANCH  31  32
ATOM     32  C   UNL     1       5.967   3.795  -2.699  0.00  0.00    +0.180 C 
BRANCH  32  33
ATOM     33  O   UNL     1       6.619   2.629  -2.193  0.00  0.00    -0.381 OA
ATOM     34  C   UNL     1       6.598   2.525  -0.768  0.00  0.00    +0.194 C 
ENDBRANCH  32  33
ENDBRANCH  31  32
ENDBRANCH  16  31
TORSDOF 6
