REMARK  Name = ZINC16594012
REMARK  10 active torsions:
REMARK  status: ('A' for Active; 'I' for Inactive)
REMARK    1  A    between atoms: C_1  and  N_2
REMARK    2  A    between atoms: N_2  and  C_3
REMARK    3  A    between atoms: N_2  and  S_4
REMARK    4  A    between atoms: S_4  and  C_7
REMARK    5  A    between atoms: C_11  and  C_13
REMARK    6  A    between atoms: N_15  and  N_16
REMARK    7  A    between atoms: C_17  and  C_19
REMARK    8  A    between atoms: C_19  and  C_20
REMARK    9  A    between atoms: C_20  and  N_21
REMARK   10  A    between atoms: C_22  and  C_24
REMARK                            x       y       z     vdW  Elec       q    Type
REMARK                         _______ _______ _______ _____ _____    ______ ____
ROOT
ATOM      1  N   UNL     1      -1.304  -4.991  -6.353  0.00  0.00    -0.234 N 
ATOM      2  C   UNL     1      -1.663  -5.184  -7.638  0.00  0.00    +0.231 C 
ATOM      3  O   UNL     1      -2.356  -4.366  -8.204  0.00  0.00    -0.274 OA
ATOM      4  H   UNL     1      -0.750  -5.646  -5.900  0.00  0.00    +0.173 HD
ENDROOT
BRANCH   1   7
ATOM      5  C   UNL     1      -1.375  -3.652  -4.386  0.00  0.00    +0.260 C 
ATOM      6  O   UNL     1      -0.680  -4.473  -3.819  0.00  0.00    -0.269 OA
ATOM      7  N   UNL     1      -1.733  -3.845  -5.671  0.00  0.00    -0.230 N 
ATOM      8  H   UNL     1      -2.287  -3.190  -6.123  0.00  0.00    +0.173 HD
BRANCH   5  13
ATOM      9  C   UNL     1      -1.884  -1.109  -1.669  0.00  0.00    +0.106 A 
ATOM     10  C   UNL     1      -2.675  -0.177  -2.318  0.00  0.00    +0.028 A 
ATOM     11  C   UNL     1      -3.043  -0.371  -3.637  0.00  0.00    +0.003 A 
ATOM     12  C   UNL     1      -2.624  -1.498  -4.314  0.00  0.00    +0.013 A 
ATOM     13  C   UNL     1      -1.827  -2.442  -3.666  0.00  0.00    +0.040 A 
ATOM     14  C   UNL     1      -1.454  -2.237  -2.337  0.00  0.00    +0.041 A 
BRANCH   9  15
ATOM     15  S   UNL     1      -1.421  -0.852   0.011  0.00  0.00    +0.060 S 
ATOM     16  O   UNL     1      -1.127  -2.132   0.552  0.00  0.00    -0.153 OA
ATOM     17  O   UNL     1      -2.401   0.008   0.576  0.00  0.00    -0.153 OA
BRANCH  15  19
ATOM     18  C   UNL     1      -0.018   1.461   0.010  0.00  0.00    +0.131 C 
ATOM     19  N   UNL     1       0.002  -0.004   0.002  0.00  0.00    -0.183 NA
ATOM     20  C   UNL     1       1.281  -0.719  -0.014  0.00  0.00    +0.131 C 
ENDBRANCH  15  19
ENDBRANCH   9  15
ENDBRANCH   5  13
ENDBRANCH   1   7
BRANCH   2  21
ATOM     21  C   UNL     1      -1.202  -6.418  -8.371  0.00  0.00    +0.116 C 
BRANCH  21  22
ATOM     22  C   UNL     1      -1.743  -6.392  -9.802  0.00  0.00    +0.113 C 
BRANCH  22  23
ATOM     23  N   UNL     1      -1.295  -7.591 -10.515  0.00  0.00    -0.314 N 
ATOM     24  C   UNL     1      -1.653  -7.784 -11.800  0.00  0.00    +0.219 C 
ATOM     25  O   UNL     1      -2.346  -6.965 -12.366  0.00  0.00    -0.275 OA
ATOM     26  H   UNL     1      -0.741  -8.245 -10.062  0.00  0.00    +0.149 HD
BRANCH  24  27
ATOM     27  C   UNL     1      -1.192  -9.017 -12.534  0.00  0.00    +0.048 C 
ATOM     28  C   UNL     1       0.337  -9.049 -12.567  0.00  0.00    +0.019 C 
ATOM     29  C   UNL     1       0.805 -10.301 -13.312  0.00  0.00    -0.009 C 
ATOM     30  C   UNL     1       0.264 -10.275 -14.743  0.00  0.00    +0.007 C 
ATOM     31  C   UNL     1      -1.265 -10.243 -14.709  0.00  0.00    -0.009 C 
ATOM     32  C   UNL     1      -1.733  -8.991 -13.964  0.00  0.00    +0.019 C 
ATOM     33  C   UNL     1      -1.786 -11.489 -13.989  0.00  0.00    +0.007 C 
ATOM     34  C   UNL     1      -1.244 -11.515 -12.558  0.00  0.00    -0.009 C 
ATOM     35  C   UNL     1       0.285 -11.546 -12.592  0.00  0.00    +0.007 C 
ATOM     36  C   UNL     1      -1.712 -10.263 -11.814  0.00  0.00    +0.019 C 
ENDBRANCH  24  27
ENDBRANCH  22  23
ENDBRANCH  21  22
ENDBRANCH   2  21
TORSDOF 8
