REMARK  Name = ZINC20558776
REMARK  5 active torsions:
REMARK  status: ('A' for Active; 'I' for Inactive)
REMARK    1  A    between atoms: C_1  and  C_2
REMARK    2  A    between atoms: C_5  and  C_8
REMARK    3  A    between atoms: C_8  and  N_9
REMARK    4  A    between atoms: C_19  and  N_20
REMARK    5  A    between atoms: N_20  and  C_21
REMARK                            x       y       z     vdW  Elec       q    Type
REMARK                         _______ _______ _______ _____ _____    ______ ____
ROOT
ATOM      1  N   UNL     1       0.121  -0.260   1.424  0.00  0.00    -0.198 N 
ATOM      2  C   UNL     1       1.260  -0.640   2.132  0.00  0.00    +0.062 A 
ATOM      3  C   UNL     1       2.406  -0.968   1.420  0.00  0.00    +0.025 A 
ATOM      4  C   UNL     1       3.554  -1.348   2.083  0.00  0.00    +0.002 A 
ATOM      5  C   UNL     1       3.573  -1.399   3.468  0.00  0.00    +0.001 A 
ATOM      6  C   UNL     1       2.449  -1.072   4.191  0.00  0.00    +0.013 A 
ATOM      7  C   UNL     1       1.273  -0.682   3.533  0.00  0.00    +0.046 A 
ATOM      8  C   UNL     1       0.098  -0.339   4.356  0.00  0.00    +0.216 C 
ATOM      9  O   UNL     1       0.249  -0.096   5.540  0.00  0.00    -0.285 OA
ATOM     10  C   UNL     1      -1.203  -0.285   3.797  0.00  0.00    +0.169 C 
ATOM     11  C   UNL     1      -2.279   0.021   4.555  0.00  0.00    +0.105 C 
ATOM     12  S   UNL     1      -1.366  -0.635   2.069  0.00  0.00    +0.080 S 
ATOM     13  O   UNL     1      -2.297   0.300   1.542  0.00  0.00    -0.150 OA
ATOM     14  O   UNL     1      -1.532  -2.041   1.942  0.00  0.00    -0.150 OA
ENDROOT
BRANCH  11  15
ATOM     15  N   UNL     1      -2.111   0.417   5.852  0.00  0.00    -0.319 N 
ATOM     16  H   UNL     1      -1.098   0.566   6.255  0.00  0.00    +0.152 HD
BRANCH  15  17
ATOM     17  C   UNL     1      -3.225   0.632   6.668  0.00  0.00    +0.031 A 
ATOM     18  C   UNL     1      -4.505   0.449   6.159  0.00  0.00    +0.024 A 
ATOM     19  C   UNL     1      -5.605   0.656   6.968  0.00  0.00    +0.022 A 
ATOM     20  C   UNL     1      -5.433   1.057   8.282  0.00  0.00    +0.041 A 
ATOM     21  C   UNL     1      -4.159   1.246   8.790  0.00  0.00    +0.022 A 
ATOM     22  C   UNL     1      -3.056   1.034   7.986  0.00  0.00    +0.024 A 
ATOM     23 CL   UNL     1      -6.817   1.324   9.294  0.00  0.00    -0.084 Cl
ENDBRANCH  15  17
ENDBRANCH  11  15
BRANCH   1  24
ATOM     24  C   UNL     1       0.231   0.445   0.144  0.00  0.00    +0.166 C 
BRANCH  24  29
ATOM     25  C   UNL     1       0.781   6.116   1.109  0.00  0.00    +0.044 C 
ATOM     26  C   UNL     1       0.638   4.637   0.857  0.00  0.00    -0.050 A 
ATOM     27  C   UNL     1       1.762   3.837   0.777  0.00  0.00    +0.003 A 
ATOM     28  C   UNL     1       1.631   2.480   0.546  0.00  0.00    +0.005 A 
ATOM     29  C   UNL     1       0.374   1.924   0.396  0.00  0.00    -0.028 A 
ATOM     30  C   UNL     1      -0.750   2.724   0.470  0.00  0.00    +0.005 A 
ATOM     31  C   UNL     1      -0.619   4.080   0.705  0.00  0.00    +0.003 A 
ENDBRANCH  24  29
ENDBRANCH   1  24
TORSDOF 4
