REMARK  Name = ZINC42052019
REMARK  11 active torsions:
REMARK  status: ('A' for Active; 'I' for Inactive)
REMARK    1  A    between atoms: C_1  and  C_2
REMARK    2  A    between atoms: C_4  and  C_25
REMARK    3  A    between atoms: C_5  and  N_9
REMARK    4  A    between atoms: C_6  and  C_8
REMARK    5  A    between atoms: C_10  and  C_12
REMARK    6  A    between atoms: C_12  and  N_13
REMARK    7  A    between atoms: C_14  and  C_16
REMARK    8  A    between atoms: C_16  and  C_18
REMARK    9  A    between atoms: C_16  and  N_21
REMARK   10  A    between atoms: C_18  and  C_19
REMARK   11  A    between atoms: C_18  and  C_20
REMARK                            x       y       z     vdW  Elec       q    Type
REMARK                         _______ _______ _______ _____ _____    ______ ____
ROOT
ATOM      1  N   UNL     1       0.551  -6.916   2.648  0.00  0.00    -0.305 N 
ATOM      2  C   UNL     1       0.929  -8.209   2.671  0.00  0.00    +0.234 C 
ATOM      3  O   UNL     1       0.722  -8.919   1.709  0.00  0.00    -0.274 OA
ATOM      4  H   UNL     1       0.650  -6.367   3.441  0.00  0.00    +0.149 HD
ENDROOT
BRANCH   1   5
ATOM      5  C   UNL     1      -0.010  -6.338   1.424  0.00  0.00    +0.200 C 
BRANCH   5   7
ATOM      6  N   UNL     1      -0.882  -4.150   0.668  0.00  0.00    -0.284 N 
ATOM      7  C   UNL     1      -0.349  -4.889   1.661  0.00  0.00    +0.234 C 
ATOM      8  O   UNL     1      -0.142  -4.388   2.746  0.00  0.00    -0.274 OA
ATOM      9  H   UNL     1      -1.122  -4.569  -0.173  0.00  0.00    +0.155 HD
BRANCH   6  14
ATOM     10  C   UNL     1      -1.723   1.411   1.408  0.00  0.00    +0.044 C 
ATOM     11  C   UNL     1      -1.500  -0.066   1.212  0.00  0.00    -0.050 A 
ATOM     12  C   UNL     1      -0.727  -0.512   0.155  0.00  0.00    +0.008 A 
ATOM     13  C   UNL     1      -0.520  -1.866  -0.028  0.00  0.00    -0.029 A 
ATOM     14  C   UNL     1      -1.089  -2.778   0.851  0.00  0.00    +0.039 A 
ATOM     15  C   UNL     1      -1.864  -2.327   1.911  0.00  0.00    -0.029 A 
ATOM     16  C   UNL     1      -2.063  -0.972   2.091  0.00  0.00    +0.008 A 
ATOM     17  C   UNL     1      -2.483  -3.314   2.867  0.00  0.00    +0.045 C 
ATOM     18  C   UNL     1       0.321  -2.351  -1.180  0.00  0.00    +0.045 C 
ENDBRANCH   6  14
ENDBRANCH   5   7
ENDBRANCH   1   5
BRANCH   2  19
ATOM     19  C   UNL     1       1.610  -8.774   3.891  0.00  0.00    +0.163 C 
BRANCH  19  20
ATOM     20  N   UNL     1       1.339 -10.211   3.980  0.00  0.00    -0.288 N 
ATOM     21  C   UNL     1       1.387 -10.833   5.174  0.00  0.00    +0.298 C 
ATOM     22  O   UNL     1       1.654 -10.201   6.178  0.00  0.00    -0.253 OA
ATOM     23  N   UNL     1       1.139 -12.155   5.256  0.00  0.00    -0.313 N 
ATOM     24  H   UNL     1       1.126 -10.715   3.179  0.00  0.00    +0.151 HD
ATOM     25  H   UNL     1       0.925 -12.659   4.455  0.00  0.00    +0.146 HD
ATOM     26  H   UNL     1       1.173 -12.603   6.116  0.00  0.00    +0.146 HD
ENDBRANCH  19  20
BRANCH  19  27
ATOM     27  C   UNL     1       3.119  -8.544   3.785  0.00  0.00    +0.012 C 
ATOM     28  C   UNL     1       3.406  -7.041   3.774  0.00  0.00    +0.009 C 
ATOM     29  C   UNL     1       3.817  -9.188   4.985  0.00  0.00    +0.009 C 
ENDBRANCH  19  27
ENDBRANCH   2  19
TORSDOF 6
