REMARK  Name = ZINC60031229
REMARK  3 active torsions:
REMARK  status: ('A' for Active; 'I' for Inactive)
REMARK    1  A    between atoms: C_1  and  C_2
REMARK    2  A    between atoms: C_8  and  N_10
REMARK    3  A    between atoms: C_17  and  C_20
REMARK                            x       y       z     vdW  Elec       q    Type
REMARK                         _______ _______ _______ _____ _____    ______ ____
ROOT
ATOM      1  N   UNL     1       0.056  -0.038   2.447  0.00  0.00    -0.325 N 
ATOM      2  C   UNL     1       0.760   0.097   3.639  0.00  0.00    +0.140 A 
ATOM      3  C   UNL     1       0.091   0.547   4.794  0.00  0.00    +0.049 A 
ATOM      4  C   UNL     1       0.768   0.683   5.965  0.00  0.00    +0.053 A 
ATOM      5  C   UNL     1       2.140   0.370   6.005  0.00  0.00    +0.178 A 
ATOM      6  N   UNL     1       3.057   0.395   6.961  0.00  0.00    -0.128 NA
ATOM      7  N   UNL     1       4.188   0.009   6.485  0.00  0.00    -0.127 NA
ATOM      8  C   UNL     1       4.064  -0.286   5.204  0.00  0.00    +0.188 A 
ATOM      9  N   UNL     1       2.763  -0.066   4.861  0.00  0.00    -0.191 N 
ATOM     10  N   UNL     1       2.038  -0.200   3.675  0.00  0.00    -0.148 NA
ATOM     11  H   UNL     1      -0.888   0.180   2.413  0.00  0.00    +0.148 HD
ENDROOT
BRANCH   1  18
ATOM     12  C   UNL     1      -0.019   1.526   0.010  0.00  0.00    +0.009 C 
ATOM     13  C   UNL     1       0.002  -0.004   0.002  0.00  0.00    +0.006 C 
ATOM     14  C   UNL     1      -1.433  -0.534   0.013  0.00  0.00    +0.005 C 
ATOM     15  C   UNL     1      -1.413  -2.063   0.004  0.00  0.00    +0.000 C 
ATOM     16  C   UNL     1      -0.673  -2.570   1.244  0.00  0.00    +0.002 C 
ATOM     17  C   UNL     1       0.763  -2.041   1.233  0.00  0.00    +0.022 C 
ATOM     18  C   UNL     1       0.742  -0.511   1.242  0.00  0.00    +0.075 C 
ENDBRANCH   1  18
BRANCH   8  19
ATOM     19  C   UNL     1       5.136  -0.765   4.307  0.00  0.00    +0.056 A 
ATOM     20  C   UNL     1       4.861  -1.032   2.965  0.00  0.00    +0.014 A 
ATOM     21  C   UNL     1       5.867  -1.479   2.133  0.00  0.00    +0.001 A 
ATOM     22  C   UNL     1       7.147  -1.663   2.625  0.00  0.00    +0.003 A 
ATOM     23  C   UNL     1       7.429  -1.401   3.954  0.00  0.00    +0.039 A 
ATOM     24  C   UNL     1       6.433  -0.946   4.797  0.00  0.00    +0.134 A 
ATOM     25  F   UNL     1       6.710  -0.685   6.093  0.00  0.00    -0.205 F 
ENDBRANCH   8  19
TORSDOF 2
