REMARK  Name = ZINC06408546
REMARK  12 active torsions:
REMARK  status: ('A' for Active; 'I' for Inactive)
REMARK    1  A    between atoms: C_1  and  C_2
REMARK    2  A    between atoms: C_9  and  C_14
REMARK    3  A    between atoms: C_14  and  C_16
REMARK    4  A    between atoms: C_14  and  N_66
REMARK    5  A    between atoms: N_20  and  C_21
REMARK    6  A    between atoms: C_21  and  C_22
REMARK    7  A    between atoms: C_21  and  C_23
REMARK    8  A    between atoms: C_21  and  C_24
REMARK    9  A    between atoms: C_25  and  C_26
REMARK   10  A    between atoms: C_25  and  N_66
REMARK   11  A    between atoms: C_33  and  C_34
REMARK   12  A    between atoms: C_33  and  N_66
REMARK                            x       y       z     vdW  Elec       q    Type
REMARK                         _______ _______ _______ _____ _____    ______ ____
ROOT
ATOM      1  C   UNL     1       0.387   3.441   2.350  0.00  0.00    +0.040 C 
ENDROOT
BRANCH   1  10
ATOM      2  C   UNL     1      -4.326  -2.038   0.508  0.00  0.00    +0.044 C 
ATOM      3  C   UNL     1      -3.046  -1.565   1.149  0.00  0.00    -0.050 A 
ATOM      4  C   UNL     1      -2.195  -2.485   1.746  0.00  0.00    +0.005 A 
ATOM      5  C   UNL     1      -1.020  -2.075   2.338  0.00  0.00    +0.026 A 
ATOM      6  C   UNL     1      -0.682  -0.725   2.338  0.00  0.00    +0.049 A 
ATOM      7  C   UNL     1      -1.547   0.204   1.731  0.00  0.00    -0.001 A 
ATOM      8  C   UNL     1      -2.735  -0.235   1.137  0.00  0.00    +0.013 A 
ATOM      9  C   UNL     1      -1.182   1.622   1.736  0.00  0.00    +0.017 A 
ATOM     10  C   UNL     1      -0.019   1.989   2.328  0.00  0.00    +0.011 A 
ATOM     11  C   UNL     1       0.817   1.016   2.917  0.00  0.00    +0.251 A 
ATOM     12  O   UNL     1       1.861   1.367   3.438  0.00  0.00    -0.268 OA
ATOM     13  N   UNL     1       0.488  -0.287   2.922  0.00  0.00    -0.322 N 
ATOM     14  H   UNL     1       1.083  -0.929   3.339  0.00  0.00    +0.169 HD
ENDBRANCH   1  10
BRANCH   1  15
ATOM     15  C   UNL     1       0.384   3.941   3.772  0.00  0.00    +0.143 A 
ATOM     16  N   UNL     1       1.216   3.598   4.724  0.00  0.00    -0.115 NA
ATOM     17  N   UNL     1       0.887   4.240   5.791  0.00  0.00    -0.023 NA
ATOM     18  N   UNL     1      -0.135   4.984   5.545  0.00  0.00    -0.043 NA
ATOM     19  N   UNL     1      -0.471   4.831   4.308  0.00  0.00    -0.225 N 
BRANCH  19  20
ATOM     20  C   UNL     1      -1.578   5.499   3.619  0.00  0.00    +0.059 C 
ATOM     21  C   UNL     1      -2.510   4.448   3.012  0.00  0.00    +0.036 C 
ATOM     22  C   UNL     1      -2.359   6.355   4.619  0.00  0.00    +0.036 C 
ATOM     23  C   UNL     1      -1.023   6.391   2.508  0.00  0.00    +0.036 C 
ENDBRANCH  19  20
ENDBRANCH   1  15
BRANCH   1  24
ATOM     24  N   UNL     1       1.752   3.560   1.795  0.00  0.00    +0.397 N 
ATOM     25  H   UNL     1       2.329   2.794   2.162  0.00  0.00    -0.079 HD
BRANCH  24  26
ATOM     26  C   UNL     1       2.350   4.849   2.199  0.00  0.00    -0.039 C 
BRANCH  26  27
ATOM     27  C   UNL     1       3.797   4.867   1.778  0.00  0.00    -0.046 A 
ATOM     28  C   UNL     1       4.775   4.418   2.645  0.00  0.00    +0.003 A 
ATOM     29  C   UNL     1       6.102   4.431   2.258  0.00  0.00    +0.000 A 
ATOM     30  C   UNL     1       6.452   4.901   1.005  0.00  0.00    +0.001 A 
ATOM     31  C   UNL     1       5.476   5.354   0.139  0.00  0.00    +0.020 A 
ATOM     32  C   UNL     1       4.147   5.338   0.525  0.00  0.00    +0.042 A 
ATOM     33 CL   UNL     1       2.920   5.908  -0.562  0.00  0.00    -0.083 Cl
ENDBRANCH  26  27
ENDBRANCH  24  26
BRANCH  24  34
ATOM     34  C   UNL     1       1.707   3.463   0.321  0.00  0.00    -0.001 C 
BRANCH  34  35
ATOM     35  C   UNL     1       1.482   2.023  -0.063  0.00  0.00    +0.089 A 
ATOM     36  C   UNL     1       0.348   1.513  -0.574  0.00  0.00    +0.042 A 
ATOM     37  C   UNL     1       0.577   0.134  -0.784  0.00  0.00    +0.041 A 
ATOM     38  C   UNL     1       1.838  -0.116  -0.389  0.00  0.00    +0.195 A 
ATOM     39  O   UNL     1       2.381   1.032   0.047  0.00  0.00    -0.470 OA
ENDBRANCH  34  35
ENDBRANCH  24  34
ENDBRANCH   1  24
TORSDOF 8
