REMARK  Name = ZINC00142602
REMARK  6 active torsions:
REMARK  status: ('A' for Active; 'I' for Inactive)
REMARK    1  A    between atoms: C_1  and  C_2
REMARK    2  A    between atoms: C_4  and  C_17
REMARK    3  A    between atoms: C_6  and  N_8
REMARK    4  A    between atoms: C_9  and  C_16
REMARK    5  A    between atoms: C_10  and  C_13
REMARK    6  A    between atoms: C_13  and  C_15
REMARK                            x       y       z     vdW  Elec       q    Type
REMARK                         _______ _______ _______ _____ _____    ______ ____
ROOT
ATOM      1  C   UNL     1      -0.013   1.086   0.008  0.00  0.00    +0.065 C 
ATOM      2  C   UNL     1      -0.718   1.572   1.248  0.00  0.00    +0.041 A 
ATOM      3  C   UNL     1       0.009   1.803   2.400  0.00  0.00    +0.035 A 
ATOM      4  C   UNL     1      -0.647   2.250   3.538  0.00  0.00    +0.060 A 
ATOM      5  C   UNL     1      -2.015   2.450   3.476  0.00  0.00    +0.060 A 
ATOM      6  C   UNL     1      -2.682   2.197   2.284  0.00  0.00    +0.155 A 
ATOM      7  N   UNL     1      -2.020   1.776   1.218  0.00  0.00    -0.233 NA
ENDROOT
BRANCH   6   8
ATOM      8  N   UNL     1      -4.064   2.395   2.208  0.00  0.00    -0.218 N 
ATOM      9  C   UNL     1      -4.759   2.656   1.087  0.00  0.00    +0.054 A 
ATOM     10  C   UNL     1      -6.090   2.782   1.447  0.00  0.00    +0.058 A 
ATOM     11  C   UNL     1      -6.162   2.583   2.848  0.00  0.00    +0.146 A 
ATOM     12  N   UNL     1      -4.956   2.349   3.285  0.00  0.00    -0.172 NA
ATOM     13  C   UNL     1      -4.194   2.788  -0.304  0.00  0.00    +0.066 C 
BRANCH  10  14
ATOM     14  C   UNL     1      -7.213   3.067   0.548  0.00  0.00    +0.163 C 
ATOM     15  O   UNL     1      -7.017   3.217  -0.639  0.00  0.00    -0.292 OA
ATOM     16  C   UNL     1      -8.611   3.173   1.100  0.00  0.00    +0.092 C 
ENDBRANCH  10  14
ENDBRANCH   6   8
BRANCH   4  17
ATOM     17  C   UNL     1       0.114   2.512   4.813  0.00  0.00    +0.418 C 
ATOM     18  F   UNL     1       1.470   2.235   4.612  0.00  0.00    -0.166 F 
ATOM     19  F   UNL     1      -0.039   3.854   5.179  0.00  0.00    -0.166 F 
ATOM     20  F   UNL     1      -0.385   1.691   5.830  0.00  0.00    -0.166 F 
ENDBRANCH   4  17
TORSDOF 3
