REMARK  Name = ZINC33326889
REMARK  9 active torsions:
REMARK  status: ('A' for Active; 'I' for Inactive)
REMARK    1  A    between atoms: C_1  and  C_2
REMARK    2  A    between atoms: C_5  and  S_9
REMARK    3  A    between atoms: C_7  and  C_8
REMARK    4  A    between atoms: S_9  and  N_12
REMARK    5  A    between atoms: N_12  and  C_13
REMARK    6  A    between atoms: C_16  and  N_19
REMARK    7  A    between atoms: C_22  and  N_27
REMARK    8  A    between atoms: C_24  and  C_26
REMARK    9  A    between atoms: N_27  and  C_28
REMARK                            x       y       z     vdW  Elec       q    Type
REMARK                         _______ _______ _______ _____ _____    ______ ____
ROOT
ATOM      1  C   UNL     1       3.173   0.643  -1.487  0.00  0.00    +0.048 A 
ATOM      2  C   UNL     1       1.991   0.239  -0.880  0.00  0.00    +0.026 A 
ATOM      3  C   UNL     1       0.985   1.157  -0.649  0.00  0.00    +0.025 A 
ATOM      4  C   UNL     1       1.157   2.483  -1.022  0.00  0.00    +0.032 A 
ATOM      5  C   UNL     1       2.339   2.887  -1.629  0.00  0.00    +0.025 A 
ATOM      6  C   UNL     1       3.344   1.969  -1.861  0.00  0.00    +0.026 A 
ENDROOT
BRANCH   4   7
ATOM      7  N   UNL     1       0.135   3.413  -0.792  0.00  0.00    -0.301 N 
ATOM      8  C   UNL     1       0.446   4.694  -0.361  0.00  0.00    +0.105 A 
ATOM      9  C   UNL     1       1.750   5.020   0.000  0.00  0.00    +0.085 A 
ATOM     10  C   UNL     1       2.012   6.318   0.425  0.00  0.00    +0.124 A 
ATOM     11  N   UNL     1       1.012   7.197   0.471  0.00  0.00    -0.220 NA
ATOM     12  C   UNL     1      -0.210   6.850   0.120  0.00  0.00    +0.107 A 
ATOM     13  N   UNL     1      -0.497   5.632  -0.292  0.00  0.00    -0.332 N 
ATOM     14  C   UNL     1      -1.310   7.877   0.189  0.00  0.00    +0.086 C 
ATOM     15  H   UNL     1      -0.915   3.128  -0.954  0.00  0.00    +0.154 HD
ATOM     16  H   UNL     1      -1.531   5.395  -0.582  0.00  0.00    +0.168 HD
BRANCH  10  17
ATOM     17  N   UNL     1       3.294   6.693   0.795  0.00  0.00    -0.326 N 
ATOM     18  H   UNL     1       3.476   7.694   1.212  0.00  0.00    +0.148 HD
BRANCH  17  19
ATOM     19  C   UNL     1       4.407   5.754   0.631  0.00  0.00    +0.072 C 
ATOM     20  C   UNL     1       4.528   4.882   1.882  0.00  0.00    +0.022 C 
ATOM     21  C   UNL     1       5.691   3.902   1.710  0.00  0.00    +0.002 C 
ATOM     22  C   UNL     1       6.990   4.684   1.506  0.00  0.00    +0.000 C 
ATOM     23  C   UNL     1       6.869   5.556   0.255  0.00  0.00    +0.002 C 
ATOM     24  C   UNL     1       5.707   6.536   0.426  0.00  0.00    +0.022 C 
ENDBRANCH  17  19
ENDBRANCH  10  17
ENDBRANCH   4   7
BRANCH   1  25
ATOM     25  N   UNL     1       4.192  -0.287  -1.722  0.00  0.00    -0.216 N 
ATOM     26  H   UNL     1       5.101  -0.275  -1.103  0.00  0.00    +0.174 HD
BRANCH  25  27
ATOM     27  S   UNL     1       4.028  -1.407  -2.931  0.00  0.00    +0.072 S 
ATOM     28  O   UNL     1       5.255  -2.122  -2.991  0.00  0.00    -0.150 OA
ATOM     29  O   UNL     1       2.780  -2.053  -2.720  0.00  0.00    -0.150 OA
BRANCH  27  34
ATOM     30  C   UNL     1       3.545   1.630  -8.122  0.00  0.00    +0.044 C 
ATOM     31  C   UNL     1       3.665   0.871  -6.825  0.00  0.00    -0.047 A 
ATOM     32  C   UNL     1       2.527   0.466  -6.153  0.00  0.00    +0.005 A 
ATOM     33  C   UNL     1       2.638  -0.234  -4.966  0.00  0.00    +0.029 A 
ATOM     34  C   UNL     1       3.887  -0.520  -4.447  0.00  0.00    +0.109 A 
ATOM     35  C   UNL     1       5.024  -0.115  -5.119  0.00  0.00    +0.032 A 
ATOM     36  C   UNL     1       4.914   0.580  -6.309  0.00  0.00    -0.046 A 
ATOM     37  C   UNL     1       6.154   1.022  -7.042  0.00  0.00    +0.044 C 
ENDBRANCH  27  34
ENDBRANCH  25  27
ENDBRANCH   1  25
TORSDOF 6
