REMARK  Name = ZINC35265858
REMARK  16 active torsions:
REMARK  status: ('A' for Active; 'I' for Inactive)
REMARK    1  A    between atoms: C_1  and  C_2
REMARK    2  A    between atoms: C_2  and  C_3
REMARK    3  A    between atoms: C_3  and  N_4
REMARK    4  A    between atoms: C_5  and  C_38
REMARK    5  A    between atoms: C_6  and  C_32
REMARK    6  A    between atoms: C_7  and  C_12
REMARK    7  A    between atoms: C_16  and  N_18
REMARK    8  A    between atoms: N_21  and  C_22
REMARK    9  A    between atoms: C_24  and  O_30
REMARK   10  A    between atoms: C_26  and  O_28
REMARK   11  A    between atoms: O_28  and  C_29
REMARK   12  A    between atoms: O_30  and  C_31
REMARK   13  A    between atoms: C_32  and  O_34
REMARK   14  A    between atoms: O_34  and  C_35
REMARK   15  A    between atoms: C_35  and  C_36
REMARK   16  A    between atoms: C_35  and  C_37
REMARK                            x       y       z     vdW  Elec       q    Type
REMARK                         _______ _______ _______ _____ _____    ______ ____
ROOT
ATOM      1  C   UNL     1      -0.294  -5.991  -0.661  0.00  0.00    -0.021 A 
ATOM      2  C   UNL     1      -1.347  -5.732   0.198  0.00  0.00    +0.006 A 
ATOM      3  C   UNL     1      -1.979  -6.771   0.854  0.00  0.00    +0.002 A 
ATOM      4  C   UNL     1      -1.560  -8.072   0.655  0.00  0.00    +0.023 A 
ATOM      5  C   UNL     1      -0.503  -8.336  -0.206  0.00  0.00    +0.035 A 
ATOM      6  C   UNL     1       0.126  -7.290  -0.869  0.00  0.00    +0.029 A 
ENDROOT
BRANCH   1  10
ATOM      7  N   UNL     1       0.216  -2.174  -0.718  0.00  0.00    -0.259 N 
ATOM      8  C   UNL     1       1.215  -2.901  -0.137  0.00  0.00    +0.024 C 
ATOM      9  C   UNL     1       1.367  -4.216  -0.407  0.00  0.00    +0.078 C 
ATOM     10  C   UNL     1       0.392  -4.854  -1.375  0.00  0.00    +0.144 C 
ATOM     11  N   UNL     1      -0.649  -3.983  -1.945  0.00  0.00    -0.288 N 
ATOM     12  C   UNL     1      -0.675  -2.688  -1.575  0.00  0.00    +0.307 C 
ATOM     13  O   UNL     1      -1.533  -1.961  -2.037  0.00  0.00    -0.252 OA
ATOM     14  C   UNL     1       2.164  -2.227   0.820  0.00  0.00    +0.061 C 
ATOM     15  H   UNL     1      -1.302  -4.334  -2.571  0.00  0.00    +0.151 HD
BRANCH   9  16
ATOM     16  C   UNL     1       2.403  -4.970   0.193  0.00  0.00    +0.339 C 
ATOM     17  O   UNL     1       3.175  -4.436   0.967  0.00  0.00    -0.245 OA
BRANCH  16  18
ATOM     18  O   UNL     1       2.534  -6.283  -0.094  0.00  0.00    -0.459 OA
BRANCH  18  19
ATOM     19  C   UNL     1       3.601  -6.983   0.548  0.00  0.00    +0.171 C 
ATOM     20  C   UNL     1       3.107  -7.560   1.876  0.00  0.00    +0.052 C 
ATOM     21  C   UNL     1       4.081  -8.121  -0.356  0.00  0.00    +0.052 C 
ENDBRANCH  18  19
ENDBRANCH  16  18
ENDBRANCH   9  16
BRANCH   7  22
ATOM     22  C   UNL     1       0.110  -0.752  -0.379  0.00  0.00    +0.114 C 
BRANCH  22  24
ATOM     23  C   UNL     1       0.942   1.541  -0.917  0.00  0.00    +0.005 C 
ATOM     24  C   UNL     1       1.054   0.056  -1.271  0.00  0.00    +0.016 C 
ENDBRANCH  22  24
ENDBRANCH   7  22
ENDBRANCH   1  10
BRANCH   5  25
ATOM     25  N   UNL     1      -0.076  -9.652  -0.410  0.00  0.00    -0.269 N 
ATOM     26  C   UNL     1      -0.118 -10.539   0.605  0.00  0.00    +0.308 C 
ATOM     27  O   UNL     1      -0.440 -10.174   1.719  0.00  0.00    -0.252 OA
ATOM     28  N   UNL     1       0.196 -11.831   0.384  0.00  0.00    -0.269 N 
ATOM     29  H   UNL     1       0.251  -9.927  -1.281  0.00  0.00    +0.156 HD
ATOM     30  H   UNL     1       0.514 -12.111  -0.489  0.00  0.00    +0.156 HD
BRANCH  28  31
ATOM     31  C   UNL     1       0.063 -12.769   1.413  0.00  0.00    +0.042 A 
ATOM     32  C   UNL     1      -0.340 -14.066   1.124  0.00  0.00    +0.069 A 
ATOM     33  C   UNL     1      -0.471 -14.995   2.144  0.00  0.00    +0.125 A 
ATOM     34  C   UNL     1      -0.200 -14.629   3.454  0.00  0.00    +0.091 A 
ATOM     35  C   UNL     1       0.201 -13.334   3.745  0.00  0.00    +0.125 A 
ATOM     36  C   UNL     1       0.339 -12.405   2.724  0.00  0.00    +0.069 A 
BRANCH  35  37
ATOM     37  O   UNL     1       0.466 -12.976   5.029  0.00  0.00    -0.495 OA
ATOM     38  C   UNL     1       0.310 -13.985   6.029  0.00  0.00    +0.277 C 
ENDBRANCH  35  37
BRANCH  33  39
ATOM     39  O   UNL     1      -0.865 -16.264   1.861  0.00  0.00    -0.495 OA
ATOM     40  C   UNL     1      -0.979 -17.169   2.961  0.00  0.00    +0.277 C 
ENDBRANCH  33  39
ENDBRANCH  28  31
ENDBRANCH   5  25
TORSDOF 10
