REMARK  Name = ZINC58467058
REMARK  4 active torsions:
REMARK  status: ('A' for Active; 'I' for Inactive)
REMARK    1  A    between atoms: C_1  and  C_2
REMARK    2  A    between atoms: C_2  and  C_4
REMARK    3  A    between atoms: C_2  and  N_13
REMARK    4  A    between atoms: N_16  and  C_17
REMARK                            x       y       z     vdW  Elec       q    Type
REMARK                         _______ _______ _______ _____ _____    ______ ____
ROOT
ATOM      1  N   UNL     1       0.710  -0.495   1.187  0.00  0.00    -0.290 N 
ATOM      2  C   UNL     1       0.052  -0.632   2.356  0.00  0.00    +0.304 C 
ATOM      3  O   UNL     1      -1.129  -0.350   2.425  0.00  0.00    -0.252 OA
ATOM      4  N   UNL     1       0.703  -1.080   3.447  0.00  0.00    -0.269 N 
ATOM      5  H   UNL     1       1.652  -0.719   1.132  0.00  0.00    +0.151 HD
ATOM      6  H   UNL     1       1.627  -1.368   3.377  0.00  0.00    +0.156 HD
ENDROOT
BRANCH   4   7
ATOM      7  C   UNL     1       0.047  -1.130   4.682  0.00  0.00    +0.040 A 
ATOM      8  C   UNL     1       0.745  -0.864   5.852  0.00  0.00    +0.061 A 
ATOM      9  C   UNL     1       0.094  -0.914   7.072  0.00  0.00    +0.128 A 
ATOM     10  C   UNL     1      -1.253  -1.230   7.127  0.00  0.00    +0.076 A 
ATOM     11  C   UNL     1      -1.951  -1.497   5.961  0.00  0.00    +0.128 A 
ATOM     12  C   UNL     1      -1.305  -1.442   4.739  0.00  0.00    +0.061 A 
ATOM     13  F   UNL     1      -3.265  -1.806   6.017  0.00  0.00    -0.205 F 
ATOM     14  F   UNL     1       0.774  -0.655   8.211  0.00  0.00    -0.205 F 
ENDBRANCH   4   7
BRANCH   1  16
ATOM     15  C   UNL     1      -0.009   1.522   0.006  0.00  0.00    +0.036 C 
ATOM     16  C   UNL     1       0.002  -0.008   0.001  0.00  0.00    +0.137 C 
BRANCH  16  17
ATOM     17  C   UNL     1       0.701  -0.501  -1.239  0.00  0.00    +0.126 A 
ATOM     18  C   UNL     1       0.083  -0.933  -2.348  0.00  0.00    +0.055 A 
ATOM     19  C   UNL     1       1.146  -1.311  -3.287  0.00  0.00    +0.020 A 
ATOM     20  C   UNL     1       1.164  -1.821  -4.584  0.00  0.00    +0.011 A 
ATOM     21  C   UNL     1       2.361  -2.072  -5.197  0.00  0.00    +0.001 A 
ATOM     22  C   UNL     1       3.554  -1.822  -4.536  0.00  0.00    +0.004 A 
ATOM     23  C   UNL     1       3.556  -1.317  -3.254  0.00  0.00    +0.047 A 
ATOM     24  C   UNL     1       2.352  -1.055  -2.613  0.00  0.00    +0.135 A 
ATOM     25  O   UNL     1       2.034  -0.568  -1.396  0.00  0.00    -0.458 OA
ENDBRANCH  16  17
ENDBRANCH   1  16
TORSDOF 3
