REMARK  Name = ZINC40019228
REMARK  16 active torsions:
REMARK  status: ('A' for Active; 'I' for Inactive)
REMARK    1  A    between atoms: C_1  and  C_2
REMARK    2  A    between atoms: C_2  and  C_3
REMARK    3  A    between atoms: C_3  and  C_4
REMARK    4  A    between atoms: C_4  and  N_5
REMARK    5  A    between atoms: N_5  and  C_6
REMARK    6  A    between atoms: N_5  and  C_10
REMARK    7  A    between atoms: C_6  and  C_7
REMARK    8  A    between atoms: C_7  and  C_8
REMARK    9  A    between atoms: C_8  and  C_9
REMARK   10  A    between atoms: C_10  and  C_11
REMARK   11  A    between atoms: C_11  and  C_12
REMARK   12  A    between atoms: C_12  and  N_13
REMARK   13  A    between atoms: C_14  and  C_30
REMARK   14  A    between atoms: C_16  and  C_21
REMARK   15  A    between atoms: C_21  and  C_23
REMARK   16  A    between atoms: C_33  and  C_35
REMARK                            x       y       z     vdW  Elec       q    Type
REMARK                         _______ _______ _______ _____ _____    ______ ____
ROOT
ATOM      1  N   UNL     1      -1.640  -6.555  -2.538  0.00  0.00    -0.281 N 
ATOM      2  C   UNL     1      -2.797  -6.328  -1.663  0.00  0.00    +0.180 C 
ATOM      3  C   UNL     1      -3.973  -6.995  -2.338  0.00  0.00    +0.079 C 
ATOM      4  C   UNL     1      -3.506  -7.543  -3.484  0.00  0.00    +0.249 C 
ATOM      5  C   UNL     1      -2.060  -7.261  -3.604  0.00  0.00    +0.288 C 
ATOM      6  O   UNL     1      -1.354  -7.615  -4.527  0.00  0.00    -0.266 OA
ATOM      7  O   UNL     1      -4.246  -8.235  -4.381  0.00  0.00    -0.282 OA
ENDROOT
BRANCH   2   8
ATOM      8  C   UNL     1      -3.053  -4.850  -1.516  0.00  0.00    +0.130 A 
ATOM      9  C   UNL     1      -3.291  -4.204  -0.360  0.00  0.00    +0.047 A 
ATOM     10  C   UNL     1      -3.474  -2.840  -0.684  0.00  0.00    +0.045 A 
ATOM     11  C   UNL     1      -3.336  -2.734  -2.018  0.00  0.00    +0.102 A 
ATOM     12  O   UNL     1      -3.075  -3.953  -2.516  0.00  0.00    -0.463 OA
ATOM     13  C   UNL     1      -3.450  -1.461  -2.817  0.00  0.00    +0.086 C 
ENDBRANCH   2   8
BRANCH   3  14
ATOM     14  C   UNL     1      -5.353  -7.041  -1.845  0.00  0.00    +0.195 C 
ATOM     15  O   UNL     1      -6.253  -6.571  -2.515  0.00  0.00    -0.287 OA
BRANCH  14  16
ATOM     16  C   UNL     1      -5.650  -7.659  -0.536  0.00  0.00    +0.022 A 
ATOM     17  C   UNL     1      -4.644  -8.320   0.172  0.00  0.00    +0.013 A 
ATOM     18  C   UNL     1      -4.927  -8.893   1.394  0.00  0.00    +0.016 A 
ATOM     19  C   UNL     1      -6.207  -8.815   1.918  0.00  0.00    +0.018 A 
ATOM     20  C   UNL     1      -7.209  -8.161   1.221  0.00  0.00    +0.016 A 
ATOM     21  C   UNL     1      -6.937  -7.578   0.001  0.00  0.00    +0.013 A 
ATOM     22 BR   UNL     1      -6.587  -9.605   3.594  0.00  0.00    -0.050 Br
ENDBRANCH  14  16
ENDBRANCH   3  14
BRANCH   1  23
ATOM     23  C   UNL     1      -0.272  -6.091  -2.296  0.00  0.00    +0.107 C 
BRANCH  23  24
ATOM     24  C   UNL     1      -0.115  -4.666  -2.830  0.00  0.00    +0.000 C 
BRANCH  24  25
ATOM     25  C   UNL     1       1.347  -4.234  -2.709  0.00  0.00    -0.077 C 
BRANCH  25  26
ATOM     26  N   UNL     1       1.481  -2.833  -3.131  0.00  0.00    +0.380 N 
ATOM     27  H   UNL     1       1.086  -2.721  -4.053  0.00  0.00    -0.082 HD
BRANCH  26  28
ATOM     28  C   UNL     1       0.769  -1.965  -2.184  0.00  0.00    -0.079 C 
BRANCH  28  29
ATOM     29  C   UNL     1       1.441  -2.048  -0.812  0.00  0.00    -0.019 C 
BRANCH  29  31
ATOM     30  C   UNL     1       1.226  -1.434   1.600  0.00  0.00    +0.004 C 
ATOM     31  C   UNL     1       0.623  -1.252   0.206  0.00  0.00    -0.005 C 
ENDBRANCH  29  31
ENDBRANCH  28  29
ENDBRANCH  26  28
BRANCH  26  32
ATOM     32  C   UNL     1       2.903  -2.464  -3.160  0.00  0.00    -0.079 C 
BRANCH  32  33
ATOM     33  C   UNL     1       3.050  -1.045  -3.713  0.00  0.00    -0.019 C 
BRANCH  33  34
ATOM     34  C   UNL     1       4.534  -0.710  -3.869  0.00  0.00    -0.005 C 
ATOM     35  C   UNL     1       4.681   0.710  -4.422  0.00  0.00    +0.004 C 
ENDBRANCH  33  34
ENDBRANCH  32  33
ENDBRANCH  26  32
ENDBRANCH  25  26
ENDBRANCH  24  25
ENDBRANCH  23  24
ENDBRANCH   1  23
TORSDOF 13
