REMARK  Name = ZINC09082347
REMARK  8 active torsions:
REMARK  status: ('A' for Active; 'I' for Inactive)
REMARK    1  A    between atoms: N_9  and  C_12
REMARK    2  A    between atoms: C_12  and  C_13
REMARK    3  A    between atoms: C_13  and  C_14
REMARK    4  A    between atoms: N_16  and  C_17
REMARK    5  A    between atoms: C_17  and  C_18
REMARK    6  A    between atoms: C_18  and  C_20
REMARK    7  A    between atoms: C_18  and  S_25
REMARK    8  A    between atoms: S_25  and  C_28
REMARK                            x       y       z     vdW  Elec       q    Type
REMARK                         _______ _______ _______ _____ _____    ______ ____
ROOT
ATOM      1  C   UNL     1       4.314  -1.060  -1.812  0.00  0.00    +0.218 C 
ENDROOT
BRANCH   1   2
ATOM      2  C   UNL     1       4.425   0.290  -2.473  0.00  0.00    +0.131 A 
ATOM      3  C   UNL     1       3.671   0.730  -3.496  0.00  0.00    +0.047 A 
ATOM      4  C   UNL     1       4.110   2.040  -3.795  0.00  0.00    +0.041 A 
ATOM      5  C   UNL     1       5.111   2.320  -2.942  0.00  0.00    +0.195 A 
ATOM      6  O   UNL     1       5.298   1.256  -2.143  0.00  0.00    -0.466 OA
ENDBRANCH   1   2
BRANCH   1   7
ATOM      7  S   UNL     1       3.931  -0.843  -0.053  0.00  0.00    +0.008 S 
ATOM      8  O   UNL     1       4.862   0.050   0.544  0.00  0.00    -0.169 OA
ATOM      9  O   UNL     1       3.648  -2.100   0.545  0.00  0.00    -0.169 OA
BRANCH   7  10
ATOM     10  C   UNL     1       2.397   0.024  -0.027  0.00  0.00    +0.093 A 
ATOM     11  C   UNL     1       1.207  -0.680  -0.016  0.00  0.00    +0.031 A 
ATOM     12  C   UNL     1       0.002  -0.004   0.002  0.00  0.00    +0.051 A 
ATOM     13  C   UNL     1      -0.017   1.383   0.010  0.00  0.00    +0.162 A 
ATOM     14  C   UNL     1       1.179   2.090   0.002  0.00  0.00    +0.164 A 
ATOM     15  C   UNL     1       2.385   1.406  -0.018  0.00  0.00    +0.076 A 
ATOM     16  O   UNL     1       1.184   3.451   0.018  0.00  0.00    -0.485 OA
ATOM     17  C   UNL     1      -0.040   4.103  -0.340  0.00  0.00    +0.270 C 
ATOM     18  C   UNL     1      -1.189   3.413   0.408  0.00  0.00    +0.270 C 
ATOM     19  O   UNL     1      -1.212   2.035   0.019  0.00  0.00    -0.485 OA
ENDBRANCH   7  10
ENDBRANCH   1   7
BRANCH   1  20
ATOM     20  C   UNL     1       5.640  -1.809  -1.957  0.00  0.00    +0.138 C 
BRANCH  20  23
ATOM     21  C   UNL     1       6.586  -3.962  -1.318  0.00  0.00    +0.215 C 
ATOM     22  O   UNL     1       7.624  -3.631  -1.851  0.00  0.00    -0.276 OA
ATOM     23  N   UNL     1       5.532  -3.122  -1.315  0.00  0.00    -0.313 N 
ATOM     24  H   UNL     1       4.702  -3.386  -0.888  0.00  0.00    +0.149 HD
BRANCH  21  25
ATOM     25  C   UNL     1       6.475  -5.312  -0.657  0.00  0.00    +0.115 C 
BRANCH  25  26
ATOM     26  C   UNL     1       7.801  -6.061  -0.802  0.00  0.00    +0.126 C 
BRANCH  26  35
ATOM     27  C   UNL     1       7.139 -11.750   1.250  0.00  0.00    +0.001 A 
ATOM     28  C   UNL     1       7.578 -11.203   2.442  0.00  0.00    +0.001 A 
ATOM     29  C   UNL     1       7.889  -9.855   2.524  0.00  0.00    +0.014 A 
ATOM     30  C   UNL     1       7.758  -9.050   1.403  0.00  0.00    +0.049 A 
ATOM     31  C   UNL     1       7.310  -9.608   0.189  0.00  0.00    +0.049 A 
ATOM     32  C   UNL     1       7.003 -10.957   0.121  0.00  0.00    +0.014 A 
ATOM     33  C   UNL     1       7.285  -8.494  -0.783  0.00  0.00    +0.254 C 
ATOM     34  O   UNL     1       6.953  -8.576  -1.948  0.00  0.00    -0.270 OA
ATOM     35  N   UNL     1       7.694  -7.373  -0.160  0.00  0.00    -0.234 N 
ATOM     36  C   UNL     1       7.995  -7.618   1.128  0.00  0.00    +0.254 C 
ATOM     37  O   UNL     1       8.393  -6.798   1.931  0.00  0.00    -0.270 OA
ENDBRANCH  26  35
ENDBRANCH  25  26
ENDBRANCH  21  25
ENDBRANCH  20  23
ENDBRANCH   1  20
TORSDOF 8
