REMARK  Name = ZINC26618051
REMARK  7 active torsions:
REMARK  status: ('A' for Active; 'I' for Inactive)
REMARK    1  A    between atoms: C_1  and  C_2
REMARK    2  A    between atoms: C_2  and  C_3
REMARK    3  A    between atoms: C_3  and  N_4
REMARK    4  A    between atoms: C_8  and  S_10
REMARK    5  A    between atoms: S_10  and  C_11
REMARK    6  A    between atoms: C_11  and  C_12
REMARK    7  A    between atoms: C_18  and  C_20
REMARK                            x       y       z     vdW  Elec       q    Type
REMARK                         _______ _______ _______ _____ _____    ______ ____
ROOT
ATOM      1  C   UNL     1      -0.362   5.860  -5.598  0.00  0.00    +0.226 C 
ATOM      2  O   UNL     1      -1.194   4.990  -5.441  0.00  0.00    -0.275 OA
ATOM      3  N   UNL     1       0.898   5.675  -5.158  0.00  0.00    -0.294 N 
ATOM      4  C   UNL     1       2.002   6.643  -5.282  0.00  0.00    +0.108 C 
ATOM      5  C   UNL     1       3.291   5.785  -5.224  0.00  0.00    +0.021 C 
ATOM      6  C   UNL     1       2.897   4.702  -4.185  0.00  0.00    +0.029 C 
ATOM      7  C   UNL     1       1.399   4.473  -4.474  0.00  0.00    +0.106 C 
ENDROOT
BRANCH   7   8
ATOM      8  C   UNL     1       0.652   4.270  -3.181  0.00  0.00    -0.023 A 
ATOM      9  C   UNL     1       0.297   5.363  -2.412  0.00  0.00    +0.009 A 
ATOM     10  C   UNL     1      -0.389   5.184  -1.223  0.00  0.00    +0.050 A 
ATOM     11  C   UNL     1      -0.718   3.906  -0.807  0.00  0.00    +0.162 A 
ATOM     12  C   UNL     1      -0.362   2.809  -1.579  0.00  0.00    +0.162 A 
ATOM     13  C   UNL     1       0.325   2.991  -2.767  0.00  0.00    +0.055 A 
ATOM     14  O   UNL     1      -0.692   1.553  -1.159  0.00  0.00    -0.488 OA
ATOM     15  C   UNL     1      -0.013   1.086   0.008  0.00  0.00    +0.232 C 
ATOM     16  C   UNL     1      -0.712   1.570   1.269  0.00  0.00    +0.082 C 
ATOM     17  C   UNL     1      -0.662   3.083   1.413  0.00  0.00    +0.232 C 
ATOM     18  O   UNL     1      -1.395   3.716   0.363  0.00  0.00    -0.488 OA
ENDBRANCH   7   8
BRANCH   1  19
ATOM     19  C   UNL     1      -0.739   7.147  -6.285  0.00  0.00    +0.172 C 
BRANCH  19  20
ATOM     20  S   UNL     1      -2.490   7.091  -6.755  0.00  0.00    -0.088 S 
BRANCH  20  25
ATOM     21  N   UNL     1      -4.258  11.919  -9.434  0.00  0.00    -0.322 N 
ATOM     22  C   UNL     1      -3.617  10.873  -8.781  0.00  0.00    +0.182 A 
ATOM     23  N   UNL     1      -2.363  10.780  -8.383  0.00  0.00    -0.125 NA
ATOM     24  N   UNL     1      -1.930   9.640  -7.747  0.00  0.00    -0.133 NA
ATOM     25  C   UNL     1      -2.771   8.646  -7.536  0.00  0.00    +0.160 A 
ATOM     26  S   UNL     1      -4.270   9.294  -8.261  0.00  0.00    -0.025 S 
ATOM     27  H   UNL     1      -5.323  11.834  -9.696  0.00  0.00    +0.148 HD
BRANCH  21  28
ATOM     28  C   UNL     1      -3.516  13.136  -9.774  0.00  0.00    +0.103 C 
BRANCH  28  30
ATOM     29  C   UNL     1      -3.672  15.392 -10.836  0.00  0.00    +0.005 C 
ATOM     30  C   UNL     1      -4.448  14.121 -10.482  0.00  0.00    +0.015 C 
ENDBRANCH  28  30
ENDBRANCH  21  28
ENDBRANCH  20  25
ENDBRANCH  19  20
ENDBRANCH   1  19
TORSDOF 6
