REMARK  Name = ZINC49242784
REMARK  8 active torsions:
REMARK  status: ('A' for Active; 'I' for Inactive)
REMARK    1  A    between atoms: C_3  and  C_6
REMARK    2  A    between atoms: C_6  and  C_8
REMARK    3  A    between atoms: C_6  and  N_25
REMARK    4  A    between atoms: C_8  and  N_9
REMARK    5  A    between atoms: N_12  and  C_13
REMARK    6  A    between atoms: C_13  and  C_14
REMARK    7  A    between atoms: C_14  and  C_16
REMARK    8  A    between atoms: C_14  and  O_24
REMARK                            x       y       z     vdW  Elec       q    Type
REMARK                         _______ _______ _______ _____ _____    ______ ____
ROOT
ATOM      1  N   UNL     1       5.570   0.024  -1.358  0.00  0.00    -0.301 N 
ATOM      2  C   UNL     1       6.234  -0.409  -2.448  0.00  0.00    +0.300 C 
ATOM      3  O   UNL     1       5.633  -0.605  -3.487  0.00  0.00    -0.253 OA
ATOM      4  N   UNL     1       7.563  -0.626  -2.386  0.00  0.00    -0.297 N 
ATOM      5  H   UNL     1       6.049   0.180  -0.529  0.00  0.00    +0.150 HD
ATOM      6  H   UNL     1       8.041  -0.470  -1.557  0.00  0.00    +0.150 HD
ENDROOT
BRANCH   1   7
ATOM      7  C   UNL     1       4.126   0.260  -1.425  0.00  0.00    +0.098 C 
BRANCH   7   8
ATOM      8  C   UNL     1       3.602   0.617  -0.032  0.00  0.00    +0.016 C 
BRANCH   8   9
ATOM      9  N   UNL     1       3.975  -0.441   0.917  0.00  0.00    +0.387 N 
ATOM     10  C   UNL     1       3.460  -1.729   0.439  0.00  0.00    -0.078 C 
ATOM     11  C   UNL     1       3.914  -2.846   1.381  0.00  0.00    -0.019 C 
ATOM     12  C   UNL     1       3.374  -2.570   2.788  0.00  0.00    -0.004 C 
ATOM     13  C   UNL     1       3.857  -1.191   3.247  0.00  0.00    -0.019 C 
ATOM     14  C   UNL     1       3.405  -0.136   2.235  0.00  0.00    -0.078 C 
ATOM     15  H   UNL     1       4.980  -0.488   0.989  0.00  0.00    -0.081 HD
ENDBRANCH   8   9
BRANCH   8  18
ATOM     16  C   UNL     1       0.038   1.554  -0.081  0.00  0.00    +0.041 A 
ATOM     17  C   UNL     1       1.408   1.895   0.005  0.00  0.00    +0.043 A 
ATOM     18  C   UNL     1       2.102   0.746  -0.077  0.00  0.00    +0.093 A 
ATOM     19  O   UNL     1       1.230  -0.268  -0.207  0.00  0.00    -0.469 OA
ATOM     20  C   UNL     1      -0.023   0.217  -0.210  0.00  0.00    +0.195 A 
ENDBRANCH   8  18
ENDBRANCH   7   8
ENDBRANCH   1   7
BRANCH   4  21
ATOM     21  C   UNL     1       8.284  -1.097  -3.571  0.00  0.00    +0.141 C 
BRANCH  21  22
ATOM     22  C   UNL     1       9.767  -1.261  -3.234  0.00  0.00    +0.162 C 
BRANCH  22  23
ATOM     23  C   UNL     1      10.509  -1.746  -4.453  0.00  0.00    -0.015 A 
ATOM     24  C   UNL     1      10.964  -0.838  -5.391  0.00  0.00    +0.009 A 
ATOM     25  C   UNL     1      11.644  -1.280  -6.510  0.00  0.00    +0.041 A 
ATOM     26  C   UNL     1      11.871  -2.633  -6.692  0.00  0.00    +0.158 A 
ATOM     27  C   UNL     1      11.415  -3.544  -5.751  0.00  0.00    +0.159 A 
ATOM     28  C   UNL     1      10.738  -3.097  -4.629  0.00  0.00    +0.047 A 
ATOM     29  F   UNL     1      11.635  -4.865  -5.927  0.00  0.00    -0.202 F 
ATOM     30  F   UNL     1      12.536  -3.066  -7.785  0.00  0.00    -0.202 F 
ENDBRANCH  22  23
BRANCH  22  31
ATOM     31  O   UNL     1      10.303  -0.003  -2.820  0.00  0.00    -0.386 OA
ATOM     32  H   UNL     1      10.237   0.692  -3.489  0.00  0.00    +0.210 HD
ENDBRANCH  22  31
ENDBRANCH  21  22
ENDBRANCH   4  21
TORSDOF 8
