REMARK  Name = ZINC09090493
REMARK  8 active torsions:
REMARK  status: ('A' for Active; 'I' for Inactive)
REMARK    1  A    between atoms: C_1  and  C_2
REMARK    2  A    between atoms: C_5  and  N_8
REMARK    3  A    between atoms: C_9  and  C_28
REMARK    4  A    between atoms: C_12  and  S_13
REMARK    5  A    between atoms: S_13  and  C_14
REMARK    6  A    between atoms: C_14  and  C_15
REMARK    7  A    between atoms: N_17  and  N_18
REMARK    8  A    between atoms: N_21  and  C_22
REMARK                            x       y       z     vdW  Elec       q    Type
REMARK                         _______ _______ _______ _____ _____    ______ ____
ROOT
ATOM      1  N   UNL     1       1.286   1.733  -0.001  0.00  0.00    -0.270 N 
ATOM      2  C   UNL     1       2.047   0.585  -0.014  0.00  0.00    +0.169 A 
ATOM      3  N   UNL     1       1.214  -0.430  -0.012  0.00  0.00    -0.128 NA
ATOM      4  N   UNL     1       0.002  -0.004   0.002  0.00  0.00    -0.122 NA
ATOM      5  C   UNL     1      -0.016   1.310   0.009  0.00  0.00    +0.197 A 
ENDROOT
BRANCH   1  10
ATOM      6  C   UNL     1       3.154   7.092   0.007  0.00  0.00    +0.044 C 
ATOM      7  C   UNL     1       2.658   5.669   0.005  0.00  0.00    -0.050 A 
ATOM      8  C   UNL     1       1.963   5.179   1.095  0.00  0.00    +0.005 A 
ATOM      9  C   UNL     1       1.507   3.875   1.097  0.00  0.00    +0.026 A 
ATOM     10  C   UNL     1       1.747   3.056   0.001  0.00  0.00    +0.051 A 
ATOM     11  C   UNL     1       2.450   3.549  -1.090  0.00  0.00    +0.026 A 
ATOM     12  C   UNL     1       2.899   4.856  -1.087  0.00  0.00    +0.005 A 
ENDBRANCH   1  10
BRANCH   2  13
ATOM     13  C   UNL     1       3.523   0.510  -0.028  0.00  0.00    +0.020 A 
ATOM     14  C   UNL     1       4.285   1.639   0.278  0.00  0.00    +0.013 A 
ATOM     15  C   UNL     1       5.662   1.561   0.268  0.00  0.00    +0.021 A 
ATOM     16  C   UNL     1       6.289   0.369  -0.056  0.00  0.00    +0.041 A 
ATOM     17  C   UNL     1       5.539  -0.753  -0.365  0.00  0.00    +0.021 A 
ATOM     18  C   UNL     1       4.161  -0.689  -0.353  0.00  0.00    +0.013 A 
ATOM     19 CL   UNL     1       8.023   0.281  -0.073  0.00  0.00    -0.084 Cl
ENDBRANCH   2  13
BRANCH   5  20
ATOM     20  S   UNL     1      -1.448   2.336   0.022  0.00  0.00    -0.076 S 
BRANCH  20  21
ATOM     21  C   UNL     1      -2.742   1.070   0.022  0.00  0.00    +0.174 C 
BRANCH  21  22
ATOM     22  C   UNL     1      -4.094   1.734   0.033  0.00  0.00    +0.239 C 
ATOM     23  O   UNL     1      -4.176   2.945   0.039  0.00  0.00    -0.273 OA
ATOM     24  N   UNL     1      -5.214   0.984   0.035  0.00  0.00    -0.233 N 
ATOM     25  H   UNL     1      -5.140  -0.114   0.029  0.00  0.00    +0.173 HD
BRANCH  24  26
ATOM     26  N   UNL     1      -6.471   1.601   0.044  0.00  0.00    -0.218 N 
ATOM     27  C   UNL     1      -7.591   0.850   0.046  0.00  0.00    +0.316 C 
ATOM     28  O   UNL     1      -8.682   1.386   0.055  0.00  0.00    -0.251 OA
ATOM     29  N   UNL     1      -7.500  -0.494   0.039  0.00  0.00    -0.295 N 
ATOM     30  H   UNL     1      -6.545   2.699   0.050  0.00  0.00    +0.174 HD
ATOM     31  H   UNL     1      -6.513  -0.979   0.031  0.00  0.00    +0.151 HD
BRANCH  29  32
ATOM     32  C   UNL     1      -8.717  -1.310   0.041  0.00  0.00    +0.074 C 
ATOM     33  C   UNL     1      -9.203  -1.497   1.480  0.00  0.00    +0.022 C 
ATOM     34  C   UNL     1     -10.473  -2.350   1.482  0.00  0.00    +0.002 C 
ATOM     35  C   UNL     1     -10.172  -3.716   0.864  0.00  0.00    +0.000 C 
ATOM     36  C   UNL     1      -9.686  -3.529  -0.575  0.00  0.00    +0.002 C 
ATOM     37  C   UNL     1      -8.415  -2.677  -0.577  0.00  0.00    +0.022 C 
ENDBRANCH  29  32
ENDBRANCH  24  26
ENDBRANCH  21  22
ENDBRANCH  20  21
ENDBRANCH   5  20
TORSDOF 7
