REMARK  Name = ZINC02261095
REMARK  11 active torsions:
REMARK  status: ('A' for Active; 'I' for Inactive)
REMARK    1  A    between atoms: C_1  and  C_2
REMARK    2  A    between atoms: C_9  and  N_25
REMARK    3  A    between atoms: C_10  and  C_13
REMARK    4  A    between atoms: N_17  and  C_21
REMARK    5  A    between atoms: C_21  and  C_22
REMARK    6  A    between atoms: C_22  and  O_23
REMARK    7  A    between atoms: O_23  and  C_24
REMARK    8  A    between atoms: N_25  and  C_26
REMARK    9  A    between atoms: C_26  and  C_27
REMARK   10  A    between atoms: C_27  and  C_29
REMARK   11  A    between atoms: C_27  and  O_35
REMARK                            x       y       z     vdW  Elec       q    Type
REMARK                         _______ _______ _______ _____ _____    ______ ____
ROOT
ATOM      1  C   UNL     1       2.592   4.782  -0.791  0.00  0.00    +0.047 C 
ATOM      2  C   UNL     1       1.443   3.833  -0.563  0.00  0.00    -0.007 A 
ATOM      3  C   UNL     1       1.664   2.489  -0.512  0.00  0.00    +0.008 A 
ATOM      4  C   UNL     1       0.585   1.619  -0.299  0.00  0.00    +0.019 A 
ATOM      5  C   UNL     1      -0.665   2.113  -0.151  0.00  0.00    +0.096 A 
ATOM      6  N   UNL     1      -0.895   3.456  -0.195  0.00  0.00    -0.267 N 
ATOM      7  C   UNL     1       0.137   4.329  -0.401  0.00  0.00    +0.145 A 
ATOM      8  N   UNL     1      -0.068   5.645  -0.453  0.00  0.00    -0.214 NA
ATOM      9  C   UNL     1      -1.278   6.167  -0.305  0.00  0.00    +0.134 A 
ATOM     10  C   UNL     1      -2.384   5.311  -0.090  0.00  0.00    +0.081 A 
ATOM     11  C   UNL     1      -2.155   3.916  -0.038  0.00  0.00    +0.267 A 
ATOM     12  O   UNL     1      -3.079   3.142   0.145  0.00  0.00    -0.267 OA
ENDROOT
BRANCH  10  13
ATOM     13  C   UNL     1      -3.687   5.838   0.069  0.00  0.00    +0.037 C 
ATOM     14  C   UNL     1      -3.937   6.759   1.044  0.00  0.00    +0.077 C 
ATOM     15  C   UNL     1      -5.124   7.500   1.308  0.00  0.00    +0.258 C 
ATOM     16  O   UNL     1      -6.117   7.361   0.616  0.00  0.00    -0.269 OA
ATOM     17  N   UNL     1      -5.119   8.344   2.325  0.00  0.00    -0.253 N 
ATOM     18  C   UNL     1      -4.017   8.499   3.094  0.00  0.00    +0.121 C 
ATOM     19  S   UNL     1      -3.787   9.524   4.446  0.00  0.00    -0.027 S 
ATOM     20  S   UNL     1      -2.865   7.358   2.343  0.00  0.00    -0.061 S 
BRANCH  17  21
ATOM     21  C   UNL     1      -6.323   9.122   2.625  0.00  0.00    +0.143 C 
BRANCH  21  22
ATOM     22  C   UNL     1      -7.204   8.343   3.603  0.00  0.00    +0.179 C 
BRANCH  22  23
ATOM     23  O   UNL     1      -6.523   8.205   4.851  0.00  0.00    -0.381 OA
ATOM     24  C   UNL     1      -7.264   7.488   5.841  0.00  0.00    +0.194 C 
ENDBRANCH  22  23
ENDBRANCH  21  22
ENDBRANCH  17  21
ENDBRANCH  10  13
BRANCH   9  25
ATOM     25  N   UNL     1      -1.456   7.531  -0.363  0.00  0.00    -0.326 N 
ATOM     26  H   UNL     1      -2.462   7.960  -0.241  0.00  0.00    +0.148 HD
BRANCH  25  27
ATOM     27  C   UNL     1      -0.307   8.412  -0.586  0.00  0.00    +0.139 C 
BRANCH  27  28
ATOM     28  C   UNL     1      -0.776   9.868  -0.606  0.00  0.00    +0.161 C 
BRANCH  28  29
ATOM     29  C   UNL     1       0.406  10.774  -0.836  0.00  0.00    -0.018 A 
ATOM     30  C   UNL     1       0.841  11.029  -2.123  0.00  0.00    +0.006 A 
ATOM     31  C   UNL     1       1.923  11.864  -2.333  0.00  0.00    +0.000 A 
ATOM     32  C   UNL     1       2.575  12.435  -1.257  0.00  0.00    +0.000 A 
ATOM     33  C   UNL     1       2.143  12.175   0.030  0.00  0.00    +0.000 A 
ATOM     34  C   UNL     1       1.058  11.345   0.241  0.00  0.00    +0.006 A 
ENDBRANCH  28  29
BRANCH  28  35
ATOM     35  O   UNL     1      -1.726  10.048  -1.659  0.00  0.00    -0.386 OA
ATOM     36  H   UNL     1      -2.177  11.036  -1.830  0.00  0.00    +0.210 HD
ENDBRANCH  28  35
ENDBRANCH  27  28
ENDBRANCH  25  27
ENDBRANCH   9  25
TORSDOF 9
