REMARK  Name = ZINC17096685
REMARK  6 active torsions:
REMARK  status: ('A' for Active; 'I' for Inactive)
REMARK    1  A    between atoms: C_6  and  C_7
REMARK    2  A    between atoms: C_7  and  N_8
REMARK    3  A    between atoms: N_13  and  C_14
REMARK    4  A    between atoms: C_14  and  N_16
REMARK    5  A    between atoms: N_16  and  N_17
REMARK    6  A    between atoms: C_18  and  C_20
REMARK                            x       y       z     vdW  Elec       q    Type
REMARK                         _______ _______ _______ _____ _____    ______ ____
ROOT
ATOM      1  C   UNL     1      -2.392   0.960   0.020  0.00  0.00    +0.152 C 
ATOM      2  S   UNL     1      -3.886   1.796   0.030  0.00  0.00    -0.017 S 
ENDROOT
BRANCH   1   8
ATOM      3  N   UNL     1      -5.700  -1.641   0.253  0.00  0.00    -0.265 N 
ATOM      4  C   UNL     1      -5.008  -2.799   0.309  0.00  0.00    +0.110 A 
ATOM      5  C   UNL     1      -3.692  -2.500   0.223  0.00  0.00    +0.065 A 
ATOM      6  C   UNL     1      -3.572  -1.105   0.119  0.00  0.00    +0.146 A 
ATOM      7  N   UNL     1      -4.780  -0.591   0.134  0.00  0.00    -0.156 NA
ATOM      8  N   UNL     1      -2.373  -0.388   0.011  0.00  0.00    -0.279 N 
ATOM      9  H   UNL     1      -1.530  -0.861  -0.070  0.00  0.00    +0.155 HD
BRANCH   3  10
ATOM     10  C   UNL     1      -7.157  -1.505   0.308  0.00  0.00    +0.178 C 
BRANCH  10  16
ATOM     11  C   UNL     1      -7.767  -1.054   2.693  0.00  0.00    +0.007 A 
ATOM     12  C   UNL     1      -8.106  -0.189   3.717  0.00  0.00    +0.020 A 
ATOM     13  C   UNL     1      -8.221   1.167   3.467  0.00  0.00    +0.041 A 
ATOM     14  C   UNL     1      -7.992   1.657   2.194  0.00  0.00    +0.020 A 
ATOM     15  C   UNL     1      -7.647   0.792   1.172  0.00  0.00    +0.007 A 
ATOM     16  C   UNL     1      -7.532  -0.563   1.423  0.00  0.00    -0.026 A 
ATOM     17 CL   UNL     1      -8.652   2.253   4.751  0.00  0.00    -0.084 Cl
ENDBRANCH  10  16
ENDBRANCH   3  10
ENDBRANCH   1   8
BRANCH   1  18
ATOM     18  N   UNL     1      -1.234   1.650   0.021  0.00  0.00    -0.245 N 
ATOM     19  H   UNL     1      -1.247   2.619   0.027  0.00  0.00    +0.172 HD
BRANCH  18  20
ATOM     20  N   UNL     1      -0.011   0.966   0.013  0.00  0.00    -0.231 N 
ATOM     21  C   UNL     1       1.147   1.655   0.008  0.00  0.00    +0.260 C 
ATOM     22  O   UNL     1       1.131   2.871   0.016  0.00  0.00    -0.269 OA
ATOM     23  H   UNL     1       0.002  -0.004   0.006  0.00  0.00    +0.173 HD
BRANCH  21  24
ATOM     24  C   UNL     1       2.435   0.934  -0.006  0.00  0.00    +0.042 A 
ATOM     25  C   UNL     1       2.456  -0.462  -0.010  0.00  0.00    +0.017 A 
ATOM     26  C   UNL     1       3.659  -1.133  -0.030  0.00  0.00    +0.050 A 
ATOM     27  C   UNL     1       4.854  -0.426  -0.034  0.00  0.00    +0.166 A 
ATOM     28  C   UNL     1       4.840   0.970  -0.025  0.00  0.00    +0.167 A 
ATOM     29  C   UNL     1       3.637   1.648  -0.011  0.00  0.00    +0.062 A 
ATOM     30  O   UNL     1       6.130   1.418  -0.032  0.00  0.00    -0.453 OA
ATOM     31  C   UNL     1       6.930   0.290   0.367  0.00  0.00    +0.466 C 
ATOM     32  O   UNL     1       6.151  -0.848  -0.048  0.00  0.00    -0.453 OA
ENDBRANCH  21  24
ENDBRANCH  18  20
ENDBRANCH   1  18
TORSDOF 6
