REMARK  Name = ZINC54736943
REMARK  5 active torsions:
REMARK  status: ('A' for Active; 'I' for Inactive)
REMARK    1  A    between atoms: C_8  and  C_10
REMARK    2  A    between atoms: C_10  and  C_12
REMARK    3  A    between atoms: C_10  and  C_14
REMARK    4  A    between atoms: C_14  and  C_16
REMARK    5  A    between atoms: C_19  and  C_22
REMARK                            x       y       z     vdW  Elec       q    Type
REMARK                         _______ _______ _______ _____ _____    ______ ____
ROOT
ATOM      1  C   UNL     1       4.522  -3.450   1.170  0.00  0.00    +0.202 C 
ATOM      2  O   UNL     1       4.880  -2.434   1.717  0.00  0.00    -0.291 OA
ENDROOT
BRANCH   1   3
ATOM      3  C   UNL     1       4.955  -4.789   1.708  0.00  0.00    +0.277 C 
ATOM      4  C   UNL     1       6.190  -5.320   0.942  0.00  0.00    +0.115 C 
ATOM      5  C   UNL     1       7.344  -4.838   1.801  0.00  0.00    +0.098 C 
ATOM      6  N   UNL     1       6.870  -4.487   2.954  0.00  0.00    -0.088 NA
ATOM      7  O   UNL     1       5.470  -4.664   3.049  0.00  0.00    -0.382 OA
BRANCH   5   8
ATOM      8  C   UNL     1       8.752  -4.781   1.396  0.00  0.00    +0.038 A 
ATOM      9  C   UNL     1       9.852  -4.361   2.123  0.00  0.00    +0.019 A 
ATOM     10  C   UNL     1      11.087  -4.400   1.521  0.00  0.00    +0.028 A 
ATOM     11  C   UNL     1      11.189  -4.846   0.239  0.00  0.00    +0.079 A 
ATOM     12  S   UNL     1       9.495  -5.242  -0.161  0.00  0.00    -0.075 S 
ATOM     13 CL   UNL     1      12.606  -4.998  -0.752  0.00  0.00    -0.076 Cl
ENDBRANCH   5   8
ENDBRANCH   1   3
BRANCH   1  14
ATOM     14  C   UNL     1       3.642  -3.377  -0.051  0.00  0.00    +0.246 C 
BRANCH  14  22
ATOM     15  C   UNL     1      -0.017   1.373   0.010  0.00  0.00    +0.002 A 
ATOM     16  C   UNL     1       1.170   2.091   0.002  0.00  0.00    +0.004 A 
ATOM     17  C   UNL     1       2.384   1.437  -0.013  0.00  0.00    +0.048 A 
ATOM     18  C   UNL     1       2.421   0.051  -0.021  0.00  0.00    +0.155 A 
ATOM     19  C   UNL     1       1.223  -0.680  -0.013  0.00  0.00    +0.110 A 
ATOM     20  C   UNL     1       0.002  -0.004   0.002  0.00  0.00    +0.031 A 
ATOM     21  N   UNL     1       1.572  -1.995  -0.024  0.00  0.00    -0.212 NA
ATOM     22  C   UNL     1       2.868  -2.084  -0.037  0.00  0.00    +0.221 A 
ATOM     23  O   UNL     1       3.419  -0.860  -0.036  0.00  0.00    -0.438 OA
ENDBRANCH  14  22
BRANCH  14  24
ATOM     24  C   UNL     1       4.478  -3.435  -1.262  0.00  0.00    +0.083 C 
ATOM     25  N   UNL     1       5.122  -3.480  -2.196  0.00  0.00    -0.195 NA
ENDBRANCH  14  24
ENDBRANCH   1  14
TORSDOF 5
