REMARK  Name = ZINC14241721
REMARK  4 active torsions:
REMARK  status: ('A' for Active; 'I' for Inactive)
REMARK    1  A    between atoms: C_1  and  C_2
REMARK    2  A    between atoms: C_2  and  C_21
REMARK    3  A    between atoms: N_5  and  C_9
REMARK    4  A    between atoms: C_9  and  N_58
REMARK                            x       y       z     vdW  Elec       q    Type
REMARK                         _______ _______ _______ _____ _____    ______ ____
ROOT
ATOM      1  C   UNL     1       0.451   1.277  -0.474  0.00  0.00    +0.047 C 
ATOM      2  C   UNL     1       0.342  -0.249  -0.466  0.00  0.00    +0.135 C 
ATOM      3  C   UNL     1      -1.083  -0.681  -0.181  0.00  0.00    +0.249 C 
ATOM      4  O   UNL     1      -1.731  -0.456   0.818  0.00  0.00    -0.272 OA
ATOM      5  N   UNL     1      -1.480  -1.368  -1.271  0.00  0.00    -0.241 N 
ATOM      6  C   UNL     1      -0.514  -1.430  -2.194  0.00  0.00    +0.308 C 
ATOM      7  O   UNL     1      -0.636  -1.997  -3.262  0.00  0.00    -0.252 OA
ATOM      8  N   UNL     1       0.611  -0.795  -1.808  0.00  0.00    -0.281 N 
ATOM      9  H   UNL     1       1.435  -0.712  -2.313  0.00  0.00    +0.152 HD
ENDROOT
BRANCH   2  10
ATOM     10  C   UNL     1       1.287  -0.842   0.546  0.00  0.00    -0.015 A 
ATOM     11  C   UNL     1       0.848  -1.059   1.851  0.00  0.00    +0.007 A 
ATOM     12  C   UNL     1       1.676  -1.593   2.790  0.00  0.00    +0.009 A 
ATOM     13  C   UNL     1       2.995  -1.932   2.442  0.00  0.00    -0.018 A 
ATOM     14  C   UNL     1       3.880  -2.485   3.383  0.00  0.00    +0.008 A 
ATOM     15  C   UNL     1       5.150  -2.800   3.010  0.00  0.00    +0.001 A 
ATOM     16  C   UNL     1       5.589  -2.582   1.706  0.00  0.00    +0.001 A 
ATOM     17  C   UNL     1       4.761  -2.048   0.767  0.00  0.00    +0.008 A 
ATOM     18  C   UNL     1       3.442  -1.710   1.115  0.00  0.00    -0.018 A 
ATOM     19  C   UNL     1       2.556  -1.162   0.172  0.00  0.00    +0.014 A 
ENDBRANCH   2  10
BRANCH   5  20
ATOM     20  C   UNL     1      -2.806  -1.973  -1.424  0.00  0.00    +0.043 C 
BRANCH  20  30
ATOM     21  C   UNL     1      -3.900   0.177  -1.630  0.00  0.00    -0.076 C 
ATOM     22  C   UNL     1      -4.645   1.095  -2.601  0.00  0.00    -0.018 C 
ATOM     23  C   UNL     1      -5.963   0.434  -3.012  0.00  0.00    +0.000 C 
ATOM     24  C   UNL     1      -5.666  -0.931  -3.639  0.00  0.00    -0.025 C 
ATOM     25  C   UNL     1      -4.894  -1.791  -2.635  0.00  0.00    -0.063 C 
ATOM     26  C   UNL     1      -5.741  -1.991  -1.377  0.00  0.00    -0.015 C 
ATOM     27  C   UNL     1      -7.051  -2.688  -1.748  0.00  0.00    -0.002 C 
ATOM     28  C   UNL     1      -7.823  -1.823  -2.746  0.00  0.00    +0.000 C 
ATOM     29  C   UNL     1      -6.979  -1.623  -4.006  0.00  0.00    +0.002 C 
ATOM     30  N   UNL     1      -3.624  -1.111  -2.302  0.00  0.00    +0.393 N 
ATOM     31  H   UNL     1      -3.105  -0.930  -3.169  0.00  0.00    -0.079 HD
ENDBRANCH  20  30
ENDBRANCH   5  20
TORSDOF 3
