REMARK  Name = ZINC09167335
REMARK  12 active torsions:
REMARK  status: ('A' for Active; 'I' for Inactive)
REMARK    1  A    between atoms: C_1  and  C_2
REMARK    2  A    between atoms: C_2  and  C_4
REMARK    3  A    between atoms: C_2  and  S_15
REMARK    4  A    between atoms: N_6  and  C_7
REMARK    5  A    between atoms: C_12  and  O_13
REMARK    6  A    between atoms: O_13  and  C_14
REMARK    7  A    between atoms: S_15  and  C_16
REMARK    8  A    between atoms: C_20  and  C_22
REMARK    9  A    between atoms: C_25  and  O_28
REMARK   10  A    between atoms: O_28  and  C_29
REMARK   11  A    between atoms: C_31  and  C_34
REMARK   12  A    between atoms: C_31  and  C_35
REMARK                            x       y       z     vdW  Elec       q    Type
REMARK                         _______ _______ _______ _____ _____    ______ ____
ROOT
ATOM      1  C   UNL     1      -0.126  -0.750   2.580  0.00  0.00    +0.107 A 
ATOM      2  C   UNL     1       0.397  -1.642   3.523  0.00  0.00    +0.031 A 
ATOM      3  C   UNL     1       0.162  -2.988   3.359  0.00  0.00    +0.054 A 
ATOM      4  N   UNL     1      -0.537  -3.401   2.309  0.00  0.00    -0.232 NA
ATOM      5  C   UNL     1      -1.014  -2.536   1.425  0.00  0.00    +0.161 A 
ATOM      6  N   UNL     1      -0.817  -1.230   1.552  0.00  0.00    -0.221 NA
ATOM      7  C   UNL     1       0.682  -4.000   4.346  0.00  0.00    +0.090 C 
ATOM      8  C   UNL     1       1.778  -3.366   5.205  0.00  0.00    +0.070 C 
ATOM      9  O   UNL     1       1.300  -2.111   5.702  0.00  0.00    -0.369 OA
ATOM     10  C   UNL     1       1.185  -1.112   4.689  0.00  0.00    +0.200 C 
ATOM     11  C   UNL     1       2.110  -4.291   6.378  0.00  0.00    +0.041 C 
ATOM     12  C   UNL     1       3.030  -3.139   4.355  0.00  0.00    +0.041 C 
ENDROOT
BRANCH   5  13
ATOM     13  C   UNL     1      -1.787  -3.040   0.265  0.00  0.00    +0.019 A 
ATOM     14  C   UNL     1      -2.001  -4.410   0.110  0.00  0.00    +0.015 A 
ATOM     15  C   UNL     1      -2.725  -4.875  -0.966  0.00  0.00    +0.046 A 
ATOM     16  C   UNL     1      -3.232  -3.983  -1.902  0.00  0.00    +0.120 A 
ATOM     17  C   UNL     1      -3.016  -2.619  -1.753  0.00  0.00    +0.046 A 
ATOM     18  C   UNL     1      -2.298  -2.147  -0.676  0.00  0.00    +0.015 A 
BRANCH  16  19
ATOM     19  O   UNL     1      -3.939  -4.445  -2.965  0.00  0.00    -0.495 OA
ATOM     20  C   UNL     1      -4.123  -5.859  -3.057  0.00  0.00    +0.277 C 
ENDBRANCH  16  19
ENDBRANCH   5  13
BRANCH   1  21
ATOM     21  S   UNL     1       0.136   0.985   2.749  0.00  0.00    -0.093 S 
BRANCH  21  23
ATOM     22  C   UNL     1      -0.026   1.074   0.023  0.00  0.00    +0.029 C 
ATOM     23  C   UNL     1      -0.738   1.579   1.280  0.00  0.00    +0.136 C 
BRANCH  23  24
ATOM     24  C   UNL     1      -0.752   3.086   1.278  0.00  0.00    +0.230 C 
ATOM     25  O   UNL     1       0.110   3.700   1.871  0.00  0.00    -0.274 OA
ATOM     26  N   UNL     1      -1.721   3.751   0.618  0.00  0.00    -0.282 N 
ATOM     27  H   UNL     1      -2.362   3.263   0.079  0.00  0.00    +0.155 HD
BRANCH  26  28
ATOM     28  C   UNL     1      -1.802   5.146   0.712  0.00  0.00    +0.076 A 
ATOM     29  C   UNL     1      -1.276   5.801   1.816  0.00  0.00    +0.027 A 
ATOM     30  C   UNL     1      -1.351   7.178   1.904  0.00  0.00    +0.002 A 
ATOM     31  C   UNL     1      -1.960   7.905   0.898  0.00  0.00    +0.004 A 
ATOM     32  C   UNL     1      -2.492   7.260  -0.203  0.00  0.00    +0.047 A 
ATOM     33  C   UNL     1      -2.415   5.880  -0.301  0.00  0.00    +0.141 A 
BRANCH  33  34
ATOM     34  O   UNL     1      -2.937   5.243  -1.383  0.00  0.00    -0.493 OA
ATOM     35  C   UNL     1      -3.551   6.060  -2.382  0.00  0.00    +0.277 C 
ENDBRANCH  33  34
ENDBRANCH  26  28
ENDBRANCH  23  24
ENDBRANCH  21  23
ENDBRANCH   1  21
TORSDOF 7
