REMARK  Name = ZINC09578346
REMARK  9 active torsions:
REMARK  status: ('A' for Active; 'I' for Inactive)
REMARK    1  A    between atoms: C_4  and  C_7
REMARK    2  A    between atoms: N_9  and  C_10
REMARK    3  A    between atoms: C_10  and  C_11
REMARK    4  A    between atoms: C_11  and  C_12
REMARK    5  A    between atoms: C_18  and  S_21
REMARK    6  A    between atoms: S_21  and  C_22
REMARK    7  A    between atoms: C_22  and  C_23
REMARK    8  A    between atoms: N_25  and  C_26
REMARK    9  A    between atoms: C_29  and  C_32
REMARK                            x       y       z     vdW  Elec       q    Type
REMARK                         _______ _______ _______ _____ _____    ______ ____
ROOT
ATOM      1  C   UNL     1       0.841   3.404  -0.028  0.00  0.00    +0.157 A 
ATOM      2  N   UNL     1      -0.467   3.486  -0.020  0.00  0.00    -0.132 NA
ATOM      3  N   UNL     1      -0.985   2.307  -0.020  0.00  0.00    -0.128 NA
ATOM      4  C   UNL     1      -0.017   1.405  -0.020  0.00  0.00    +0.178 A 
ATOM      5  N   UNL     1       1.170   2.094  -0.028  0.00  0.00    -0.196 N 
ATOM      6  N   UNL     1       2.382   1.401  -0.035  0.00  0.00    -0.157 NA
ATOM      7  C   UNL     1       2.398   0.088  -0.033  0.00  0.00    +0.118 A 
ATOM      8  C   UNL     1       1.197  -0.649  -0.025  0.00  0.00    +0.040 A 
ATOM      9  C   UNL     1       0.002  -0.003  -0.018  0.00  0.00    +0.053 A 
ENDROOT
BRANCH   1  10
ATOM     10  C   UNL     1       1.805   4.562  -0.035  0.00  0.00    +0.097 C 
BRANCH  10  11
ATOM     11  C   UNL     1       2.122   4.953  -1.480  0.00  0.00    +0.112 C 
BRANCH  11  14
ATOM     12  C   UNL     1       3.482   6.596  -2.658  0.00  0.00    +0.244 C 
ATOM     13  O   UNL     1       3.087   6.127  -3.708  0.00  0.00    -0.270 OA
ATOM     14  N   UNL     1       3.059   6.079  -1.488  0.00  0.00    -0.311 N 
ATOM     15  H   UNL     1       3.374   6.453  -0.650  0.00  0.00    +0.149 HD
BRANCH  12  19
ATOM     16  C   UNL     1       6.198   9.861  -2.679  0.00  0.00    +0.000 A 
ATOM     17  C   UNL     1       5.750   9.331  -3.876  0.00  0.00    +0.001 A 
ATOM     18  C   UNL     1       4.868   8.270  -3.876  0.00  0.00    +0.013 A 
ATOM     19  C   UNL     1       4.428   7.732  -2.665  0.00  0.00    +0.037 A 
ATOM     20  C   UNL     1       4.879   8.276  -1.462  0.00  0.00    +0.013 A 
ATOM     21  C   UNL     1       5.765   9.334  -1.476  0.00  0.00    +0.001 A 
ENDBRANCH  12  19
ENDBRANCH  11  14
ENDBRANCH  10  11
ENDBRANCH   1  10
BRANCH   7  22
ATOM     22  S   UNL     1       3.941  -0.763  -0.042  0.00  0.00    -0.095 S 
BRANCH  22  23
ATOM     23  C   UNL     1       5.176   0.567  -0.051  0.00  0.00    +0.172 C 
BRANCH  23  24
ATOM     24  C   UNL     1       6.559  -0.032  -0.059  0.00  0.00    +0.227 C 
ATOM     25  O   UNL     1       6.698  -1.237  -0.058  0.00  0.00    -0.275 OA
ATOM     26  N   UNL     1       7.641   0.772  -0.067  0.00  0.00    -0.285 N 
ATOM     27  H   UNL     1       7.530   1.733  -0.135  0.00  0.00    +0.155 HD
BRANCH  26  28
ATOM     28  C   UNL     1       8.923   0.219   0.024  0.00  0.00    +0.033 A 
ATOM     29  C   UNL     1       9.925   0.894   0.709  0.00  0.00    +0.024 A 
ATOM     30  C   UNL     1      11.188   0.343   0.801  0.00  0.00    +0.014 A 
ATOM     31  C   UNL     1      11.459  -0.873   0.202  0.00  0.00    +0.055 A 
ATOM     32  C   UNL     1      10.465  -1.545  -0.486  0.00  0.00    +0.014 A 
ATOM     33  C   UNL     1       9.198  -1.002  -0.577  0.00  0.00    +0.024 A 
BRANCH  31  34
ATOM     34  C   UNL     1      12.840  -1.468   0.299  0.00  0.00    +0.417 C 
ATOM     35  F   UNL     1      13.614  -1.028  -0.780  0.00  0.00    -0.166 F 
ATOM     36  F   UNL     1      13.439  -1.064   1.497  0.00  0.00    -0.166 F 
ATOM     37  F   UNL     1      12.750  -2.864   0.270  0.00  0.00    -0.166 F 
ENDBRANCH  31  34
ENDBRANCH  26  28
ENDBRANCH  23  24
ENDBRANCH  22  23
ENDBRANCH   7  22
TORSDOF 9
