REMARK  Name = ZINC39532125
REMARK  11 active torsions:
REMARK  status: ('A' for Active; 'I' for Inactive)
REMARK    1  A    between atoms: C_1  and  C_2
REMARK    2  A    between atoms: C_2  and  C_3
REMARK    3  A    between atoms: C_6  and  C_9
REMARK    4  A    between atoms: C_9  and  C_11
REMARK    5  A    between atoms: C_9  and  N_16
REMARK    6  A    between atoms: C_11  and  N_12
REMARK    7  A    between atoms: N_12  and  O_13
REMARK    8  A    between atoms: O_13  and  C_14
REMARK    9  A    between atoms: C_14  and  C_15
REMARK   10  A    between atoms: C_20  and  C_23
REMARK   11  A    between atoms: C_28  and  O_29
REMARK                            x       y       z     vdW  Elec       q    Type
REMARK                         _______ _______ _______ _____ _____    ______ ____
ROOT
ATOM      1  N   UNL     1       3.812  -2.769  -4.400  0.00  0.00    -0.297 NA
ATOM      2  C   UNL     1       5.008  -2.008  -4.010  0.00  0.00    +0.066 C 
ATOM      3  C   UNL     1       6.114  -2.980  -3.594  0.00  0.00    -0.066 C 
ATOM      4  N   UNL     1       6.427  -3.875  -4.716  0.00  0.00    +0.385 N 
ATOM      5  C   UNL     1       5.231  -4.645  -5.079  0.00  0.00    -0.023 C 
ATOM      6  C   UNL     1       4.117  -3.687  -5.506  0.00  0.00    +0.074 C 
ATOM      7  H   UNL     1       6.727  -3.327  -5.509  0.00  0.00    -0.085 HD
ATOM      8  H   UNL     1       7.165  -4.507  -4.446  0.00  0.00    -0.085 HD
ENDROOT
BRANCH   5   9
ATOM      9  C   UNL     1       5.558  -5.576  -6.218  0.00  0.00    -0.019 A 
ATOM     10  C   UNL     1       6.663  -5.335  -7.011  0.00  0.00    +0.005 A 
ATOM     11  C   UNL     1       6.964  -6.187  -8.057  0.00  0.00    +0.000 A 
ATOM     12  C   UNL     1       6.160  -7.283  -8.312  0.00  0.00    +0.004 A 
ATOM     13  C   UNL     1       5.055  -7.529  -7.521  0.00  0.00    +0.045 A 
ATOM     14  C   UNL     1       4.754  -6.678  -6.468  0.00  0.00    +0.118 A 
BRANCH  14  15
ATOM     15  O   UNL     1       3.670  -6.920  -5.685  0.00  0.00    -0.507 OA
ATOM     16  H   UNL     1       2.856  -6.503  -6.000  0.00  0.00    +0.292 HD
ENDBRANCH  14  15
ENDBRANCH   5   9
BRANCH   1  17
ATOM     17  C   UNL     1       2.707  -1.868  -4.752  0.00  0.00    +0.103 C 
BRANCH  17  21
ATOM     18  C   UNL     1       0.922  -0.341  -1.184  0.00  0.00    -0.048 A 
ATOM     19  C   UNL     1       0.303  -0.147  -2.404  0.00  0.00    +0.004 A 
ATOM     20  C   UNL     1       0.880  -0.641  -3.559  0.00  0.00    +0.005 A 
ATOM     21  C   UNL     1       2.078  -1.329  -3.494  0.00  0.00    -0.029 A 
ATOM     22  C   UNL     1       2.698  -1.522  -2.273  0.00  0.00    +0.005 A 
ATOM     23  C   UNL     1       2.123  -1.024  -1.119  0.00  0.00    +0.004 A 
BRANCH  18  25
ATOM     24  C   UNL     1       0.795   1.620   0.328  0.00  0.00    +0.009 C 
ATOM     25  C   UNL     1       0.293   0.197   0.075  0.00  0.00    +0.032 C 
ENDBRANCH  18  25
ENDBRANCH  17  21
BRANCH  17  26
ATOM     26  C   UNL     1       3.243  -0.707  -5.593  0.00  0.00    +0.134 C 
BRANCH  26  27
ATOM     27  N   UNL     1       3.876  -1.234  -6.809  0.00  0.00    -0.199 NA
ATOM     28  H   UNL     1       3.232  -1.810  -7.331  0.00  0.00    +0.154 HD
BRANCH  27  29
ATOM     29  O   UNL     1       4.401  -0.150  -7.639  0.00  0.00    -0.300 OA
BRANCH  29  30
ATOM     30  C   UNL     1       5.032  -0.593  -8.842  0.00  0.00    +0.182 C 
ATOM     31  C   UNL     1       5.541   0.619  -9.626  0.00  0.00    +0.036 C 
ENDBRANCH  29  30
ENDBRANCH  27  29
ENDBRANCH  26  27
ENDBRANCH  17  26
ENDBRANCH   1  17
TORSDOF 9
