REMARK  Name = ZINC40042400
REMARK  10 active torsions:
REMARK  status: ('A' for Active; 'I' for Inactive)
REMARK    1  A    between atoms: C_1  and  C_2
REMARK    2  A    between atoms: C_2  and  C_3
REMARK    3  A    between atoms: N_16  and  C_29
REMARK    4  A    between atoms: C_17  and  C_19
REMARK    5  A    between atoms: C_21  and  O_27
REMARK    6  A    between atoms: C_22  and  O_26
REMARK    7  A    between atoms: O_27  and  C_28
REMARK    8  A    between atoms: C_29  and  C_30
REMARK    9  A    between atoms: C_30  and  O_31
REMARK   10  A    between atoms: O_31  and  C_32
REMARK                            x       y       z     vdW  Elec       q    Type
REMARK                         _______ _______ _______ _____ _____    ______ ____
ROOT
ATOM      1  C   UNL     1       0.302  -0.750  -1.681  0.00  0.00    -0.047 A 
ATOM      2  C   UNL     1      -0.325  -0.930  -2.906  0.00  0.00    +0.007 A 
ATOM      3  C   UNL     1       0.393  -1.319  -4.015  0.00  0.00    +0.047 A 
ATOM      4  C   UNL     1       1.767  -1.534  -3.918  0.00  0.00    +0.139 A 
ATOM      5  C   UNL     1       2.392  -1.343  -2.675  0.00  0.00    +0.065 A 
ATOM      6  C   UNL     1       1.650  -0.948  -1.562  0.00  0.00    +0.019 A 
ATOM      7  C   UNL     1       3.857  -1.554  -2.565  0.00  0.00    +0.199 A 
ATOM      8  O   UNL     1       4.451  -1.576  -1.501  0.00  0.00    -0.287 OA
ATOM      9  C   UNL     1       4.522  -1.737  -3.860  0.00  0.00    +0.072 A 
ATOM     10  C   UNL     1       3.799  -1.905  -5.006  0.00  0.00    +0.199 A 
ATOM     11  O   UNL     1       2.451  -1.922  -5.018  0.00  0.00    -0.450 OA
ATOM     12  C   UNL     1       4.740  -2.052  -6.130  0.00  0.00    +0.283 C 
ATOM     13  O   UNL     1       4.418  -2.214  -7.290  0.00  0.00    -0.267 OA
ATOM     14  N   UNL     1       6.010  -1.981  -5.683  0.00  0.00    -0.281 N 
ATOM     15  C   UNL     1       5.970  -1.780  -4.225  0.00  0.00    +0.145 C 
ENDROOT
BRANCH  15  16
ATOM     16  C   UNL     1       6.637  -0.478  -3.861  0.00  0.00    -0.018 A 
ATOM     17  C   UNL     1       7.486  -0.419  -2.771  0.00  0.00    +0.055 A 
ATOM     18  C   UNL     1       8.099   0.777  -2.435  0.00  0.00    +0.163 A 
ATOM     19  C   UNL     1       7.860   1.917  -3.196  0.00  0.00    +0.173 A 
ATOM     20  C   UNL     1       7.009   1.851  -4.288  0.00  0.00    +0.063 A 
ATOM     21  C   UNL     1       6.403   0.652  -4.621  0.00  0.00    +0.025 A 
ATOM     22 BR   UNL     1       6.681   3.397  -5.326  0.00  0.00    -0.046 Br
BRANCH  19  23
ATOM     23  O   UNL     1       8.460   3.093  -2.870  0.00  0.00    -0.503 OA
ATOM     24  H   UNL     1       9.318   3.228  -3.296  0.00  0.00    +0.292 HD
ENDBRANCH  19  23
BRANCH  18  25
ATOM     25  O   UNL     1       8.934   0.836  -1.363  0.00  0.00    -0.491 OA
ATOM     26  C   UNL     1       9.132  -0.373  -0.627  0.00  0.00    +0.277 C 
ENDBRANCH  18  25
ENDBRANCH  15  16
BRANCH   1  28
ATOM     27  C   UNL     1      -0.544   1.199  -0.403  0.00  0.00    +0.009 C 
ATOM     28  C   UNL     1      -0.504  -0.328  -0.479  0.00  0.00    +0.032 C 
ENDBRANCH   1  28
BRANCH  14  29
ATOM     29  C   UNL     1       7.219  -2.086  -6.504  0.00  0.00    +0.137 C 
BRANCH  29  30
ATOM     30  C   UNL     1       7.725  -3.530  -6.485  0.00  0.00    +0.178 C 
BRANCH  30  31
ATOM     31  O   UNL     1       6.769  -4.378  -7.124  0.00  0.00    -0.381 OA
ATOM     32  C   UNL     1       7.195  -5.735  -7.260  0.00  0.00    +0.194 C 
ENDBRANCH  30  31
ENDBRANCH  29  30
ENDBRANCH  14  29
TORSDOF 7
