REMARK  Name = ZINC48706890
REMARK  6 active torsions:
REMARK  status: ('A' for Active; 'I' for Inactive)
REMARK    1  A    between atoms: C_1  and  C_2
REMARK    2  A    between atoms: C_2  and  C_3
REMARK    3  A    between atoms: C_2  and  C_4
REMARK    4  A    between atoms: C_2  and  C_5
REMARK    5  A    between atoms: C_7  and  C_10
REMARK    6  A    between atoms: C_10  and  N_11
REMARK                            x       y       z     vdW  Elec       q    Type
REMARK                         _______ _______ _______ _____ _____    ______ ____
ROOT
ATOM      1  C   UNL     1       0.707  -0.490  -1.238  0.00  0.00    +0.084 A 
ATOM      2  N   UNL     1       1.941  -0.263  -1.614  0.00  0.00    -0.247 NA
ATOM      3  C   UNL     1       2.419  -0.762  -2.736  0.00  0.00    +0.064 A 
ATOM      4  C   UNL     1       1.574  -1.520  -3.482  0.00  0.00    +0.071 A 
ATOM      5  S   UNL     1       0.103  -1.462  -2.472  0.00  0.00    -0.080 S 
ENDROOT
BRANCH   1   7
ATOM      6  C   UNL     1      -0.019   1.526   0.010  0.00  0.00    +0.017 C 
ATOM      7  C   UNL     1       0.002  -0.004   0.002  0.00  0.00    +0.011 C 
ATOM      8  C   UNL     1       0.742  -0.511   1.242  0.00  0.00    +0.017 C 
ATOM      9  C   UNL     1      -1.433  -0.534   0.013  0.00  0.00    +0.017 C 
ENDBRANCH   1   7
BRANCH   3  10
ATOM     10  C   UNL     1       3.838  -0.503  -3.173  0.00  0.00    +0.164 C 
BRANCH  10  11
ATOM     11  N   UNL     1       3.903   0.772  -3.892  0.00  0.00    -0.175 NA
ATOM     12  C   UNL     1       3.626   1.001  -5.321  0.00  0.00    +0.111 C 
ATOM     13  C   UNL     1       3.095   2.427  -5.555  0.00  0.00    +0.041 C 
ATOM     14  C   UNL     1       4.033   3.350  -4.721  0.00  0.00    +0.186 C 
ATOM     15  S   UNL     1       4.299   2.272  -3.255  0.00  0.00    +0.032 S 
ATOM     16  O   UNL     1       3.323   2.529  -2.255  0.00  0.00    -0.158 OA
ATOM     17  O   UNL     1       5.681   2.194  -2.933  0.00  0.00    -0.158 OA
ENDBRANCH  10  11
ENDBRANCH   3  10
TORSDOF 3
