REMARK  Name = ZINC02286614
REMARK  7 active torsions:
REMARK  status: ('A' for Active; 'I' for Inactive)
REMARK    1  A    between atoms: C_1  and  C_2
REMARK    2  A    between atoms: C_2  and  O_3
REMARK    3  A    between atoms: O_3  and  C_4
REMARK    4  A    between atoms: C_6  and  C_18
REMARK    5  A    between atoms: C_9  and  O_10
REMARK    6  A    between atoms: O_10  and  C_11
REMARK    7  A    between atoms: C_11  and  C_13
REMARK                            x       y       z     vdW  Elec       q    Type
REMARK                         _______ _______ _______ _____ _____    ______ ____
ROOT
ATOM      1  C   UNL     1       0.748  -1.797  -1.350  0.00  0.00    +0.163 A 
ATOM      2  C   UNL     1       0.211  -2.648  -0.398  0.00  0.00    +0.056 A 
ATOM      3  C   UNL     1       0.340  -4.017  -0.543  0.00  0.00    -0.006 A 
ATOM      4  C   UNL     1       1.004  -4.540  -1.637  0.00  0.00    +0.011 A 
ATOM      5  C   UNL     1       1.543  -3.696  -2.591  0.00  0.00    +0.050 A 
ATOM      6  C   UNL     1       1.412  -2.323  -2.455  0.00  0.00    +0.173 A 
ENDROOT
BRANCH   3   7
ATOM      7  C   UNL     1      -0.244  -4.941   0.494  0.00  0.00    +0.190 C 
ATOM      8  N   UNL     1      -0.611  -6.216  -0.149  0.00  0.00    -0.316 N 
ATOM      9  C   UNL     1      -1.819  -6.251  -0.802  0.00  0.00    +0.080 A 
ATOM     10  C   UNL     1      -2.875  -5.386  -0.477  0.00  0.00    +0.068 A 
ATOM     11  C   UNL     1      -4.082  -5.543  -1.271  0.00  0.00    -0.023 A 
ATOM     12  C   UNL     1      -4.015  -6.513  -2.209  0.00  0.00    -0.005 A 
ATOM     13  S   UNL     1      -2.389  -7.197  -2.040  0.00  0.00    -0.078 S 
ATOM     14  C   UNL     1      -5.090  -6.910  -3.172  0.00  0.00    +0.043 C 
ATOM     15  C   UNL     1      -6.417  -6.305  -2.693  0.00  0.00    +0.005 C 
ATOM     16  C   UNL     1      -6.195  -4.828  -2.357  0.00  0.00    +0.005 C 
ATOM     17  C   UNL     1      -5.340  -4.704  -1.094  0.00  0.00    +0.037 C 
ATOM     18  C   UNL     1      -2.660  -4.422   0.626  0.00  0.00    +0.248 C 
ATOM     19  O   UNL     1      -3.579  -3.766   1.082  0.00  0.00    -0.270 OA
ATOM     20  N   UNL     1      -1.405  -4.301   1.104  0.00  0.00    -0.289 N 
ATOM     21  H   UNL     1      -0.029  -6.991  -0.112  0.00  0.00    +0.149 HD
ATOM     22  H   UNL     1      -1.267  -3.759   1.896  0.00  0.00    +0.151 HD
ENDBRANCH   3   7
BRANCH   1  23
ATOM     23  O   UNL     1       0.622  -0.450  -1.209  0.00  0.00    -0.489 OA
BRANCH  23  25
ATOM     24  C   UNL     1      -0.112   1.548  -0.065  0.00  0.00    +0.048 C 
ATOM     25  C   UNL     1      -0.071   0.019  -0.051  0.00  0.00    +0.226 C 
ENDBRANCH  23  25
ENDBRANCH   1  23
BRANCH   6  26
ATOM     26  O   UNL     1       1.936  -1.492  -3.395  0.00  0.00    -0.418 OA
BRANCH  26  27
ATOM     27  C   UNL     1       3.133  -0.924  -3.142  0.00  0.00    +0.351 C 
ATOM     28  O   UNL     1       3.755  -1.236  -2.145  0.00  0.00    -0.244 OA
BRANCH  27  29
ATOM     29  C   UNL     1       3.682   0.069  -4.068  0.00  0.00    +0.097 A 
ATOM     30  C   UNL     1       4.883   0.760  -3.997  0.00  0.00    +0.022 A 
ATOM     31  C   UNL     1       5.128   1.636  -5.026  0.00  0.00    +0.008 A 
ATOM     32  C   UNL     1       4.209   1.766  -6.015  0.00  0.00    +0.046 A 
ATOM     33  S   UNL     1       2.986   0.698  -5.583  0.00  0.00    -0.090 S 
ENDBRANCH  27  29
ENDBRANCH  26  27
ENDBRANCH   6  26
TORSDOF 6
