REMARK  Name = ZINC18222973
REMARK  5 active torsions:
REMARK  status: ('A' for Active; 'I' for Inactive)
REMARK    1  A    between atoms: C_1  and  C_2
REMARK    2  A    between atoms: C_5  and  C_8
REMARK    3  A    between atoms: C_8  and  C_9
REMARK    4  A    between atoms: C_10  and  C_28
REMARK    5  A    between atoms: N_19  and  C_22
REMARK                            x       y       z     vdW  Elec       q    Type
REMARK                         _______ _______ _______ _____ _____    ______ ____
ROOT
ATOM      1  C   UNL     1       1.422  -4.983   0.069  0.00  0.00    +0.023 A 
ATOM      2  C   UNL     1       1.973  -5.143   1.286  0.00  0.00    +0.022 A 
ATOM      3  N   UNL     1       3.298  -5.393   1.457  0.00  0.00    -0.343 N 
ATOM      4  H   UNL     1       3.644  -5.500   2.357  0.00  0.00    +0.167 HD
ATOM      5  C   UNL     1       4.151  -5.498   0.407  0.00  0.00    +0.140 A 
ATOM      6  C   UNL     1       3.664  -5.347  -0.894  0.00  0.00    +0.130 A 
ATOM      7  C   UNL     1       2.240  -5.083  -1.089  0.00  0.00    +0.200 A 
ATOM      8  O   UNL     1       1.770  -4.948  -2.208  0.00  0.00    -0.287 OA
ATOM      9  C   UNL     1       4.802  -5.512  -1.798  0.00  0.00    +0.285 A 
ATOM     10  O   UNL     1       4.779  -5.449  -3.014  0.00  0.00    -0.265 OA
ATOM     11  N   UNL     1       5.883  -5.747  -1.025  0.00  0.00    -0.217 N 
ATOM     12  N   UNL     1       5.492  -5.740   0.318  0.00  0.00    -0.274 N 
ATOM     13  H   UNL     1       6.084  -5.885   1.073  0.00  0.00    +0.189 HD
ATOM     14  C   UNL     1       1.089  -5.040   2.503  0.00  0.00    +0.064 C 
ENDROOT
BRANCH  11  15
ATOM     15  C   UNL     1       7.184  -5.963  -1.491  0.00  0.00    +0.067 A 
ATOM     16  C   UNL     1       7.447  -5.940  -2.854  0.00  0.00    +0.028 A 
ATOM     17  C   UNL     1       8.733  -6.154  -3.311  0.00  0.00    +0.002 A 
ATOM     18  C   UNL     1       9.757  -6.391  -2.413  0.00  0.00    +0.000 A 
ATOM     19  C   UNL     1       9.498  -6.415  -1.055  0.00  0.00    +0.002 A 
ATOM     20  C   UNL     1       8.216  -6.195  -0.591  0.00  0.00    +0.028 A 
ENDBRANCH  11  15
BRANCH   1  21
ATOM     21  C   UNL     1      -0.053  -4.707  -0.067  0.00  0.00    +0.075 C 
BRANCH  21  26
ATOM     22  C   UNL     1      -2.881  -9.679  -0.885  0.00  0.00    +0.044 C 
ATOM     23  C   UNL     1      -2.143  -8.382  -0.672  0.00  0.00    -0.050 A 
ATOM     24  C   UNL     1      -2.031  -7.852   0.600  0.00  0.00    +0.003 A 
ATOM     25  C   UNL     1      -1.354  -6.663   0.796  0.00  0.00    +0.004 A 
ATOM     26  C   UNL     1      -0.790  -6.004  -0.280  0.00  0.00    -0.043 A 
ATOM     27  C   UNL     1      -0.901  -6.534  -1.552  0.00  0.00    +0.004 A 
ATOM     28  C   UNL     1      -1.574  -7.726  -1.747  0.00  0.00    +0.003 A 
ENDBRANCH  21  26
ENDBRANCH   1  21
TORSDOF 3
