REMARK  Name = ZINC39517549
REMARK  14 active torsions:
REMARK  status: ('A' for Active; 'I' for Inactive)
REMARK    1  A    between atoms: C_1  and  C_2
REMARK    2  A    between atoms: C_2  and  C_3
REMARK    3  A    between atoms: C_3  and  C_4
REMARK    4  A    between atoms: C_4  and  N_5
REMARK    5  A    between atoms: C_11  and  C_16
REMARK    6  A    between atoms: C_16  and  O_18
REMARK    7  A    between atoms: O_18  and  C_19
REMARK    8  A    between atoms: C_19  and  C_21
REMARK    9  A    between atoms: C_19  and  C_22
REMARK   10  A    between atoms: N_24  and  C_25
REMARK   11  A    between atoms: C_25  and  C_26
REMARK   12  A    between atoms: N_28  and  C_29
REMARK   13  A    between atoms: C_30  and  C_36
REMARK   14  A    between atoms: C_34  and  C_35
REMARK                            x       y       z     vdW  Elec       q    Type
REMARK                         _______ _______ _______ _____ _____    ______ ____
ROOT
ATOM      1  C   UNL     1       5.566  -6.992  -8.108  0.00  0.00    +0.259 C 
ATOM      2  C   UNL     1       6.707  -6.125  -7.574  0.00  0.00    +0.062 C 
ENDROOT
BRANCH   1   3
ATOM      3  C   UNL     1       5.672  -7.096  -9.608  0.00  0.00    +0.254 C 
ATOM      4  O   UNL     1       4.807  -6.619 -10.312  0.00  0.00    -0.272 OA
ATOM      5  N   UNL     1       6.729  -7.719 -10.167  0.00  0.00    -0.304 N 
ATOM      6  H   UNL     1       7.420  -8.100  -9.604  0.00  0.00    +0.149 HD
BRANCH   5   7
ATOM      7  C   UNL     1       6.832  -7.819 -11.625  0.00  0.00    +0.200 C 
BRANCH   7   8
ATOM      8  C   UNL     1       8.096  -8.555 -11.989  0.00  0.00    +0.234 C 
ATOM      9  O   UNL     1       8.837  -8.956 -11.117  0.00  0.00    -0.274 OA
ATOM     10  N   UNL     1       8.402  -8.768 -13.284  0.00  0.00    -0.284 N 
ATOM     11  H   UNL     1       7.776  -8.513 -13.979  0.00  0.00    +0.155 HD
BRANCH  10  12
ATOM     12  C   UNL     1       9.625  -9.357 -13.626  0.00  0.00    +0.039 A 
ATOM     13  C   UNL     1       9.651 -10.488 -14.431  0.00  0.00    -0.029 A 
ATOM     14  C   UNL     1      10.859 -11.067 -14.767  0.00  0.00    +0.005 A 
ATOM     15  C   UNL     1      12.042 -10.521 -14.302  0.00  0.00    +0.001 A 
ATOM     16  C   UNL     1      12.019  -9.395 -13.500  0.00  0.00    +0.005 A 
ATOM     17  C   UNL     1      10.814  -8.808 -13.166  0.00  0.00    -0.029 A 
ATOM     18  C   UNL     1      10.791  -7.576 -12.297  0.00  0.00    +0.045 C 
ATOM     19  C   UNL     1       8.363 -11.084 -14.937  0.00  0.00    +0.045 C 
ENDBRANCH  10  12
ENDBRANCH   7   8
ENDBRANCH   5   7
ENDBRANCH   1   3
BRANCH   1  20
ATOM     20  O   UNL     1       4.313  -6.399  -7.759  0.00  0.00    -0.449 OA
BRANCH  20  21
ATOM     21  C   UNL     1       3.769  -6.766  -6.583  0.00  0.00    +0.340 C 
ATOM     22  O   UNL     1       4.342  -7.567  -5.873  0.00  0.00    -0.245 OA
BRANCH  21  29
ATOM     23  N   UNL     1      -1.250  -5.415  -3.500  0.00  0.00    -0.234 N 
ATOM     24  C   UNL     1      -1.205  -4.736  -4.660  0.00  0.00    +0.254 C 
ATOM     25  O   UNL     1      -2.044  -3.954  -5.057  0.00  0.00    -0.270 OA
ATOM     26  C   UNL     1       0.040  -5.103  -5.373  0.00  0.00    +0.049 A 
ATOM     27  C   UNL     1       0.605  -4.730  -6.582  0.00  0.00    +0.014 A 
ATOM     28  C   UNL     1       1.818  -5.271  -6.974  0.00  0.00    +0.016 A 
ATOM     29  C   UNL     1       2.474  -6.192  -6.157  0.00  0.00    +0.060 A 
ATOM     30  C   UNL     1       1.910  -6.574  -4.936  0.00  0.00    +0.028 A 
ATOM     31  C   UNL     1       0.699  -6.033  -4.542  0.00  0.00    +0.050 A 
ATOM     32  C   UNL     1      -0.165  -6.196  -3.353  0.00  0.00    +0.254 C 
ATOM     33  O   UNL     1       0.067  -6.917  -2.403  0.00  0.00    -0.270 OA
BRANCH  23  34
ATOM     34  C   UNL     1      -2.335  -5.312  -2.521  0.00  0.00    +0.117 C 
BRANCH  34  35
ATOM     35  C   UNL     1      -2.021  -4.192  -1.527  0.00  0.00    +0.019 C 
BRANCH  35  37
ATOM     36  C   UNL     1      -2.840  -2.965   0.489  0.00  0.00    +0.004 C 
ATOM     37  C   UNL     1      -3.154  -4.085  -0.505  0.00  0.00    -0.002 C 
ENDBRANCH  35  37
ENDBRANCH  34  35
ENDBRANCH  23  34
ENDBRANCH  21  29
ENDBRANCH  20  21
ENDBRANCH   1  20
TORSDOF 10
