REMARK  Name = ZINC05297631
REMARK  7 active torsions:
REMARK  status: ('A' for Active; 'I' for Inactive)
REMARK    1  A    between atoms: C_1  and  C_2
REMARK    2  A    between atoms: C_2  and  C_3
REMARK    3  A    between atoms: C_2  and  C_4
REMARK    4  A    between atoms: C_2  and  C_5
REMARK    5  A    between atoms: C_8  and  C_11
REMARK    6  A    between atoms: N_12  and  N_13
REMARK    7  A    between atoms: C_14  and  C_16
REMARK                            x       y       z     vdW  Elec       q    Type
REMARK                         _______ _______ _______ _____ _____    ______ ____
ROOT
ATOM      1  N   UNL     1       2.810  -6.514   0.354  0.00  0.00    -0.202 N 
ATOM      2  C   UNL     1       3.205  -5.230   0.457  0.00  0.00    +0.284 C 
ATOM      3  O   UNL     1       4.362  -4.970   0.729  0.00  0.00    -0.267 OA
ATOM      4  H   UNL     1       1.887  -6.722   0.138  0.00  0.00    +0.178 HD
ENDROOT
BRANCH   2   5
ATOM      5  C   UNL     1       2.235  -4.139   0.240  0.00  0.00    +0.152 A 
ATOM      6  C   UNL     1       2.495  -2.769   0.312  0.00  0.00    +0.010 A 
ATOM      7  C   UNL     1       1.302  -2.147   0.023  0.00  0.00    +0.070 A 
ATOM      8  N   UNL     1       0.391  -3.118  -0.185  0.00  0.00    -0.276 N 
ATOM      9  H   UNL     1      -0.573  -2.965  -0.402  0.00  0.00    +0.189 HD
ATOM     10  N   UNL     1       0.952  -4.274  -0.061  0.00  0.00    -0.168 NA
ATOM     11  C   UNL     1       1.217  -0.674  -0.013  0.00  0.00    +0.003 A 
ATOM     12  C   UNL     1       0.002  -0.004   0.002  0.00  0.00    +0.010 A 
ATOM     13  C   UNL     1      -0.017   1.377   0.010  0.00  0.00    +0.001 A 
ATOM     14  C   UNL     1       1.174   2.082   0.002  0.00  0.00    +0.000 A 
ATOM     15  C   UNL     1       2.386   1.417  -0.028  0.00  0.00    +0.004 A 
ATOM     16  C   UNL     1       2.423   0.036  -0.051  0.00  0.00    -0.038 A 
ATOM     17  C   UNL     1       3.743  -0.677  -0.135  0.00  0.00    +0.040 C 
ATOM     18  C   UNL     1       3.747  -2.003   0.626  0.00  0.00    +0.044 C 
ENDBRANCH   2   5
BRANCH   1  20
ATOM     19  C   UNL     1       3.350  -8.786   0.462  0.00  0.00    +0.138 C 
ATOM     20  N   UNL     1       3.731  -7.550   0.561  0.00  0.00    -0.187 NA
BRANCH  19  24
ATOM     21  C   UNL     1       6.140 -11.923   1.087  0.00  0.00    -0.042 A 
ATOM     22  C   UNL     1       4.825 -12.223   0.778  0.00  0.00    +0.005 A 
ATOM     23  C   UNL     1       3.913 -11.209   0.573  0.00  0.00    +0.010 A 
ATOM     24  C   UNL     1       4.320  -9.876   0.679  0.00  0.00    -0.005 A 
ATOM     25  C   UNL     1       5.650  -9.581   0.986  0.00  0.00    +0.010 A 
ATOM     26  C   UNL     1       6.550 -10.605   1.193  0.00  0.00    +0.005 A 
BRANCH  21  28
ATOM     27  C   UNL     1       7.232 -13.889   0.043  0.00  0.00    +0.015 C 
ATOM     28  C   UNL     1       7.131 -13.037   1.309  0.00  0.00    -0.013 C 
ATOM     29  C   UNL     1       8.503 -12.442   1.633  0.00  0.00    +0.015 C 
ATOM     30  C   UNL     1       6.665 -13.909   2.476  0.00  0.00    +0.015 C 
ENDBRANCH  21  28
ENDBRANCH  19  24
ENDBRANCH   1  20
TORSDOF 4
