REMARK  Name = ZINC20237366
REMARK  3 active torsions:
REMARK  status: ('A' for Active; 'I' for Inactive)
REMARK    1  A    between atoms: C_4  and  C_7
REMARK    2  A    between atoms: C_10  and  N_13
REMARK    3  A    between atoms: C_14  and  C_16
REMARK                            x       y       z     vdW  Elec       q    Type
REMARK                         _______ _______ _______ _____ _____    ______ ____
ROOT
ATOM      1  C   UNL     1       1.202   2.102  -0.162  0.00  0.00    +0.099 A 
ATOM      2  C   UNL     1       0.016   1.412   0.023  0.00  0.00    +0.030 A 
ATOM      3  C   UNL     1       0.052  -0.005   0.012  0.00  0.00    +0.019 A 
ATOM      4  C   UNL     1      -1.126  -0.741   0.181  0.00  0.00    +0.017 A 
ATOM      5  C   UNL     1      -1.096  -2.111   0.198  0.00  0.00    -0.025 A 
ATOM      6  C   UNL     1       0.119  -2.789   0.058  0.00  0.00    +0.040 A 
ATOM      7  C   UNL     1       1.290  -2.075  -0.158  0.00  0.00    +0.017 A 
ATOM      8  C   UNL     1       1.267  -0.681  -0.175  0.00  0.00    +0.142 A 
ATOM      9  O   UNL     1       2.423  -0.011  -0.372  0.00  0.00    -0.437 OA
ATOM     10  C   UNL     1       2.441   1.335  -0.363  0.00  0.00    +0.226 A 
ATOM     11  N   UNL     1       3.571   1.967  -0.535  0.00  0.00    -0.266 NA
ATOM     12  C   UNL     1       2.621  -2.728  -0.410  0.00  0.00    +0.042 C 
ATOM     13  C   UNL     1       2.527  -4.246  -0.401  0.00  0.00    +0.024 C 
ATOM     14  C   UNL     1       1.448  -4.679   0.591  0.00  0.00    +0.105 C 
ATOM     15  N   UNL     1       0.150  -4.176   0.124  0.00  0.00    -0.329 N 
ATOM     16  C   UNL     1      -0.924  -4.713   0.969  0.00  0.00    +0.105 C 
ATOM     17  C   UNL     1      -2.269  -4.326   0.356  0.00  0.00    +0.024 C 
ATOM     18  C   UNL     1      -2.414  -2.812   0.374  0.00  0.00    +0.038 C 
ATOM     19  H   UNL     1       4.391   1.466  -0.669  0.00  0.00    +0.190 HD
ENDROOT
BRANCH   1  21
ATOM     20  N   UNL     1       0.079   4.261   0.028  0.00  0.00    -0.281 N 
ATOM     21  C   UNL     1       1.222   3.571  -0.158  0.00  0.00    +0.253 C 
ATOM     22  O   UNL     1       2.271   4.166  -0.322  0.00  0.00    -0.270 OA
ATOM     23  H   UNL     1      -0.881   3.728   0.089  0.00  0.00    +0.155 HD
BRANCH  20  27
ATOM     24  C   UNL     1       0.182   8.414   0.370  0.00  0.00    -0.018 A 
ATOM     25  C   UNL     1      -0.910   7.789  -0.231  0.00  0.00    +0.010 A 
ATOM     26  C   UNL     1      -0.942   6.416  -0.344  0.00  0.00    +0.024 A 
ATOM     27  C   UNL     1       0.114   5.653   0.143  0.00  0.00    +0.034 A 
ATOM     28  C   UNL     1       1.201   6.273   0.748  0.00  0.00    +0.024 A 
ATOM     29  C   UNL     1       1.240   7.647   0.857  0.00  0.00    +0.010 A 
BRANCH  24  33
ATOM     30  C   UNL     1       0.286  12.650   0.720  0.00  0.00    +0.000 A 
ATOM     31  C   UNL     1       1.337  11.892   1.204  0.00  0.00    +0.001 A 
ATOM     32  C   UNL     1       1.309  10.517   1.094  0.00  0.00    +0.008 A 
ATOM     33  C   UNL     1       0.218   9.891   0.493  0.00  0.00    -0.018 A 
ATOM     34  C   UNL     1      -0.836  10.660   0.002  0.00  0.00    +0.008 A 
ATOM     35  C   UNL     1      -0.799  12.034   0.123  0.00  0.00    +0.001 A 
ENDBRANCH  24  33
ENDBRANCH  20  27
ENDBRANCH   1  21
TORSDOF 3
