REMARK  Name = ZINC21250991
REMARK  10 active torsions:
REMARK  status: ('A' for Active; 'I' for Inactive)
REMARK    1  A    between atoms: C_1  and  C_2
REMARK    2  A    between atoms: C_2  and  O_3
REMARK    3  A    between atoms: O_3  and  C_4
REMARK    4  A    between atoms: C_7  and  C_12
REMARK    5  A    between atoms: C_9  and  O_10
REMARK    6  A    between atoms: O_10  and  C_11
REMARK    7  A    between atoms: C_17  and  C_27
REMARK    8  A    between atoms: C_30  and  N_33
REMARK    9  A    between atoms: N_33  and  C_34
REMARK   10  A    between atoms: N_33  and  C_35
REMARK                            x       y       z     vdW  Elec       q    Type
REMARK                         _______ _______ _______ _____ _____    ______ ____
ROOT
ATOM      1  C   UNL     1      -0.151   1.809   0.984  0.00  0.00    +0.032 C 
ATOM      2  C   UNL     1      -1.537   1.167   1.089  0.00  0.00    +0.059 C 
ATOM      3  C   UNL     1      -2.417   1.639  -0.057  0.00  0.00    +0.017 C 
ATOM      4  C   UNL     1      -1.880   1.918  -1.256  0.00  0.00    +0.036 C 
ATOM      5  C   UNL     1      -2.637   2.371  -2.482  0.00  0.00    +0.136 C 
ATOM      6  N   UNL     1      -4.010   2.754  -2.231  0.00  0.00    -0.331 N 
ATOM      7  C   UNL     1      -4.949   1.823  -1.790  0.00  0.00    +0.049 A 
ATOM      8  C   UNL     1      -6.002   1.421  -2.596  0.00  0.00    +0.025 A 
ATOM      9  C   UNL     1      -6.846   0.414  -2.161  0.00  0.00    +0.002 A 
ATOM     10  C   UNL     1      -6.643  -0.187  -0.932  0.00  0.00    +0.002 A 
ATOM     11  C   UNL     1      -5.604   0.227  -0.115  0.00  0.00    +0.025 A 
ATOM     12  C   UNL     1      -4.769   1.245  -0.542  0.00  0.00    +0.052 A 
ATOM     13  N   UNL     1      -3.736   1.739   0.246  0.00  0.00    -0.316 N 
ATOM     14  C   UNL     1      -0.485   1.798  -1.458  0.00  0.00    +0.163 C 
ATOM     15  O   UNL     1      -0.030   2.036  -2.560  0.00  0.00    -0.292 OA
ATOM     16  C   UNL     1       0.453   1.390  -0.362  0.00  0.00    +0.088 C 
ATOM     17  H   UNL     1      -4.328   3.796  -2.388  0.00  0.00    +0.147 HD
ATOM     18  H   UNL     1      -4.051   2.240   1.173  0.00  0.00    +0.152 HD
ENDROOT
BRANCH   1  22
ATOM     19  C   UNL     1       2.343   0.439   4.177  0.00  0.00    +0.162 A 
ATOM     20  C   UNL     1       1.778  -0.470   3.296  0.00  0.00    +0.050 A 
ATOM     21  C   UNL     1       0.972  -0.024   2.265  0.00  0.00    +0.008 A 
ATOM     22  C   UNL     1       0.728   1.329   2.110  0.00  0.00    -0.040 A 
ATOM     23  C   UNL     1       1.293   2.240   2.982  0.00  0.00    +0.053 A 
ATOM     24  C   UNL     1       2.098   1.800   4.020  0.00  0.00    +0.162 A 
BRANCH  24  25
ATOM     25  O   UNL     1       2.650   2.695   4.882  0.00  0.00    -0.491 OA
ATOM     26  C   UNL     1       2.354   4.076   4.660  0.00  0.00    +0.277 C 
ENDBRANCH  24  25
BRANCH  19  27
ATOM     27  O   UNL     1       3.136   0.002   5.191  0.00  0.00    -0.489 OA
BRANCH  27  29
ATOM     28  C   UNL     1       4.255  -1.707   6.483  0.00  0.00    +0.048 C 
ATOM     29  C   UNL     1       3.344  -1.409   5.290  0.00  0.00    +0.226 C 
ENDBRANCH  27  29
ENDBRANCH  19  27
ENDBRANCH   1  22
BRANCH   5  30
ATOM     30  C   UNL     1      -2.630   1.250  -3.490  0.00  0.00    -0.023 A 
ATOM     31  C   UNL     1      -3.257   0.054  -3.194  0.00  0.00    +0.007 A 
ATOM     32  C   UNL     1      -3.257  -0.974  -4.118  0.00  0.00    +0.023 A 
ATOM     33  C   UNL     1      -2.618  -0.808  -5.339  0.00  0.00    +0.029 A 
ATOM     34  C   UNL     1      -1.984   0.394  -5.631  0.00  0.00    +0.023 A 
ATOM     35  C   UNL     1      -1.992   1.419  -4.705  0.00  0.00    +0.007 A 
BRANCH  33  36
ATOM     36  N   UNL     1      -2.612  -1.846  -6.273  0.00  0.00    -0.336 N 
ATOM     37  C   UNL     1      -1.832  -1.718  -7.507  0.00  0.00    +0.129 C 
ATOM     38  C   UNL     1      -3.386  -3.064  -6.019  0.00  0.00    +0.129 C 
ENDBRANCH  33  36
ENDBRANCH   5  30
TORSDOF 6
