REMARK  Name = ZINC64344684
REMARK  6 active torsions:
REMARK  status: ('A' for Active; 'I' for Inactive)
REMARK    1  A    between atoms: C_8  and  C_24
REMARK    2  A    between atoms: N_10  and  C_11
REMARK    3  A    between atoms: C_11  and  C_12
REMARK    4  A    between atoms: N_14  and  C_15
REMARK    5  A    between atoms: C_15  and  C_16
REMARK    6  A    between atoms: C_16  and  C_17
REMARK                            x       y       z     vdW  Elec       q    Type
REMARK                         _______ _______ _______ _____ _____    ______ ____
ROOT
ATOM      1  C   UNL     1      -0.017   1.378   0.010  0.00  0.00    +0.000 A 
ATOM      2  C   UNL     1       1.174   2.082   0.002  0.00  0.00    +0.002 A 
ATOM      3  C   UNL     1       2.377   1.411  -0.013  0.00  0.00    +0.023 A 
ATOM      4  C   UNL     1       2.405   0.014  -0.021  0.00  0.00    +0.034 A 
ATOM      5  C   UNL     1       1.206  -0.682  -0.013  0.00  0.00    -0.024 A 
ATOM      6  C   UNL     1       0.002  -0.004   0.002  0.00  0.00    +0.005 A 
ATOM      7  C   UNL     1       1.510  -2.163  -0.023  0.00  0.00    +0.069 C 
ATOM      8  C   UNL     1       3.046  -2.241  -0.038  0.00  0.00    +0.164 C 
ATOM      9  N   UNL     1       3.501  -0.849  -0.036  0.00  0.00    -0.309 N 
ENDROOT
BRANCH   8  10
ATOM     10  C   UNL     1       3.521  -2.947  -1.282  0.00  0.00    +0.231 C 
ATOM     11  O   UNL     1       4.225  -2.363  -2.079  0.00  0.00    -0.274 OA
ATOM     12  N   UNL     1       3.164  -4.226  -1.510  0.00  0.00    -0.328 N 
ATOM     13  H   UNL     1       2.601  -4.693  -0.872  0.00  0.00    +0.145 HD
ATOM     14  H   UNL     1       3.470  -4.681  -2.310  0.00  0.00    +0.145 HD
ENDBRANCH   8  10
BRANCH   9  15
ATOM     15  C   UNL     1       4.903  -0.424  -0.048  0.00  0.00    +0.201 C 
BRANCH  15  16
ATOM     16  C   UNL     1       5.399  -0.285   1.368  0.00  0.00    +0.230 C 
ATOM     17  O   UNL     1       4.654  -0.518   2.297  0.00  0.00    -0.274 OA
ATOM     18  N   UNL     1       6.669   0.098   1.603  0.00  0.00    -0.314 N 
ATOM     19  H   UNL     1       7.265   0.284   0.861  0.00  0.00    +0.149 HD
BRANCH  18  20
ATOM     20  C   UNL     1       7.151   0.233   2.981  0.00  0.00    +0.109 C 
BRANCH  20  21
ATOM     21  C   UNL     1       8.615   0.676   2.968  0.00  0.00    +0.054 C 
BRANCH  21  22
ATOM     22  C   UNL     1       9.110   0.815   4.384  0.00  0.00    -0.046 A 
ATOM     23  C   UNL     1       8.985   2.023   5.045  0.00  0.00    +0.006 A 
ATOM     24  C   UNL     1       9.438   2.151   6.344  0.00  0.00    +0.038 A 
ATOM     25  C   UNL     1      10.018   1.069   6.984  0.00  0.00    +0.123 A 
ATOM     26  C   UNL     1      10.143  -0.140   6.322  0.00  0.00    +0.038 A 
ATOM     27  C   UNL     1       9.684  -0.268   5.025  0.00  0.00    +0.006 A 
ATOM     28  F   UNL     1      10.462   1.194   8.254  0.00  0.00    -0.205 F 
ENDBRANCH  21  22
ENDBRANCH  20  21
ENDBRANCH  18  20
ENDBRANCH  15  16
ENDBRANCH   9  15
TORSDOF 6
