REMARK  Name = ZINC18039506
REMARK  6 active torsions:
REMARK  status: ('A' for Active; 'I' for Inactive)
REMARK    1  A    between atoms: C_1  and  C_2
REMARK    2  A    between atoms: C_2  and  C_3
REMARK    3  A    between atoms: C_3  and  N_4
REMARK    4  A    between atoms: C_11  and  N_32
REMARK    5  A    between atoms: N_19  and  C_22
REMARK    6  A    between atoms: C_22  and  C_23
REMARK                            x       y       z     vdW  Elec       q    Type
REMARK                         _______ _______ _______ _____ _____    ______ ____
ROOT
ATOM      1  N   UNL     1      -0.698   1.558   1.213  0.00  0.00    -0.225 N 
ATOM      2  C   UNL     1      -1.667   0.802   1.750  0.00  0.00    +0.240 C 
ATOM      3  O   UNL     1      -1.949  -0.253   1.224  0.00  0.00    -0.274 OA
ATOM      4  C   UNL     1      -2.412   1.225   2.983  0.00  0.00    +0.147 C 
ATOM      5  C   UNL     1      -2.230   0.173   4.081  0.00  0.00    +0.064 C 
ATOM      6  C   UNL     1      -3.022  -1.064   3.740  0.00  0.00    -0.023 A 
ATOM      7  C   UNL     1      -2.739  -2.232   4.431  0.00  0.00    +0.038 A 
ATOM      8  C   UNL     1      -3.438  -3.392   4.163  0.00  0.00    +0.127 A 
ATOM      9  C   UNL     1      -4.431  -3.391   3.200  0.00  0.00    +0.034 A 
ATOM     10  C   UNL     1      -4.716  -2.235   2.507  0.00  0.00    +0.025 A 
ATOM     11  C   UNL     1      -4.010  -1.060   2.771  0.00  0.00    +0.033 A 
ATOM     12  N   UNL     1      -4.336   0.074   2.033  0.00  0.00    -0.323 N 
ATOM     13  C   UNL     1      -3.909   1.322   2.669  0.00  0.00    +0.112 C 
ATOM     14  C   UNL     1      -4.160   2.492   1.716  0.00  0.00    +0.108 C 
ATOM     15  N   UNL     1      -5.590   2.538   1.374  0.00  0.00    -0.295 NA
ATOM     16  C   UNL     1      -6.020   1.285   0.739  0.00  0.00    +0.103 C 
ATOM     17  C   UNL     1      -5.764   0.114   1.693  0.00  0.00    +0.121 C 
ATOM     18  C   UNL     1      -1.916   2.555   3.475  0.00  0.00    +0.238 C 
ATOM     19  O   UNL     1      -2.418   3.042   4.465  0.00  0.00    -0.274 OA
ATOM     20  N   UNL     1      -0.933   3.219   2.849  0.00  0.00    -0.239 N 
ATOM     21  C   UNL     1      -0.335   2.732   1.751  0.00  0.00    +0.315 C 
ATOM     22  O   UNL     1       0.554   3.374   1.227  0.00  0.00    -0.252 OA
ATOM     23  H   UNL     1      -0.595   4.192   3.235  0.00  0.00    +0.159 HD
ENDROOT
BRANCH   8  24
ATOM     24  N   UNL     1      -3.127  -4.633   4.906  0.00  0.00    +0.056 N 
ATOM     25  O   UNL     1      -3.745  -5.656   4.669  0.00  0.00    -0.126 OA
ATOM     26  O   UNL     1      -2.253  -4.633   5.755  0.00  0.00    -0.126 OA
ENDBRANCH   8  24
BRANCH   1  27
ATOM     27  C   UNL     1      -0.013   1.086   0.008  0.00  0.00    +0.118 C 
BRANCH  27  29
ATOM     28  C   UNL     1      -0.037   1.099  -2.490  0.00  0.00    +0.005 C 
ATOM     29  C   UNL     1      -0.753   1.593  -1.232  0.00  0.00    +0.016 C 
ENDBRANCH  27  29
ENDBRANCH   1  27
BRANCH  15  30
ATOM     30  C   UNL     1      -5.889   3.692   0.516  0.00  0.00    +0.119 C 
BRANCH  30  31
ATOM     31  C   UNL     1      -7.295   3.574  -0.012  0.00  0.00    -0.030 A 
ATOM     32  C   UNL     1      -8.348   4.121   0.698  0.00  0.00    +0.009 A 
ATOM     33  C   UNL     1      -9.639   4.016   0.217  0.00  0.00    +0.050 A 
ATOM     34  C   UNL     1      -9.882   3.360  -0.979  0.00  0.00    +0.166 A 
ATOM     35  C   UNL     1      -8.822   2.809  -1.695  0.00  0.00    +0.167 A 
ATOM     36  C   UNL     1      -7.530   2.924  -1.210  0.00  0.00    +0.054 A 
ATOM     37  O   UNL     1      -9.316   2.225  -2.825  0.00  0.00    -0.453 OA
ATOM     38  C   UNL     1     -10.634   2.778  -3.000  0.00  0.00    +0.466 C 
ATOM     39  O   UNL     1     -11.040   3.122  -1.662  0.00  0.00    -0.453 OA
ENDBRANCH  30  31
ENDBRANCH  15  30
TORSDOF 5
