REMARK  Name = ZINC64120520
REMARK  7 active torsions:
REMARK  status: ('A' for Active; 'I' for Inactive)
REMARK    1  A    between atoms: C_7  and  C_10
REMARK    2  A    between atoms: C_10  and  C_11
REMARK    3  A    between atoms: C_11  and  C_12
REMARK    4  A    between atoms: N_14  and  N_15
REMARK    5  A    between atoms: C_16  and  C_18
REMARK    6  A    between atoms: C_18  and  C_19
REMARK    7  A    between atoms: C_19  and  C_20
REMARK                            x       y       z     vdW  Elec       q    Type
REMARK                         _______ _______ _______ _____ _____    ______ ____
ROOT
ATOM      1  C   UNL     1      -0.484  -4.832  -1.457  0.00  0.00    +0.229 C 
ATOM      2  O   UNL     1      -0.925  -5.254  -0.408  0.00  0.00    -0.274 OA
ATOM      3  N   UNL     1      -0.837  -5.415  -2.619  0.00  0.00    -0.234 N 
ATOM      4  H   UNL     1      -0.485  -5.077  -3.458  0.00  0.00    +0.173 HD
ENDROOT
BRANCH   3   5
ATOM      5  N   UNL     1      -1.712  -6.510  -2.617  0.00  0.00    -0.234 N 
ATOM      6  C   UNL     1      -2.064  -7.093  -3.780  0.00  0.00    +0.229 C 
ATOM      7  O   UNL     1      -1.624  -6.671  -4.828  0.00  0.00    -0.274 OA
ATOM      8  H   UNL     1      -2.064  -6.847  -1.778  0.00  0.00    +0.173 HD
BRANCH   6   9
ATOM      9  C   UNL     1      -3.005  -8.270  -3.777  0.00  0.00    +0.102 C 
BRANCH   9  10
ATOM     10  C   UNL     1      -3.239  -8.739  -5.214  0.00  0.00    +0.042 C 
BRANCH  10  11
ATOM     11  C   UNL     1      -4.180  -9.916  -5.212  0.00  0.00    -0.041 C 
ATOM     12  C   UNL     1      -5.520  -9.886  -5.392  0.00  0.00    -0.001 A 
ATOM     13  C   UNL     1      -6.467  -8.791  -5.634  0.00  0.00    +0.010 A 
ATOM     14  C   UNL     1      -7.781  -9.079  -5.777  0.00  0.00    +0.001 A 
ATOM     15  C   UNL     1      -8.260 -10.394  -5.699  0.00  0.00    +0.002 A 
ATOM     16  C   UNL     1      -7.452 -11.453  -5.479  0.00  0.00    +0.026 A 
ATOM     17  C   UNL     1      -6.052 -11.266  -5.314  0.00  0.00    +0.043 A 
ATOM     18  N   UNL     1      -5.078 -12.116  -5.095  0.00  0.00    -0.380 N 
ATOM     19  C   UNL     1      -3.816 -11.371  -5.014  0.00  0.00    +0.144 C 
ATOM     20  H   UNL     1      -5.175 -13.077  -5.004  0.00  0.00    +0.160 HD
ENDBRANCH  10  11
ENDBRANCH   9  10
ENDBRANCH   6   9
ENDBRANCH   3   5
BRANCH   1  21
ATOM     21  C   UNL     1       0.457  -3.655  -1.459  0.00  0.00    +0.102 C 
BRANCH  21  22
ATOM     22  C   UNL     1       0.691  -3.186  -0.022  0.00  0.00    +0.042 C 
BRANCH  22  29
ATOM     23  C   UNL     1      -0.016   1.348   0.009  0.00  0.00    +0.001 A 
ATOM     24  C   UNL     1       1.166   2.101   0.002  0.00  0.00    +0.002 A 
ATOM     25  C   UNL     1       2.391   1.535  -0.013  0.00  0.00    +0.026 A 
ATOM     26  C   UNL     1       2.529   0.120  -0.022  0.00  0.00    +0.043 A 
ATOM     27  N   UNL     1       3.587  -0.654  -0.037  0.00  0.00    -0.380 N 
ATOM     28  C   UNL     1       3.143  -2.053  -0.040  0.00  0.00    +0.144 C 
ATOM     29  C   UNL     1       1.631  -2.009  -0.025  0.00  0.00    -0.041 C 
ATOM     30  C   UNL     1       1.295  -0.698  -0.014  0.00  0.00    -0.001 A 
ATOM     31  C   UNL     1       0.002  -0.004   0.002  0.00  0.00    +0.010 A 
ATOM     32  H   UNL     1       4.509  -0.353  -0.044  0.00  0.00    +0.160 HD
ENDBRANCH  22  29
ENDBRANCH  21  22
ENDBRANCH   1  21
TORSDOF 7
