REMARK  Name = ZINC01495126
REMARK  6 active torsions:
REMARK  status: ('A' for Active; 'I' for Inactive)
REMARK    1  A    between atoms: C_1  and  C_2
REMARK    2  A    between atoms: C_4  and  C_29
REMARK    3  A    between atoms: C_6  and  C_8
REMARK    4  A    between atoms: C_8  and  C_9
REMARK    5  A    between atoms: C_10  and  N_19
REMARK    6  A    between atoms: N_15  and  C_18
REMARK                            x       y       z     vdW  Elec       q    Type
REMARK                         _______ _______ _______ _____ _____    ______ ____
ROOT
ATOM      1  C   UNL     1      -0.684   3.274   1.401  0.00  0.00    +0.059 A 
ATOM      2  C   UNL     1      -0.811   1.966   1.024  0.00  0.00    +0.112 A 
ATOM      3  N   UNL     1      -1.549   1.108   1.804  0.00  0.00    -0.295 N 
ATOM      4  H   UNL     1      -1.654   0.053   1.513  0.00  0.00    +0.172 HD
ATOM      5  C   UNL     1      -2.147   1.552   2.925  0.00  0.00    +0.330 A 
ATOM      6  O   UNL     1      -2.796   0.779   3.603  0.00  0.00    -0.246 OA
ATOM      7  N   UNL     1      -2.036   2.837   3.308  0.00  0.00    -0.264 N 
ATOM      8  C   UNL     1      -1.322   3.712   2.572  0.00  0.00    +0.262 A 
ATOM      9  O   UNL     1      -1.227   4.875   2.924  0.00  0.00    -0.267 OA
ATOM     10  C   UNL     1      -2.699   3.289   4.533  0.00  0.00    +0.157 C 
ENDROOT
BRANCH   2  11
ATOM     11  N   UNL     1      -0.204   1.512  -0.118  0.00  0.00    -0.312 N 
ATOM     12  C   UNL     1      -1.034   0.501  -0.792  0.00  0.00    +0.111 C 
ATOM     13  C   UNL     1      -0.505   0.306  -2.213  0.00  0.00    +0.054 C 
ATOM     14  C   UNL     1       0.983   0.072  -2.180  0.00  0.00    -0.041 A 
ATOM     15  C   UNL     1       1.593  -0.469  -3.302  0.00  0.00    +0.004 A 
ATOM     16  C   UNL     1       2.954  -0.696  -3.315  0.00  0.00    +0.000 A 
ATOM     17  C   UNL     1       3.715  -0.383  -2.204  0.00  0.00    +0.000 A 
ATOM     18  C   UNL     1       3.109   0.154  -1.085  0.00  0.00    +0.005 A 
ATOM     19  C   UNL     1       1.740   0.382  -1.070  0.00  0.00    -0.027 A 
ATOM     20  C   UNL     1       1.124   0.965   0.174  0.00  0.00    +0.141 C 
ENDBRANCH   2  11
BRANCH   1  21
ATOM     21  C   UNL     1       0.125   4.234   0.567  0.00  0.00    +0.079 C 
BRANCH  21  27
ATOM     22  C   UNL     1      -2.135   4.541  -3.888  0.00  0.00    +0.044 C 
ATOM     23  C   UNL     1      -1.867   5.110  -2.518  0.00  0.00    -0.050 A 
ATOM     24  C   UNL     1      -2.458   6.299  -2.136  0.00  0.00    +0.006 A 
ATOM     25  C   UNL     1      -2.213   6.821  -0.880  0.00  0.00    -0.050 A 
ATOM     26  C   UNL     1      -1.377   6.153  -0.005  0.00  0.00    +0.007 A 
ATOM     27  C   UNL     1      -0.786   4.962  -0.386  0.00  0.00    -0.042 A 
ATOM     28  C   UNL     1      -1.028   4.443  -1.645  0.00  0.00    +0.007 A 
ATOM     29  C   UNL     1      -2.857   8.118  -0.464  0.00  0.00    +0.044 C 
ENDBRANCH  21  27
ENDBRANCH   1  21
TORSDOF 3
