REMARK  Name = ZINC20556116
REMARK  5 active torsions:
REMARK  status: ('A' for Active; 'I' for Inactive)
REMARK    1  A    between atoms: C_1  and  C_2
REMARK    2  A    between atoms: C_12  and  C_14
REMARK    3  A    between atoms: C_17  and  N_20
REMARK    4  A    between atoms: N_20  and  C_21
REMARK    5  A    between atoms: N_20  and  C_22
REMARK                            x       y       z     vdW  Elec       q    Type
REMARK                         _______ _______ _______ _____ _____    ______ ____
ROOT
ATOM      1  C   UNL     1      -1.044   1.265   8.057  0.00  0.00    +0.066 C 
ATOM      2  C   UNL     1      -1.089   0.500   6.759  0.00  0.00    +0.047 C 
ATOM      3  C   UNL     1      -0.811  -0.836   6.747  0.00  0.00    +0.091 C 
ATOM      4  C   UNL     1      -0.865  -1.533   5.525  0.00  0.00    +0.249 C 
ATOM      5  O   UNL     1      -0.612  -2.726   5.475  0.00  0.00    -0.270 OA
ATOM      6  N   UNL     1      -1.202  -0.854   4.415  0.00  0.00    -0.211 N 
ATOM      7  C   UNL     1      -1.450   0.487   4.485  0.00  0.00    +0.229 C 
ATOM      8  N   UNL     1      -1.400   1.131   5.627  0.00  0.00    -0.219 NA
ATOM      9  N   UNL     1      -1.754   1.133   3.301  0.00  0.00    -0.182 NA
ATOM     10  C   UNL     1      -1.095   0.673   2.166  0.00  0.00    +0.196 C 
ATOM     11  N   UNL     1      -0.866  -0.611   2.059  0.00  0.00    -0.335 N 
ATOM     12  C   UNL     1      -1.327  -1.522   3.115  0.00  0.00    +0.211 C 
ATOM     13  N   UNL     1      -0.698   1.544   1.180  0.00  0.00    -0.301 N 
ATOM     14  C   UNL     1      -0.002   1.053  -0.017  0.00  0.00    +0.108 C 
ATOM     15  C   UNL     1      -0.744   1.550  -1.262  0.00  0.00    +0.019 C 
ATOM     16  C   UNL     1      -0.881   3.072  -1.195  0.00  0.00    +0.003 C 
ATOM     17  C   UNL     1      -1.697   3.459   0.040  0.00  0.00    +0.019 C 
ATOM     18  C   UNL     1      -0.966   2.984   1.300  0.00  0.00    +0.108 C 
ATOM     19  H   UNL     1      -0.332  -1.003   1.182  0.00  0.00    +0.164 HD
ENDROOT
BRANCH  12  20
ATOM     20  C   UNL     1      -2.770  -1.881   2.870  0.00  0.00    -0.007 A 
ATOM     21  C   UNL     1      -3.600  -2.167   3.938  0.00  0.00    +0.009 A 
ATOM     22  C   UNL     1      -4.925  -2.491   3.718  0.00  0.00    +0.023 A 
ATOM     23  C   UNL     1      -5.420  -2.540   2.421  0.00  0.00    +0.029 A 
ATOM     24  C   UNL     1      -4.581  -2.257   1.350  0.00  0.00    +0.023 A 
ATOM     25  C   UNL     1      -3.259  -1.928   1.578  0.00  0.00    +0.009 A 
BRANCH  23  26
ATOM     26  N   UNL     1      -6.757  -2.873   2.193  0.00  0.00    -0.336 N 
ATOM     27  C   UNL     1      -7.309  -2.803   0.839  0.00  0.00    +0.129 C 
ATOM     28  C   UNL     1      -7.607  -3.293   3.310  0.00  0.00    +0.129 C 
ENDBRANCH  23  26
ENDBRANCH  12  20
TORSDOF 2
