REMARK  Name = ZINC22024659
REMARK  9 active torsions:
REMARK  status: ('A' for Active; 'I' for Inactive)
REMARK    1  A    between atoms: C_1  and  C_2
REMARK    2  A    between atoms: C_2  and  C_3
REMARK    3  A    between atoms: C_3  and  C_4
REMARK    4  A    between atoms: C_4  and  C_5
REMARK    5  A    between atoms: C_15  and  C_17
REMARK    6  A    between atoms: C_17  and  C_18
REMARK    7  A    between atoms: C_18  and  C_19
REMARK    8  A    between atoms: C_19  and  C_20
REMARK    9  A    between atoms: C_20  and  N_21
REMARK                            x       y       z     vdW  Elec       q    Type
REMARK                         _______ _______ _______ _____ _____    ______ ____
ROOT
ATOM      1  C   UNL     1      -2.826  -2.585   0.015  0.00  0.00    -0.046 A 
ATOM      2  C   UNL     1      -3.474  -2.829   1.218  0.00  0.00    +0.006 A 
ATOM      3  C   UNL     1      -4.760  -3.303   1.255  0.00  0.00    +0.029 A 
ATOM      4  C   UNL     1      -5.470  -3.561   0.060  0.00  0.00    +0.080 A 
ATOM      5  C   UNL     1      -4.779  -3.301  -1.145  0.00  0.00    +0.041 A 
ATOM      6  C   UNL     1      -3.493  -2.820  -1.173  0.00  0.00    +0.021 A 
ATOM      7  S   UNL     1      -5.983  -3.740  -2.375  0.00  0.00    -0.052 S 
ATOM      8  C   UNL     1      -7.285  -4.225  -1.250  0.00  0.00    +0.165 A 
ATOM      9  N   UNL     1      -6.731  -4.025  -0.077  0.00  0.00    -0.225 NA
ATOM     10  N   UNL     1      -8.556  -4.692  -1.542  0.00  0.00    -0.265 N 
ATOM     11  C   UNL     1      -9.404  -5.009  -0.543  0.00  0.00    +0.219 C 
ATOM     12  O   UNL     1      -9.054  -4.884   0.612  0.00  0.00    -0.275 OA
ATOM     13  H   UNL     1      -8.836  -4.792  -2.465  0.00  0.00    +0.157 HD
ENDROOT
BRANCH   1  14
ATOM     14  C   UNL     1      -1.413  -2.063   0.004  0.00  0.00    +0.035 C 
BRANCH  14  15
ATOM     15  C   UNL     1      -1.433  -0.534   0.013  0.00  0.00    +0.004 C 
BRANCH  15  17
ATOM     16  C   UNL     1      -0.019   1.526   0.010  0.00  0.00    +0.004 C 
ATOM     17  C   UNL     1       0.002  -0.004   0.002  0.00  0.00    -0.003 C 
ENDBRANCH  15  17
ENDBRANCH  14  15
ENDBRANCH   1  14
BRANCH  11  18
ATOM     18  C   UNL     1     -10.786  -5.518  -0.860  0.00  0.00    +0.096 C 
BRANCH  18  19
ATOM     19  C   UNL     1     -11.538  -5.799   0.442  0.00  0.00    +0.011 C 
BRANCH  19  20
ATOM     20  C   UNL     1     -12.941  -6.316   0.120  0.00  0.00    +0.019 C 
BRANCH  20  21
ATOM     21  C   UNL     1     -13.693  -6.598   1.423  0.00  0.00    +0.106 C 
BRANCH  21  22
ATOM     22  N   UNL     1     -15.037  -7.093   1.114  0.00  0.00    -0.300 N 
ATOM     23  C   UNL     1     -15.884  -7.409   2.113  0.00  0.00    +0.297 C 
ATOM     24  O   UNL     1     -15.533  -7.284   3.271  0.00  0.00    -0.253 OA
ATOM     25  N   UNL     1     -17.121  -7.864   1.829  0.00  0.00    -0.313 N 
ATOM     26  H   UNL     1     -15.316  -7.192   0.191  0.00  0.00    +0.150 HD
ATOM     27  H   UNL     1     -17.401  -7.964   0.906  0.00  0.00    +0.146 HD
ATOM     28  H   UNL     1     -17.730  -8.091   2.548  0.00  0.00    +0.146 HD
ENDBRANCH  21  22
ENDBRANCH  20  21
ENDBRANCH  19  20
ENDBRANCH  18  19
ENDBRANCH  11  18
TORSDOF 8
