REMARK  Name = ZINC09212133
REMARK  11 active torsions:
REMARK  status: ('A' for Active; 'I' for Inactive)
REMARK    1  A    between atoms: C_1  and  C_2
REMARK    2  A    between atoms: C_2  and  N_65
REMARK    3  A    between atoms: C_6  and  C_8
REMARK    4  A    between atoms: C_8  and  N_9
REMARK    5  A    between atoms: C_10  and  C_12
REMARK    6  A    between atoms: C_15  and  C_18
REMARK    7  A    between atoms: C_20  and  C_24
REMARK    8  A    between atoms: C_21  and  C_23
REMARK    9  A    between atoms: C_24  and  S_25
REMARK   10  A    between atoms: S_25  and  C_28
REMARK   11  A    between atoms: C_31  and  C_34
REMARK                            x       y       z     vdW  Elec       q    Type
REMARK                         _______ _______ _______ _____ _____    ______ ____
ROOT
ATOM      1  C   UNL     1       2.370   1.441   0.278  0.00  0.00    +0.037 A 
ATOM      2  C   UNL     1       1.160   2.133   0.364  0.00  0.00    +0.014 A 
ATOM      3  C   UNL     1      -0.024   1.439   0.475  0.00  0.00    +0.014 A 
ATOM      4  C   UNL     1      -0.014   0.042   0.501  0.00  0.00    +0.037 A 
ATOM      5  C   UNL     1       1.196  -0.650   0.415  0.00  0.00    +0.014 A 
ATOM      6  C   UNL     1       2.380   0.044   0.304  0.00  0.00    +0.014 A 
ENDROOT
BRANCH   4   7
ATOM      7  C   UNL     1      -1.284  -0.703   0.620  0.00  0.00    +0.228 A 
ATOM      8  N   UNL     1      -1.406  -2.009   0.655  0.00  0.00    -0.212 NA
ATOM      9  C   UNL     1      -2.706  -2.316   0.768  0.00  0.00    +0.104 A 
ATOM     10  C   UNL     1      -3.400  -1.163   0.804  0.00  0.00    +0.127 A 
ATOM     11  O   UNL     1      -2.509  -0.157   0.716  0.00  0.00    -0.440 OA
ATOM     12  C   UNL     1      -4.896  -1.023   0.925  0.00  0.00    +0.088 C 
BRANCH   9  13
ATOM     13  C   UNL     1      -3.287  -3.704   0.843  0.00  0.00    +0.230 C 
BRANCH  13  14
ATOM     14  S   UNL     1      -3.378  -4.229   2.577  0.00  0.00    +0.003 S 
ATOM     15  O   UNL     1      -2.071  -4.408   3.103  0.00  0.00    -0.169 OA
ATOM     16  O   UNL     1      -4.340  -3.450   3.274  0.00  0.00    -0.169 OA
BRANCH  14  17
ATOM     17  C   UNL     1      -4.067  -5.850   2.523  0.00  0.00    +0.089 A 
ATOM     18  C   UNL     1      -5.437  -6.022   2.591  0.00  0.00    +0.027 A 
ATOM     19  C   UNL     1      -5.978  -7.293   2.545  0.00  0.00    +0.005 A 
ATOM     20  C   UNL     1      -5.148  -8.394   2.441  0.00  0.00    -0.050 A 
ATOM     21  C   UNL     1      -3.778  -8.223   2.378  0.00  0.00    +0.005 A 
ATOM     22  C   UNL     1      -3.237  -6.951   2.420  0.00  0.00    +0.027 A 
ATOM     23  C   UNL     1      -5.737  -9.780   2.395  0.00  0.00    +0.044 C 
ENDBRANCH  14  17
ENDBRANCH  13  14
ENDBRANCH   9  13
ENDBRANCH   4   7
BRANCH   1  25
ATOM     24  N   UNL     1       3.631   3.533   0.134  0.00  0.00    -0.313 N 
ATOM     25  C   UNL     1       3.640   2.186   0.160  0.00  0.00    +0.244 C 
ATOM     26  O   UNL     1       4.694   1.584   0.085  0.00  0.00    -0.270 OA
ATOM     27  H   UNL     1       2.791   4.014   0.194  0.00  0.00    +0.149 HD
BRANCH  24  28
ATOM     28  C   UNL     1       4.891   4.272   0.017  0.00  0.00    +0.089 C 
BRANCH  28  32
ATOM     29  C   UNL     1       5.948   7.238  -1.439  0.00  0.00    -0.078 C 
ATOM     30  C   UNL     1       4.481   7.387  -1.913  0.00  0.00    -0.020 C 
ATOM     31  C   UNL     1       3.859   6.042  -1.444  0.00  0.00    -0.016 C 
ATOM     32  C   UNL     1       4.595   5.768  -0.115  0.00  0.00    -0.051 C 
ATOM     33  N   UNL     1       5.846   6.543  -0.141  0.00  0.00    +0.382 N 
ATOM     34  H   UNL     1       5.831   7.237   0.616  0.00  0.00    -0.081 HD
BRANCH  33  36
ATOM     35  C   UNL     1       8.304   6.447  -0.088  0.00  0.00    -0.017 C 
ATOM     36  C   UNL     1       7.011   5.641   0.051  0.00  0.00    -0.082 C 
ENDBRANCH  33  36
ENDBRANCH  28  32
ENDBRANCH  24  28
ENDBRANCH   1  25
TORSDOF 8
