REMARK  Name = ZINC35843670
REMARK  16 active torsions:
REMARK  status: ('A' for Active; 'I' for Inactive)
REMARK    1  A    between atoms: C_1  and  C_2
REMARK    2  A    between atoms: C_2  and  O_3
REMARK    3  A    between atoms: O_3  and  C_4
REMARK    4  A    between atoms: C_4  and  C_6
REMARK    5  A    between atoms: C_6  and  C_8
REMARK    6  A    between atoms: C_6  and  N_9
REMARK    7  A    between atoms: N_9  and  C_10
REMARK    8  A    between atoms: N_9  and  C_35
REMARK    9  A    between atoms: C_10  and  C_11
REMARK   10  A    between atoms: N_13  and  C_14
REMARK   11  A    between atoms: N_13  and  C_26
REMARK   12  A    between atoms: C_14  and  C_15
REMARK   13  A    between atoms: C_15  and  C_16
REMARK   14  A    between atoms: C_26  and  C_27
REMARK   15  A    between atoms: C_35  and  C_36
REMARK   16  A    between atoms: C_35  and  C_37
REMARK                            x       y       z     vdW  Elec       q    Type
REMARK                         _______ _______ _______ _____ _____    ______ ____
ROOT
ATOM      1  C   UNL     1       0.927  -5.644  -2.263  0.00  0.00    +0.199 C 
ATOM      2  O   UNL     1       1.940  -6.211  -1.913  0.00  0.00    -0.278 OA
ATOM      3  N   UNL     1      -0.176  -6.359  -2.562  0.00  0.00    -0.298 N 
ENDROOT
BRANCH   1   4
ATOM      4  C   UNL     1       0.900  -4.141  -2.363  0.00  0.00    +0.020 C 
BRANCH   4   5
ATOM      5  N   UNL     1       1.804  -3.567  -1.358  0.00  0.00    +0.396 N 
ATOM      6  H   UNL     1       1.844  -2.565  -1.473  0.00  0.00    -0.080 HD
BRANCH   5   7
ATOM      7  C   UNL     1       1.307  -3.885  -0.013  0.00  0.00    -0.073 C 
ATOM      8  C   UNL     1      -0.156  -3.453   0.106  0.00  0.00    -0.013 C 
ATOM      9  C   UNL     1       1.415  -5.393   0.227  0.00  0.00    -0.013 C 
ENDBRANCH   5   7
BRANCH   5  10
ATOM     10  C   UNL     1       3.149  -4.133  -1.529  0.00  0.00    +0.040 C 
ATOM     11  C   UNL     1       4.133  -3.393  -0.621  0.00  0.00    -0.002 C 
BRANCH  10  12
ATOM     12  C   UNL     1       3.579  -3.979  -2.966  0.00  0.00    +0.293 C 
ATOM     13  O   UNL     1       3.166  -3.054  -3.624  0.00  0.00    -0.253 OA
BRANCH  12  14
ATOM     14  O   UNL     1       4.420  -4.870  -3.513  0.00  0.00    -0.466 OA
BRANCH  14  16
ATOM     15  C   UNL     1       5.743  -5.771  -5.324  0.00  0.00    +0.048 C 
ATOM     16  C   UNL     1       4.785  -4.663  -4.879  0.00  0.00    +0.228 C 
ENDBRANCH  14  16
ENDBRANCH  12  14
ENDBRANCH  10  12
ENDBRANCH   5  10
ENDBRANCH   4   5
ENDBRANCH   1   4
BRANCH   3  17
ATOM     17  C   UNL     1      -0.190  -7.808  -2.346  0.00  0.00    +0.113 C 
BRANCH  17  18
ATOM     18  C   UNL     1      -0.692  -8.107  -0.931  0.00  0.00    +0.056 C 
BRANCH  18  19
ATOM     19  C   UNL     1      -0.707  -9.598  -0.709  0.00  0.00    -0.021 A 
ATOM     20  C   UNL     1      -1.754 -10.420  -0.876  0.00  0.00    +0.087 A 
ATOM     21  N   UNL     1      -1.391 -11.705  -0.579  0.00  0.00    -0.360 N 
ATOM     22  H   UNL     1      -1.979 -12.475  -0.626  0.00  0.00    +0.165 HD
ATOM     23  C   UNL     1      -0.067 -11.743  -0.203  0.00  0.00    +0.047 A 
ATOM     24  C   UNL     1       0.421 -10.425  -0.274  0.00  0.00    +0.003 A 
ATOM     25  C   UNL     1       1.753 -10.158   0.050  0.00  0.00    +0.010 A 
ATOM     26  C   UNL     1       2.576 -11.180   0.431  0.00  0.00    +0.001 A 
ATOM     27  C   UNL     1       2.100 -12.481   0.498  0.00  0.00    +0.002 A 
ATOM     28  C   UNL     1       0.787 -12.766   0.192  0.00  0.00    +0.026 A 
ENDBRANCH  18  19
ENDBRANCH  17  18
ENDBRANCH   3  17
BRANCH   3  29
ATOM     29  C   UNL     1      -1.360  -5.688  -3.104  0.00  0.00    +0.142 C 
BRANCH  29  30
ATOM     30  C   UNL     1      -1.340  -5.772  -4.609  0.00  0.00    -0.029 A 
ATOM     31  C   UNL     1      -0.659  -4.820  -5.345  0.00  0.00    +0.007 A 
ATOM     32  C   UNL     1      -0.640  -4.896  -6.725  0.00  0.00    +0.022 A 
ATOM     33  C   UNL     1      -1.304  -5.924  -7.370  0.00  0.00    +0.059 A 
ATOM     34  C   UNL     1      -1.986  -6.877  -6.633  0.00  0.00    +0.060 A 
ATOM     35  C   UNL     1      -1.999  -6.803  -5.252  0.00  0.00    +0.026 A 
ATOM     36 CL   UNL     1      -2.819  -8.168  -7.441  0.00  0.00    -0.082 Cl
ATOM     37 CL   UNL     1      -1.281  -6.019  -9.104  0.00  0.00    -0.082 Cl
ENDBRANCH  29  30
ENDBRANCH   3  29
TORSDOF 12
