REMARK  Name = ZINC61160267
REMARK  7 active torsions:
REMARK  status: ('A' for Active; 'I' for Inactive)
REMARK    1  A    between atoms: C_1  and  C_2
REMARK    2  A    between atoms: C_5  and  C_24
REMARK    3  A    between atoms: C_6  and  N_8
REMARK    4  A    between atoms: N_11  and  C_12
REMARK    5  A    between atoms: C_16  and  N_18
REMARK    6  A    between atoms: C_24  and  C_25
REMARK    7  A    between atoms: C_24  and  C_26
REMARK                            x       y       z     vdW  Elec       q    Type
REMARK                         _______ _______ _______ _____ _____    ______ ____
ROOT
ATOM      1  N   UNL     1       1.683  -2.408   2.380  0.00  0.00    -0.296 N 
ATOM      2  C   UNL     1       1.067  -2.485   3.576  0.00  0.00    +0.304 C 
ATOM      3  O   UNL     1      -0.000  -1.927   3.748  0.00  0.00    -0.253 OA
ATOM      4  N   UNL     1       1.633  -3.180   4.583  0.00  0.00    -0.269 N 
ATOM      5  H   UNL     1       2.534  -2.852   2.243  0.00  0.00    +0.151 HD
ATOM      6  H   UNL     1       2.518  -3.561   4.471  0.00  0.00    +0.156 HD
ENDROOT
BRANCH   1  12
ATOM      7  C   UNL     1       1.253   2.076   0.341  0.00  0.00    +0.007 C 
ATOM      8  C   UNL     1       0.838   0.606   0.243  0.00  0.00    -0.012 C 
ATOM      9  C   UNL     1       1.304   0.034  -1.098  0.00  0.00    +0.004 C 
ATOM     10  C   UNL     1       0.889  -1.435  -1.196  0.00  0.00    +0.006 C 
ATOM     11  C   UNL     1       1.532  -2.224  -0.054  0.00  0.00    +0.012 C 
ATOM     12  C   UNL     1       1.067  -1.652   1.286  0.00  0.00    +0.078 C 
ATOM     13  C   UNL     1       1.481  -0.183   1.385  0.00  0.00    +0.026 C 
BRANCH  11  14
ATOM     14  C   UNL     1       1.118  -3.694  -0.153  0.00  0.00    -0.012 C 
ATOM     15  C   UNL     1      -0.409  -3.792  -0.194  0.00  0.00    +0.007 C 
ATOM     16  C   UNL     1       1.703  -4.304  -1.428  0.00  0.00    +0.007 C 
ENDBRANCH  11  14
ENDBRANCH   1  12
BRANCH   4  17
ATOM     17  C   UNL     1       0.945  -3.351   5.789  0.00  0.00    +0.037 A 
ATOM     18  C   UNL     1      -0.439  -3.475   5.789  0.00  0.00    +0.023 A 
ATOM     19  C   UNL     1      -1.119  -3.644   6.979  0.00  0.00    +0.004 A 
ATOM     20  C   UNL     1      -0.425  -3.691   8.174  0.00  0.00    +0.024 A 
ATOM     21  C   UNL     1       0.958  -3.567   8.181  0.00  0.00    +0.040 A 
ATOM     22  C   UNL     1       1.644  -3.402   6.986  0.00  0.00    +0.047 A 
BRANCH  21  23
ATOM     23  N   UNL     1       1.659  -3.614   9.391  0.00  0.00    -0.254 N 
ATOM     24  C   UNL     1       1.072  -3.914  10.705  0.00  0.00    +0.134 C 
ATOM     25  C   UNL     1       2.269  -3.834  11.672  0.00  0.00    +0.125 C 
ATOM     26  N   UNL     1       3.404  -3.497  10.800  0.00  0.00    -0.297 N 
ATOM     27  C   UNL     1       2.973  -3.398   9.535  0.00  0.00    +0.307 C 
ATOM     28  O   UNL     1       3.708  -3.132   8.603  0.00  0.00    -0.252 OA
ATOM     29  H   UNL     1       4.320  -3.370  11.093  0.00  0.00    +0.150 HD
ENDBRANCH  21  23
ENDBRANCH   4  17
TORSDOF 4
