REMARK  Name = ZINC36587057
REMARK  19 active torsions:
REMARK  status: ('A' for Active; 'I' for Inactive)
REMARK    1  A    between atoms: C_1  and  C_2
REMARK    2  A    between atoms: C_3  and  C_4
REMARK    3  A    between atoms: C_4  and  C_6
REMARK    4  A    between atoms: C_4  and  N_17
REMARK    5  A    between atoms: N_8  and  C_9
REMARK    6  A    between atoms: C_9  and  C_10
REMARK    7  A    between atoms: C_9  and  C_11
REMARK    8  A    between atoms: C_9  and  C_12
REMARK    9  A    between atoms: C_12  and  C_13
REMARK   10  A    between atoms: C_13  and  C_14
REMARK   11  A    between atoms: C_13  and  C_15
REMARK   12  A    between atoms: C_13  and  C_16
REMARK   13  A    between atoms: N_17  and  C_28
REMARK   14  A    between atoms: C_18  and  C_20
REMARK   15  A    between atoms: C_24  and  O_27
REMARK   16  A    between atoms: C_25  and  O_26
REMARK   17  A    between atoms: C_28  and  C_29
REMARK   18  A    between atoms: C_28  and  C_30
REMARK   19  A    between atoms: C_28  and  C_31
REMARK                            x       y       z     vdW  Elec       q    Type
REMARK                         _______ _______ _______ _____ _____    ______ ____
ROOT
ATOM      1  N   UNL     1      -0.111   0.891  -3.513  0.00  0.00    -0.277 N 
ATOM      2  C   UNL     1      -0.031   1.621  -4.644  0.00  0.00    +0.252 C 
ATOM      3  O   UNL     1      -0.261   2.815  -4.614  0.00  0.00    -0.270 OA
ENDROOT
BRANCH   2   4
ATOM      4  C   UNL     1       0.335   0.972  -5.917  0.00  0.00    +0.082 A 
ATOM      5  C   UNL     1       0.769  -0.357  -5.928  0.00  0.00    +0.017 A 
ATOM      6  C   UNL     1       1.110  -0.960  -7.119  0.00  0.00    +0.005 A 
ATOM      7  C   UNL     1       1.026  -0.257  -8.309  0.00  0.00    +0.049 A 
ATOM      8  C   UNL     1       0.599   1.060  -8.314  0.00  0.00    +0.159 A 
ATOM      9  C   UNL     1       0.245   1.681  -7.120  0.00  0.00    +0.171 A 
BRANCH   9  10
ATOM     10  O   UNL     1      -0.180   2.971  -7.121  0.00  0.00    -0.503 OA
ATOM     11  H   UNL     1       0.530   3.619  -7.022  0.00  0.00    +0.292 HD
ENDBRANCH   9  10
BRANCH   8  12
ATOM     12  O   UNL     1       0.519   1.745  -9.486  0.00  0.00    -0.503 OA
ATOM     13  H   UNL     1      -0.339   1.672  -9.927  0.00  0.00    +0.292 HD
ENDBRANCH   8  12
ENDBRANCH   2   4
BRANCH   1  14
ATOM     14  C   UNL     1      -0.526   1.525  -2.260  0.00  0.00    +0.030 C 
ATOM     15  C   UNL     1       0.536   1.276  -1.186  0.00  0.00    +0.031 C 
ATOM     16  C   UNL     1      -0.685   3.031  -2.478  0.00  0.00    +0.031 C 
ATOM     17  C   UNL     1      -1.860   0.932  -1.804  0.00  0.00    +0.031 C 
ENDBRANCH   1  14
BRANCH   1  18
ATOM     18  C   UNL     1       0.216  -0.537  -3.539  0.00  0.00    +0.186 C 
BRANCH  18  19
ATOM     19  C   UNL     1      -0.763  -1.261  -4.427  0.00  0.00    +0.238 C 
ATOM     20  O   UNL     1      -1.638  -0.642  -4.995  0.00  0.00    -0.273 OA
ATOM     21  N   UNL     1      -0.665  -2.595  -4.591  0.00  0.00    -0.308 N 
ATOM     22  H   UNL     1       0.035  -3.089  -4.137  0.00  0.00    +0.149 HD
BRANCH  21  23
ATOM     23  C   UNL     1      -1.617  -3.299  -5.454  0.00  0.00    +0.030 C 
ATOM     24  C   UNL     1      -3.037  -3.093  -4.923  0.00  0.00    +0.031 C 
ATOM     25  C   UNL     1      -1.520  -2.745  -6.877  0.00  0.00    +0.031 C 
BRANCH  23  26
ATOM     26  C   UNL     1      -1.287  -4.793  -5.465  0.00  0.00    +0.031 C 
BRANCH  26  27
ATOM     27  C   UNL     1       0.219  -4.981  -5.658  0.00  0.00    -0.036 C 
ATOM     28  C   UNL     1       0.904  -5.043  -4.291  0.00  0.00    +0.010 C 
ATOM     29  C   UNL     1       0.477  -6.284  -6.417  0.00  0.00    +0.010 C 
ATOM     30  C   UNL     1       0.782  -3.805  -6.457  0.00  0.00    +0.010 C 
ENDBRANCH  26  27
ENDBRANCH  23  26
ENDBRANCH  21  23
ENDBRANCH  18  19
BRANCH  18  33
ATOM     31  C   UNL     1       2.570  -1.269  -2.171  0.00  0.00    +0.035 C 
ATOM     32  C   UNL     1       1.224  -1.484  -1.527  0.00  0.00    -0.032 C 
ATOM     33  C   UNL     1       0.135  -1.096  -2.142  0.00  0.00    +0.000 C 
ENDBRANCH  18  33
ENDBRANCH   1  18
TORSDOF 10
