REMARK  Name = ZINC32771502
REMARK  8 active torsions:
REMARK  status: ('A' for Active; 'I' for Inactive)
REMARK    1  A    between atoms: C_1  and  C_2
REMARK    2  A    between atoms: C_2  and  C_4
REMARK    3  A    between atoms: C_2  and  N_16
REMARK    4  A    between atoms: N_6  and  C_7
REMARK    5  A    between atoms: C_12  and  N_13
REMARK    6  A    between atoms: N_16  and  C_17
REMARK    7  A    between atoms: C_21  and  N_23
REMARK    8  A    between atoms: N_26  and  C_27
REMARK                            x       y       z     vdW  Elec       q    Type
REMARK                         _______ _______ _______ _____ _____    ______ ____
ROOT
ATOM      1  C   UNL     1       1.580  -1.738  -0.935  0.00  0.00    +0.029 A 
ATOM      2  C   UNL     1       1.385  -0.869  -2.002  0.00  0.00    +0.023 A 
ATOM      3  C   UNL     1       1.240  -1.367  -3.282  0.00  0.00    +0.004 A 
ATOM      4  C   UNL     1       1.289  -2.730  -3.506  0.00  0.00    +0.023 A 
ATOM      5  C   UNL     1       1.484  -3.603  -2.444  0.00  0.00    +0.037 A 
ATOM      6  C   UNL     1       1.635  -3.106  -1.157  0.00  0.00    +0.046 A 
ENDROOT
BRANCH   5   7
ATOM      7  N   UNL     1       1.534  -4.983  -2.672  0.00  0.00    -0.269 N 
ATOM      8  C   UNL     1       1.065  -5.837  -1.740  0.00  0.00    +0.308 C 
ATOM      9  O   UNL     1       0.514  -5.409  -0.745  0.00  0.00    -0.252 OA
ATOM     10  N   UNL     1       1.208  -7.166  -1.912  0.00  0.00    -0.269 N 
ATOM     11  H   UNL     1       1.956  -5.371  -3.611  0.00  0.00    +0.156 HD
ATOM     12  H   UNL     1       1.782  -7.552  -2.768  0.00  0.00    +0.156 HD
BRANCH  10  13
ATOM     13  C   UNL     1       0.627  -8.056  -1.002  0.00  0.00    +0.035 A 
ATOM     14  C   UNL     1       1.249  -9.264  -0.716  0.00  0.00    +0.023 A 
ATOM     15  C   UNL     1       0.674 -10.138   0.186  0.00  0.00    +0.002 A 
ATOM     16  C   UNL     1      -0.524  -9.816   0.797  0.00  0.00    +0.000 A 
ATOM     17  C   UNL     1      -1.148  -8.616   0.510  0.00  0.00    +0.002 A 
ATOM     18  C   UNL     1      -0.577  -7.735  -0.388  0.00  0.00    +0.023 A 
ENDBRANCH  10  13
ENDBRANCH   5   7
BRANCH   1  19
ATOM     19  N   UNL     1       1.726  -1.233   0.359  0.00  0.00    -0.333 N 
ATOM     20  H   UNL     1       1.880  -1.921   1.204  0.00  0.00    +0.147 HD
BRANCH  19  22
ATOM     21  C   UNL     1       3.060   0.817   0.358  0.00  0.00    +0.038 C 
ATOM     22  C   UNL     1       1.674   0.212   0.592  0.00  0.00    +0.154 C 
BRANCH  22  23
ATOM     23  C   UNL     1       1.244   0.477   2.012  0.00  0.00    +0.237 C 
ATOM     24  O   UNL     1       1.004  -0.450   2.756  0.00  0.00    -0.273 OA
ATOM     25  N   UNL     1       1.125   1.744   2.455  0.00  0.00    -0.282 N 
ATOM     26  H   UNL     1       1.262   2.585   1.760  0.00  0.00    +0.155 HD
BRANCH  25  27
ATOM     27  C   UNL     1       0.829   1.990   3.800  0.00  0.00    +0.064 A 
ATOM     28  C   UNL     1       1.305   1.136   4.786  0.00  0.00    +0.025 A 
ATOM     29  C   UNL     1       1.015   1.384   6.113  0.00  0.00    +0.002 A 
ATOM     30  C   UNL     1       0.242   2.477   6.460  0.00  0.00    +0.002 A 
ATOM     31  C   UNL     1      -0.239   3.327   5.481  0.00  0.00    +0.034 A 
ATOM     32  C   UNL     1       0.052   3.087   4.152  0.00  0.00    +0.147 A 
BRANCH  32  33
ATOM     33  N   UNL     1      -0.463   3.997   3.105  0.00  0.00    +0.058 N 
ATOM     34  O   UNL     1      -1.049   5.017   3.419  0.00  0.00    -0.126 OA
ATOM     35  O   UNL     1      -0.301   3.725   1.929  0.00  0.00    -0.126 OA
ENDBRANCH  32  33
ENDBRANCH  25  27
ENDBRANCH  22  23
ENDBRANCH  19  22
ENDBRANCH   1  19
TORSDOF 7
