REMARK  Name = ZINC37515011
REMARK  6 active torsions:
REMARK  status: ('A' for Active; 'I' for Inactive)
REMARK    1  A    between atoms: C_1  and  C_2
REMARK    2  A    between atoms: C_2  and  C_3
REMARK    3  A    between atoms: C_3  and  C_4
REMARK    4  A    between atoms: C_4  and  C_5
REMARK    5  A    between atoms: N_9  and  C_13
REMARK    6  A    between atoms: C_16  and  N_19
REMARK                            x       y       z     vdW  Elec       q    Type
REMARK                         _______ _______ _______ _____ _____    ______ ____
ROOT
ATOM      1  C   UNL     1       1.502  -2.548   2.461  0.00  0.00    +0.161 C 
ATOM      2  C   UNL     1       1.477  -4.063   2.506  0.00  0.00    +0.248 C 
ATOM      3  O   UNL     1       0.499  -4.777   2.559  0.00  0.00    -0.273 OA
ATOM      4  N   UNL     1       2.767  -4.450   2.472  0.00  0.00    -0.193 N 
ATOM      5  C   UNL     1       3.596  -3.401   2.413  0.00  0.00    +0.314 C 
ATOM      6  O   UNL     1       4.807  -3.499   2.374  0.00  0.00    -0.252 OA
ATOM      7  N   UNL     1       2.938  -2.224   2.404  0.00  0.00    -0.287 N 
ATOM      8  H   UNL     1       3.331  -1.338   2.365  0.00  0.00    +0.151 HD
ENDROOT
BRANCH   4   9
ATOM      9  C   UNL     1       3.190  -5.789   2.497  0.00  0.00    +0.046 A 
ATOM     10  C   UNL     1       4.534  -6.095   2.338  0.00  0.00    +0.026 A 
ATOM     11  C   UNL     1       4.950  -7.411   2.363  0.00  0.00    +0.024 A 
ATOM     12  C   UNL     1       4.023  -8.429   2.547  0.00  0.00    +0.025 A 
ATOM     13  C   UNL     1       2.678  -8.122   2.707  0.00  0.00    +0.024 A 
ATOM     14  C   UNL     1       2.264  -6.805   2.687  0.00  0.00    +0.026 A 
BRANCH  12  15
ATOM     15  N   UNL     1       4.444  -9.762   2.572  0.00  0.00    -0.358 N 
ATOM     16  H   UNL     1       5.383  -9.977   2.460  0.00  0.00    +0.142 HD
ATOM     17  H   UNL     1       3.796 -10.473   2.701  0.00  0.00    +0.142 HD
ENDBRANCH  12  15
ENDBRANCH   4   9
BRANCH   1  18
ATOM     18  C   UNL     1       0.784  -2.034   1.211  0.00  0.00    +0.032 C 
BRANCH  18  19
ATOM     19  C   UNL     1       0.763  -0.504   1.228  0.00  0.00    +0.002 C 
BRANCH  19  21
ATOM     20  C   UNL     1       0.024   1.539  -0.005  0.00  0.00    +0.004 C 
ATOM     21  C   UNL     1       0.045   0.009  -0.022  0.00  0.00    -0.003 C 
ENDBRANCH  19  21
ENDBRANCH  18  19
ENDBRANCH   1  18
TORSDOF 5
