REMARK  Name = ZINC08876820
REMARK  11 active torsions:
REMARK  status: ('A' for Active; 'I' for Inactive)
REMARK    1  A    between atoms: C_1  and  C_2
REMARK    2  A    between atoms: C_9  and  C_18
REMARK    3  A    between atoms: C_12  and  C_14
REMARK    4  A    between atoms: C_14  and  C_15
REMARK    5  A    between atoms: C_15  and  S_16
REMARK    6  A    between atoms: S_16  and  C_17
REMARK    7  A    between atoms: N_20  and  C_21
REMARK    8  A    between atoms: C_23  and  O_29
REMARK    9  A    between atoms: C_26  and  O_27
REMARK   10  A    between atoms: O_27  and  C_28
REMARK   11  A    between atoms: O_29  and  C_30
REMARK                            x       y       z     vdW  Elec       q    Type
REMARK                         _______ _______ _______ _____ _____    ______ ____
ROOT
ATOM      1  C   UNL     1       4.023   7.979  -0.504  0.00  0.00    +0.044 C 
ATOM      2  C   UNL     1       2.598   8.312  -0.867  0.00  0.00    -0.050 A 
ATOM      3  C   UNL     1       2.332   9.146  -1.937  0.00  0.00    +0.005 A 
ATOM      4  C   UNL     1       1.030   9.454  -2.274  0.00  0.00    +0.024 A 
ATOM      5  C   UNL     1      -0.027   8.925  -1.538  0.00  0.00    +0.036 A 
ATOM      6  C   UNL     1       0.253   8.086  -0.464  0.00  0.00    -0.027 A 
ATOM      7  C   UNL     1       1.553   7.782  -0.130  0.00  0.00    +0.008 A 
ATOM      8  C   UNL     1      -1.081   7.690   0.112  0.00  0.00    +0.049 C 
ATOM      9  C   UNL     1      -1.274   6.167   0.041  0.00  0.00    +0.076 C 
ATOM     10  C   UNL     1      -2.050   5.857   1.350  0.00  0.00    -0.004 C 
ATOM     11  C   UNL     1      -1.432   6.884   2.333  0.00  0.00    -0.068 C 
ATOM     12  C   UNL     1      -2.096   8.396  -0.750  0.00  0.00    +0.211 C 
ATOM     13  O   UNL     1      -3.302   8.350  -0.631  0.00  0.00    -0.277 OA
ATOM     14  N   UNL     1      -1.407   9.085  -1.678  0.00  0.00    -0.286 N 
ATOM     15  H   UNL     1      -1.821   9.630  -2.366  0.00  0.00    +0.155 HD
ATOM     16  N   UNL     1      -1.200   8.089   1.514  0.00  0.00    +0.394 N 
ATOM     17  H   UNL     1      -1.990   8.737   1.622  0.00  0.00    -0.083 HD
ATOM     18  H   UNL     1      -0.335   8.550   1.816  0.00  0.00    -0.083 HD
ENDROOT
BRANCH   9  19
ATOM     19  C   UNL     1       0.057   5.460   0.029  0.00  0.00    +0.220 C 
ATOM     20  O   UNL     1       0.591   5.156   1.074  0.00  0.00    -0.275 OA
ATOM     21  N   UNL     1       0.653   5.166  -1.143  0.00  0.00    -0.282 N 
ATOM     22  H   UNL     1       0.267   5.479  -1.976  0.00  0.00    +0.155 HD
BRANCH  21  23
ATOM     23  C   UNL     1       1.831   4.407  -1.159  0.00  0.00    +0.079 A 
ATOM     24  C   UNL     1       2.115   3.543  -0.112  0.00  0.00    +0.072 A 
ATOM     25  C   UNL     1       3.281   2.793  -0.131  0.00  0.00    +0.122 A 
ATOM     26  C   UNL     1       4.163   2.907  -1.196  0.00  0.00    +0.049 A 
ATOM     27  C   UNL     1       3.880   3.764  -2.243  0.00  0.00    +0.051 A 
ATOM     28  C   UNL     1       2.719   4.519  -2.227  0.00  0.00    +0.141 A 
BRANCH  28  29
ATOM     29  O   UNL     1       2.443   5.366  -3.255  0.00  0.00    -0.493 OA
ATOM     30  C   UNL     1       3.398   5.431  -4.316  0.00  0.00    +0.277 C 
ENDBRANCH  28  29
BRANCH  25  31
ATOM     31  O   UNL     1       3.560   1.946   0.895  0.00  0.00    -0.495 OA
ATOM     32  C   UNL     1       4.779   1.204   0.811  0.00  0.00    +0.277 C 
ENDBRANCH  25  31
ENDBRANCH  21  23
ENDBRANCH   9  19
BRANCH  11  33
ATOM     33  C   UNL     1      -2.410   7.187   3.470  0.00  0.00    -0.005 C 
BRANCH  33  34
ATOM     34  C   UNL     1      -1.735   8.103   4.492  0.00  0.00    +0.067 C 
BRANCH  34  35
ATOM     35  S   UNL     1      -2.894   8.463   5.841  0.00  0.00    -0.164 S 
ATOM     36  C   UNL     1      -1.953   9.545   6.952  0.00  0.00    +0.084 C 
ENDBRANCH  34  35
ENDBRANCH  33  34
ENDBRANCH  11  33
TORSDOF 7
