REMARK  Name = ZINC03081149
REMARK  9 active torsions:
REMARK  status: ('A' for Active; 'I' for Inactive)
REMARK    1  A    between atoms: C_3  and  C_20
REMARK    2  A    between atoms: C_5  and  O_7
REMARK    3  A    between atoms: O_7  and  C_8
REMARK    4  A    between atoms: C_11  and  N_17
REMARK    5  A    between atoms: C_13  and  N_14
REMARK    6  A    between atoms: N_21  and  N_22
REMARK    7  A    between atoms: C_23  and  C_25
REMARK    8  A    between atoms: C_25  and  N_26
REMARK    9  A    between atoms: C_27  and  C_29
REMARK                            x       y       z     vdW  Elec       q    Type
REMARK                         _______ _______ _______ _____ _____    ______ ____
ROOT
ATOM      1  C   UNL     1       8.950   5.459  -0.094  0.00  0.00    +0.004 A 
ATOM      2  C   UNL     1       7.928   4.535  -0.018  0.00  0.00    +0.010 A 
ATOM      3  C   UNL     1       8.223   3.171   0.035  0.00  0.00    -0.002 A 
ATOM      4  C   UNL     1       9.554   2.749   0.015  0.00  0.00    +0.055 A 
ATOM      5  C   UNL     1      10.571   3.685  -0.067  0.00  0.00    +0.129 A 
ATOM      6  C   UNL     1      10.267   5.040  -0.119  0.00  0.00    +0.046 A 
ENDROOT
BRANCH   3   7
ATOM      7  C   UNL     1       7.134   2.180   0.118  0.00  0.00    +0.138 C 
ATOM      8  N   UNL     1       5.898   2.575   0.142  0.00  0.00    -0.188 NA
BRANCH   8   9
ATOM      9  N   UNL     1       4.863   1.634   0.220  0.00  0.00    -0.206 N 
ATOM     10  C   UNL     1       3.580   2.044   0.245  0.00  0.00    +0.249 C 
ATOM     11  O   UNL     1       3.320   3.228   0.199  0.00  0.00    -0.272 OA
ATOM     12  H   UNL     1       5.071   0.687   0.257  0.00  0.00    +0.177 HD
BRANCH  10  13
ATOM     13  C   UNL     1       2.467   1.032   0.330  0.00  0.00    +0.202 C 
BRANCH  13  14
ATOM     14  N   UNL     1       1.176   1.725   0.342  0.00  0.00    -0.303 N 
ATOM     15  C   UNL     1       0.031   1.017   0.413  0.00  0.00    +0.244 C 
ATOM     16  O   UNL     1       0.070  -0.197   0.468  0.00  0.00    -0.270 OA
ATOM     17  H   UNL     1       1.145   2.693   0.298  0.00  0.00    +0.150 HD
BRANCH  15  18
ATOM     18  C   UNL     1      -1.271   1.716   0.419  0.00  0.00    +0.037 A 
ATOM     19  C   UNL     1      -1.318   3.110   0.362  0.00  0.00    +0.014 A 
ATOM     20  C   UNL     1      -2.536   3.756   0.363  0.00  0.00    +0.021 A 
ATOM     21  C   UNL     1      -3.711   3.025   0.431  0.00  0.00    +0.041 A 
ATOM     22  C   UNL     1      -3.670   1.642   0.493  0.00  0.00    +0.021 A 
ATOM     23  C   UNL     1      -2.458   0.985   0.487  0.00  0.00    +0.014 A 
ATOM     24 CL   UNL     1      -5.240   3.846   0.437  0.00  0.00    -0.084 Cl
ENDBRANCH  15  18
ENDBRANCH  13  14
ENDBRANCH  10  13
ENDBRANCH   8   9
ENDBRANCH   3   7
BRANCH   5  25
ATOM     25  O   UNL     1      11.867   3.279  -0.091  0.00  0.00    -0.454 OA
BRANCH  25  26
ATOM     26  C   UNL     1      12.303   2.603  -1.186  0.00  0.00    +0.159 A 
ATOM     27  C   UNL     1      11.474   2.458  -2.289  0.00  0.00    +0.051 A 
ATOM     28  C   UNL     1      11.920   1.770  -3.401  0.00  0.00    +0.036 A 
ATOM     29  C   UNL     1      13.191   1.226  -3.416  0.00  0.00    +0.129 A 
ATOM     30  C   UNL     1      14.020   1.369  -2.318  0.00  0.00    +0.069 A 
ATOM     31  C   UNL     1      13.581   2.061  -1.206  0.00  0.00    +0.170 A 
BRANCH  31  32
ATOM     32  N   UNL     1      14.470   2.220  -0.033  0.00  0.00    +0.060 N 
ATOM     33  O   UNL     1      15.591   1.744  -0.051  0.00  0.00    -0.126 OA
ATOM     34  O   UNL     1      14.081   2.825   0.949  0.00  0.00    -0.126 OA
ENDBRANCH  31  32
BRANCH  29  35
ATOM     35  N   UNL     1      13.667   0.490  -4.609  0.00  0.00    +0.057 N 
ATOM     36  O   UNL     1      12.938   0.363  -5.576  0.00  0.00    -0.126 OA
ATOM     37  O   UNL     1      14.786   0.011  -4.622  0.00  0.00    -0.126 OA
ENDBRANCH  29  35
ENDBRANCH  25  26
ENDBRANCH   5  25
TORSDOF 9
