REMARK  Name = ZINC38777182
REMARK  11 active torsions:
REMARK  status: ('A' for Active; 'I' for Inactive)
REMARK    1  A    between atoms: C_1  and  C_2
REMARK    2  A    between atoms: C_4  and  C_8
REMARK    3  A    between atoms: C_12  and  C_15
REMARK    4  A    between atoms: C_17  and  C_25
REMARK    5  A    between atoms: C_19  and  C_21
REMARK    6  A    between atoms: C_21  and  C_22
REMARK    7  A    between atoms: C_21  and  C_23
REMARK    8  A    between atoms: C_21  and  C_24
REMARK    9  A    between atoms: C_25  and  C_26
REMARK   10  A    between atoms: C_25  and  C_27
REMARK   11  A    between atoms: C_25  and  C_28
REMARK                            x       y       z     vdW  Elec       q    Type
REMARK                         _______ _______ _______ _____ _____    ______ ____
ROOT
ATOM      1  C   UNL     1      -3.653  -5.245   1.528  0.00  0.00    -0.003 A 
ATOM      2  C   UNL     1      -4.578  -4.738   0.634  0.00  0.00    +0.011 A 
ATOM      3  C   UNL     1      -5.569  -5.556   0.127  0.00  0.00    -0.041 A 
ATOM      4  C   UNL     1      -5.636  -6.882   0.513  0.00  0.00    +0.008 A 
ATOM      5  C   UNL     1      -4.711  -7.389   1.406  0.00  0.00    -0.041 A 
ATOM      6  C   UNL     1      -3.717  -6.571   1.911  0.00  0.00    +0.011 A 
ENDROOT
BRANCH   1  10
ATOM      7  C   UNL     1      -0.964  -2.951   1.248  0.00  0.00    +0.232 C 
ATOM      8  N   UNL     1      -0.368  -4.312   1.268  0.00  0.00    -0.225 NA
ATOM      9  N   UNL     1      -1.286  -5.079   2.118  0.00  0.00    -0.223 NA
ATOM     10  C   UNL     1      -2.572  -4.352   2.081  0.00  0.00    +0.233 C 
ATOM     11  O   UNL     1      -2.386  -3.210   1.222  0.00  0.00    -0.335 OA
ATOM     12  H   UNL     1      -0.325  -4.702   0.339  0.00  0.00    +0.143 HD
ATOM     13  H   UNL     1      -0.935  -5.146   3.061  0.00  0.00    +0.144 HD
BRANCH   7  17
ATOM     14  C   UNL     1      -0.018   1.503   0.010  0.00  0.00    +0.067 C 
ATOM     15  C   UNL     1       0.002  -0.004   0.002  0.00  0.00    +0.058 C 
ATOM     16  C   UNL     1      -1.086  -0.777   0.003  0.00  0.00    +0.030 C 
ATOM     17  C   UNL     1      -0.531  -2.190  -0.007  0.00  0.00    +0.197 C 
ATOM     18  N   UNL     1       0.926  -1.973  -0.013  0.00  0.00    -0.176 NA
ATOM     19  N   UNL     1       1.125  -0.756  -0.013  0.00  0.00    -0.159 NA
ENDBRANCH   7  17
ENDBRANCH   1  10
BRANCH   5  20
ATOM     20  C   UNL     1      -4.784  -8.834   1.828  0.00  0.00    -0.013 C 
ATOM     21  C   UNL     1      -4.640  -9.732   0.597  0.00  0.00    +0.015 C 
ATOM     22  C   UNL     1      -3.653  -9.136   2.814  0.00  0.00    +0.015 C 
ATOM     23  C   UNL     1      -6.132  -9.102   2.500  0.00  0.00    +0.015 C 
ENDBRANCH   5  20
BRANCH   3  24
ATOM     24  C   UNL     1      -6.578  -5.004  -0.847  0.00  0.00    -0.013 C 
ATOM     25  C   UNL     1      -6.282  -3.525  -1.103  0.00  0.00    +0.015 C 
ATOM     26  C   UNL     1      -6.491  -5.777  -2.164  0.00  0.00    +0.015 C 
ATOM     27  C   UNL     1      -7.984  -5.149  -0.262  0.00  0.00    +0.015 C 
ENDBRANCH   3  24
TORSDOF 4
