REMARK  Name = ZINC36244655
REMARK  4 active torsions:
REMARK  status: ('A' for Active; 'I' for Inactive)
REMARK    1  A    between atoms: C_3  and  C_6
REMARK    2  A    between atoms: C_7  and  C_19
REMARK    3  A    between atoms: C_10  and  C_15
REMARK    4  A    between atoms: C_19  and  N_20
REMARK                            x       y       z     vdW  Elec       q    Type
REMARK                         _______ _______ _______ _____ _____    ______ ____
ROOT
ATOM      1  C   UNL     1       3.741   1.825  -0.024  0.00  0.00    +0.098 A 
ATOM      2  C   UNL     1       4.805   1.234   0.592  0.00  0.00    +0.034 A 
ATOM      3  N   UNL     1       5.900   2.011   0.334  0.00  0.00    -0.304 N 
ATOM      4  C   UNL     1       7.212   1.900   0.696  0.00  0.00    +0.105 A 
ATOM      5  C   UNL     1       8.114   2.823   0.301  0.00  0.00    +0.071 A 
ATOM      6  C   UNL     1       7.714   3.913  -0.490  0.00  0.00    +0.017 A 
ATOM      7  C   UNL     1       6.410   4.036  -0.857  0.00  0.00    +0.047 A 
ATOM      8  C   UNL     1       5.479   3.064  -0.437  0.00  0.00    +0.138 A 
ATOM      9  N   UNL     1       4.177   2.932  -0.648  0.00  0.00    -0.227 NA
ENDROOT
BRANCH   1  12
ATOM     10  C   UNL     1      -0.016   1.353   0.009  0.00  0.00    +0.008 A 
ATOM     11  C   UNL     1       1.178   2.041   0.002  0.00  0.00    +0.018 A 
ATOM     12  C   UNL     1       2.347   1.329  -0.013  0.00  0.00    +0.039 A 
ATOM     13  S   UNL     1       1.752  -0.354  -0.017  0.00  0.00    -0.095 S 
ATOM     14  C   UNL     1       0.002  -0.004   0.002  0.00  0.00    +0.046 A 
ENDBRANCH   1  12
BRANCH   5  15
ATOM     15  C   UNL     1       9.558   2.683   0.710  0.00  0.00    +0.419 C 
ATOM     16  F   UNL     1      10.270   2.037  -0.305  0.00  0.00    -0.166 F 
ATOM     17  F   UNL     1      10.105   3.952   0.929  0.00  0.00    -0.166 F 
ATOM     18  F   UNL     1       9.638   1.931   1.887  0.00  0.00    -0.166 F 
ENDBRANCH   5  15
BRANCH   2  19
ATOM     19  C   UNL     1       4.778  -0.035   1.404  0.00  0.00    -0.029 C 
BRANCH  19  20
ATOM     20  N   UNL     1       4.516   0.289   2.812  0.00  0.00    +0.382 N 
ATOM     21  H   UNL     1       4.498  -0.560   3.356  0.00  0.00    -0.090 HD
ATOM     22  H   UNL     1       5.244   0.895   3.159  0.00  0.00    -0.090 HD
ATOM     23  H   UNL     1       3.624   0.756   2.889  0.00  0.00    -0.090 HD
ENDBRANCH  19  20
ENDBRANCH   2  19
TORSDOF 4
