REMARK  Name = ZINC16916844
REMARK  5 active torsions:
REMARK  status: ('A' for Active; 'I' for Inactive)
REMARK    1  A    between atoms: C_1  and  N_2
REMARK    2  A    between atoms: C_3  and  C_5
REMARK    3  A    between atoms: C_9  and  N_10
REMARK    4  A    between atoms: C_11  and  C_13
REMARK    5  A    between atoms: C_15  and  C_23
REMARK                            x       y       z     vdW  Elec       q    Type
REMARK                         _______ _______ _______ _____ _____    ______ ____
ROOT
ATOM      1  N   UNL     1       0.063   4.272  -0.078  0.00  0.00    -0.275 N 
ATOM      2  C   UNL     1       1.213   3.574   0.009  0.00  0.00    +0.249 C 
ATOM      3  O   UNL     1       2.275   4.160   0.094  0.00  0.00    -0.270 OA
ATOM      4  H   UNL     1      -0.784   3.805  -0.146  0.00  0.00    +0.156 HD
ENDROOT
BRANCH   2   5
ATOM      5  C   UNL     1       1.183   2.096   0.002  0.00  0.00    +0.048 A 
ATOM      6  C   UNL     1      -0.017   1.398   0.024  0.00  0.00    +0.042 A 
ATOM      7  C   UNL     1       0.002  -0.004   0.016  0.00  0.00    +0.072 A 
ATOM      8  N   UNL     1       1.124  -0.692  -0.013  0.00  0.00    -0.247 NA
ATOM      9  C   UNL     1       2.321  -0.104  -0.036  0.00  0.00    +0.072 A 
ATOM     10  C   UNL     1       2.417   1.310  -0.029  0.00  0.00    +0.013 A 
ATOM     11  C   UNL     1       3.674   1.923  -0.054  0.00  0.00    +0.011 A 
ATOM     12  C   UNL     1       4.798   1.152  -0.084  0.00  0.00    +0.001 A 
ATOM     13  C   UNL     1       4.711  -0.238  -0.091  0.00  0.00    +0.002 A 
ATOM     14  C   UNL     1       3.504  -0.866  -0.067  0.00  0.00    +0.028 A 
BRANCH   7  15
ATOM     15  C   UNL     1      -1.286  -0.737   0.040  0.00  0.00    +0.000 A 
ATOM     16  C   UNL     1      -2.490  -0.035   0.076  0.00  0.00    +0.010 A 
ATOM     17  C   UNL     1      -3.687  -0.723   0.093  0.00  0.00    +0.001 A 
ATOM     18  C   UNL     1      -3.692  -2.106   0.086  0.00  0.00    +0.000 A 
ATOM     19  C   UNL     1      -2.501  -2.808   0.055  0.00  0.00    +0.001 A 
ATOM     20  C   UNL     1      -1.298  -2.131   0.032  0.00  0.00    +0.010 A 
ENDBRANCH   7  15
ENDBRANCH   2   5
BRANCH   1  25
ATOM     21  C   UNL     1      -0.972   6.540  -0.157  0.00  0.00    +0.069 A 
ATOM     22  C   UNL     1      -0.669   7.970  -0.123  0.00  0.00    -0.023 A 
ATOM     23  C   UNL     1       0.637   8.275  -0.020  0.00  0.00    -0.004 A 
ATOM     24  S   UNL     1       1.465   6.704   0.038  0.00  0.00    -0.077 S 
ATOM     25  C   UNL     1       0.091   5.657  -0.071  0.00  0.00    +0.085 A 
ATOM     26  C   UNL     1       0.869   9.761   0.006  0.00  0.00    +0.043 C 
ATOM     27  C   UNL     1      -0.513  10.365   0.340  0.00  0.00    +0.010 C 
ATOM     28  C   UNL     1      -1.467   9.273  -0.183  0.00  0.00    +0.037 C 
BRANCH  21  31
ATOM     29  C   UNL     1      -4.268   5.359  -1.607  0.00  0.00    +0.128 C 
ATOM     30  N   UNL     1      -2.889   5.840  -1.490  0.00  0.00    -0.314 N 
ATOM     31  C   UNL     1      -2.352   6.058  -0.274  0.00  0.00    +0.246 C 
ATOM     32  O   UNL     1      -3.012   5.855   0.729  0.00  0.00    -0.270 OA
ATOM     33  H   UNL     1      -2.363   6.002  -2.289  0.00  0.00    +0.149 HD
ENDBRANCH  21  31
ENDBRANCH   1  25
TORSDOF 4
