REMARK  Name = ZINC13634199
REMARK  7 active torsions:
REMARK  status: ('A' for Active; 'I' for Inactive)
REMARK    1  A    between atoms: C_1  and  C_2
REMARK    2  A    between atoms: C_2  and  C_3
REMARK    3  A    between atoms: C_3  and  C_4
REMARK    4  A    between atoms: C_4  and  S_5
REMARK    5  A    between atoms: S_5  and  C_6
REMARK    6  A    between atoms: C_18  and  C_20
REMARK    7  A    between atoms: C_18  and  C_21
REMARK                            x       y       z     vdW  Elec       q    Type
REMARK                         _______ _______ _______ _____ _____    ______ ____
ROOT
ATOM      1  C   UNL     1       0.792  -2.345  -1.354  0.00  0.00    +0.211 A 
ATOM      2  N   UNL     1       0.233  -3.020  -0.351  0.00  0.00    -0.183 NA
ATOM      3  C   UNL     1       0.365  -4.325  -0.559  0.00  0.00    +0.254 A 
ATOM      4  N   UNL     1      -0.025  -5.389   0.156  0.00  0.00    -0.215 NA
ATOM      5  C   UNL     1       0.221  -6.614  -0.251  0.00  0.00    +0.058 A 
ATOM      6  C   UNL     1       0.906  -6.813  -1.470  0.00  0.00    +0.057 A 
ATOM      7  C   UNL     1       1.311  -5.715  -2.212  0.00  0.00    +0.129 A 
ATOM      8  N   UNL     1       1.034  -4.481  -1.742  0.00  0.00    -0.202 N 
ATOM      9  N   UNL     1       1.290  -3.193  -2.230  0.00  0.00    -0.137 NA
ATOM     10  C   UNL     1       1.184  -8.176  -1.949  0.00  0.00    +0.167 C 
ATOM     11  O   UNL     1       1.579  -8.378  -3.077  0.00  0.00    -0.292 OA
ATOM     12  C   UNL     1       0.958  -9.318  -0.979  0.00  0.00    +0.086 C 
ATOM     13  C   UNL     1      -0.362  -9.045  -0.246  0.00  0.00    -0.022 C 
ATOM     14  C   UNL     1      -0.227  -7.777   0.592  0.00  0.00    +0.063 C 
ATOM     15  C   UNL     1      -1.485  -8.864  -1.268  0.00  0.00    +0.011 C 
ATOM     16  C   UNL     1      -0.691 -10.227   0.669  0.00  0.00    +0.011 C 
ENDROOT
BRANCH   1  17
ATOM     17  S   UNL     1       0.851  -0.589  -1.490  0.00  0.00    -0.084 S 
BRANCH  17  18
ATOM     18  C   UNL     1       0.002  -0.004   0.002  0.00  0.00    +0.077 C 
BRANCH  18  19
ATOM     19  C   UNL     1      -0.019   1.526   0.010  0.00  0.00    +0.011 C 
BRANCH  19  21
ATOM     20  C   UNL     1      -0.756   3.549   1.278  0.00  0.00    +0.004 C 
ATOM     21  C   UNL     1      -0.735   2.019   1.269  0.00  0.00    -0.003 C 
ENDBRANCH  19  21
ENDBRANCH  18  19
ENDBRANCH  17  18
ENDBRANCH   1  17
TORSDOF 4
