REMARK  Name = ZINC39462155
REMARK  12 active torsions:
REMARK  status: ('A' for Active; 'I' for Inactive)
REMARK    1  A    between atoms: C_1  and  C_2
REMARK    2  A    between atoms: C_2  and  C_3
REMARK    3  A    between atoms: C_3  and  O_4
REMARK    4  A    between atoms: O_4  and  C_5
REMARK    5  A    between atoms: C_14  and  C_15
REMARK    6  A    between atoms: C_15  and  N_16
REMARK    7  A    between atoms: N_16  and  C_17
REMARK    8  A    between atoms: N_16  and  C_18
REMARK    9  A    between atoms: C_18  and  C_19
REMARK   10  A    between atoms: N_21  and  C_22
REMARK   11  A    between atoms: C_27  and  C_32
REMARK   12  A    between atoms: C_33  and  C_36
REMARK                            x       y       z     vdW  Elec       q    Type
REMARK                         _______ _______ _______ _____ _____    ______ ____
ROOT
ATOM      1  N   UNL     1      -0.627  -5.005  -1.608  0.00  0.00    +0.386 N 
ATOM      2  C   UNL     1      -0.693  -5.845  -2.812  0.00  0.00    -0.095 C 
ATOM      3  H   UNL     1      -1.114  -4.138  -1.776  0.00  0.00    -0.081 HD
ENDROOT
BRANCH   1   4
ATOM      4  C   UNL     1       0.778  -4.723  -1.284  0.00  0.00    -0.038 C 
BRANCH   4  14
ATOM      5  C   UNL     1       1.341  -2.529  -2.322  0.00  0.00    +0.122 A 
ATOM      6  C   UNL     1       1.910  -1.746  -3.331  0.00  0.00    +0.046 A 
ATOM      7  C   UNL     1       2.521  -2.320  -4.402  0.00  0.00    +0.012 A 
ATOM      8  C   UNL     1       2.584  -3.721  -4.500  0.00  0.00    -0.017 A 
ATOM      9  C   UNL     1       3.208  -4.347  -5.592  0.00  0.00    +0.008 A 
ATOM     10  C   UNL     1       3.253  -5.706  -5.654  0.00  0.00    +0.001 A 
ATOM     11  C   UNL     1       2.687  -6.489  -4.650  0.00  0.00    +0.001 A 
ATOM     12  C   UNL     1       2.075  -5.918  -3.577  0.00  0.00    +0.009 A 
ATOM     13  C   UNL     1       2.009  -4.517  -3.478  0.00  0.00    -0.013 A 
ATOM     14  C   UNL     1       1.390  -3.893  -2.383  0.00  0.00    -0.015 A 
BRANCH   5  15
ATOM     15  O   UNL     1       0.738  -1.926  -1.265  0.00  0.00    -0.492 OA
BRANCH  15  16
ATOM     16  C   UNL     1       0.718  -0.497  -1.257  0.00  0.00    +0.229 C 
BRANCH  16  18
ATOM     17  C   UNL     1      -0.019   1.526   0.010  0.00  0.00    +0.007 C 
ATOM     18  C   UNL     1       0.002  -0.004   0.002  0.00  0.00    +0.038 C 
ENDBRANCH  16  18
ENDBRANCH  15  16
ENDBRANCH   5  15
ENDBRANCH   4  14
ENDBRANCH   1   4
BRANCH   1  19
ATOM     19  C   UNL     1      -1.257  -5.710  -0.484  0.00  0.00    +0.019 C 
BRANCH  19  20
ATOM     20  C   UNL     1      -2.726  -5.891  -0.764  0.00  0.00    +0.199 C 
ATOM     21  O   UNL     1      -3.202  -5.473  -1.798  0.00  0.00    -0.278 OA
ATOM     22  N   UNL     1      -3.512  -6.517   0.135  0.00  0.00    -0.288 N 
ATOM     23  H   UNL     1      -3.131  -6.851   0.962  0.00  0.00    +0.151 HD
BRANCH  22  24
ATOM     24  C   UNL     1      -4.940  -6.693  -0.137  0.00  0.00    +0.243 C 
ATOM     25  C   UNL     1      -5.424  -7.995   0.446  0.00  0.00    +0.072 A 
ATOM     26  H   UNL     1      -5.268 -11.171   1.125  0.00  0.00    +0.192 HD
ATOM     27  C   UNL     1      -6.624  -7.758   1.055  0.00  0.00    +0.016 A 
ATOM     28  C   UNL     1      -7.280  -8.827   1.677  0.00  0.00    +0.065 A 
ATOM     29  N   UNL     1      -6.745 -10.018   1.666  0.00  0.00    -0.176 NA
ATOM     30  N   UNL     1      -5.619 -10.267   1.101  0.00  0.00    -0.243 N 
ATOM     31  C   UNL     1      -4.910  -9.303   0.477  0.00  0.00    +0.272 A 
ATOM     32  O   UNL     1      -3.842  -9.563  -0.053  0.00  0.00    -0.266 OA
ATOM     33  C   UNL     1      -8.606  -8.603   2.358  0.00  0.00    +0.068 C 
ATOM     34  C   UNL     1      -6.944  -6.295   0.878  0.00  0.00    +0.150 C 
ATOM     35  O   UNL     1      -5.702  -5.659   0.517  0.00  0.00    -0.347 OA
ATOM     36  C   UNL     1      -7.974  -6.112  -0.237  0.00  0.00    +0.043 C 
ENDBRANCH  22  24
ENDBRANCH  19  20
ENDBRANCH   1  19
TORSDOF 8
