REMARK  Name = ZINC65594718
REMARK  9 active torsions:
REMARK  status: ('A' for Active; 'I' for Inactive)
REMARK    1  A    between atoms: C_1  and  N_2
REMARK    2  A    between atoms: N_5  and  C_15
REMARK    3  A    between atoms: C_6  and  C_9
REMARK    4  A    between atoms: C_15  and  C_16
REMARK    5  A    between atoms: C_16  and  C_17
REMARK    6  A    between atoms: C_17  and  N_18
REMARK    7  A    between atoms: C_19  and  C_21
REMARK    8  A    between atoms: C_21  and  C_22
REMARK    9  A    between atoms: C_22  and  C_23
REMARK                            x       y       z     vdW  Elec       q    Type
REMARK                         _______ _______ _______ _____ _____    ______ ____
ROOT
ATOM      1  N   UNL     1      -3.438  -6.511   1.677  0.00  0.00    -0.315 N 
ATOM      2  C   UNL     1      -3.688  -7.834   1.749  0.00  0.00    +0.213 C 
ATOM      3  O   UNL     1      -2.780  -8.630   1.636  0.00  0.00    -0.276 OA
ATOM      4  H   UNL     1      -4.164  -5.875   1.767  0.00  0.00    +0.149 HD
ENDROOT
BRANCH   1   5
ATOM      5  C   UNL     1      -2.069  -6.036   1.462  0.00  0.00    +0.105 C 
BRANCH   5   6
ATOM      6  C   UNL     1      -2.061  -4.506   1.421  0.00  0.00    +0.034 C 
BRANCH   6   7
ATOM      7  C   UNL     1      -0.632  -4.009   1.196  0.00  0.00    +0.086 C 
BRANCH   7  12
ATOM      8  C   UNL     1      -0.018   1.465   0.010  0.00  0.00    -0.096 C 
ATOM      9  N   UNL     1       0.002  -0.004   0.002  0.00  0.00    +0.380 N 
ATOM     10  C   UNL     1      -1.376  -0.512   0.011  0.00  0.00    -0.064 C 
ATOM     11  C   UNL     1      -1.356  -2.042  -0.017  0.00  0.00    +0.066 C 
ATOM     12  N   UNL     1      -0.624  -2.541   1.156  0.00  0.00    -0.299 NA
ATOM     13  C   UNL     1       0.750  -2.020   1.175  0.00  0.00    +0.070 C 
ATOM     14  C   UNL     1       0.713  -0.490   1.192  0.00  0.00    -0.055 C 
ATOM     15  H   UNL     1       0.475  -0.329  -0.828  0.00  0.00    -0.082 HD
BRANCH  13  16
ATOM     16  C   UNL     1       1.461  -2.520   2.405  0.00  0.00    -0.032 A 
ATOM     17  C   UNL     1       0.789  -2.589   3.612  0.00  0.00    +0.005 A 
ATOM     18  C   UNL     1       1.442  -3.048   4.741  0.00  0.00    +0.000 A 
ATOM     19  C   UNL     1       2.765  -3.438   4.664  0.00  0.00    +0.000 A 
ATOM     20  C   UNL     1       3.437  -3.371   3.457  0.00  0.00    +0.000 A 
ATOM     21  C   UNL     1       2.783  -2.916   2.327  0.00  0.00    +0.005 A 
ENDBRANCH  13  16
ENDBRANCH   7  12
ENDBRANCH   6   7
ENDBRANCH   5   6
ENDBRANCH   1   5
BRANCH   2  22
ATOM     22  C   UNL     1      -5.096  -8.323   1.970  0.00  0.00    +0.105 C 
BRANCH  22  23
ATOM     23  C   UNL     1      -5.103  -9.853   2.011  0.00  0.00    +0.105 C 
BRANCH  23  24
ATOM     24  C   UNL     1      -6.511 -10.342   2.232  0.00  0.00    +0.221 C 
ATOM     25  O   UNL     1      -7.420  -9.546   2.345  0.00  0.00    -0.275 OA
ATOM     26  N   UNL     1      -6.761 -11.665   2.304  0.00  0.00    -0.261 N 
ATOM     27  C   UNL     1      -5.678 -12.650   2.177  0.00  0.00    +0.209 C 
ATOM     28  C   UNL     1      -6.150 -13.792   1.313  0.00  0.00    +0.235 C 
ATOM     29  O   UNL     1      -5.347 -14.415   0.652  0.00  0.00    -0.274 OA
ATOM     30  N   UNL     1      -7.453 -14.127   1.266  0.00  0.00    -0.283 N 
ATOM     31  C   UNL     1      -8.407 -13.394   1.980  0.00  0.00    +0.055 A 
ATOM     32  C   UNL     1      -8.064 -12.145   2.509  0.00  0.00    +0.058 A 
ATOM     33  C   UNL     1      -8.995 -11.406   3.216  0.00  0.00    +0.025 A 
ATOM     34  C   UNL     1     -10.271 -11.909   3.405  0.00  0.00    +0.002 A 
ATOM     35  C   UNL     1     -10.614 -13.146   2.890  0.00  0.00    +0.002 A 
ATOM     36  C   UNL     1      -9.686 -13.891   2.171  0.00  0.00    +0.025 A 
ATOM     37  H   UNL     1      -7.734 -14.887   0.732  0.00  0.00    +0.155 HD
ENDBRANCH  23  24
ENDBRANCH  22  23
ENDBRANCH   2  22
TORSDOF 8
