REMARK  Name = ZINC58382232
REMARK  5 active torsions:
REMARK  status: ('A' for Active; 'I' for Inactive)
REMARK    1  A    between atoms: C_1  and  C_2
REMARK    2  A    between atoms: C_4  and  C_10
REMARK    3  A    between atoms: C_5  and  O_9
REMARK    4  A    between atoms: N_15  and  C_18
REMARK    5  A    between atoms: C_23  and  N_24
REMARK                            x       y       z     vdW  Elec       q    Type
REMARK                         _______ _______ _______ _____ _____    ______ ____
ROOT
ATOM      1  C   UNL     1       0.028  -2.813  -2.487  0.00  0.00    +0.250 C 
ATOM      2  O   UNL     1       0.150  -4.023  -2.495  0.00  0.00    -0.270 OA
ATOM      3  N   UNL     1      -0.089  -2.140  -3.649  0.00  0.00    -0.294 N 
ATOM      4  C   UNL     1      -0.104  -0.671  -3.664  0.00  0.00    +0.127 C 
ATOM      5  C   UNL     1       1.001  -0.179  -4.607  0.00  0.00    +0.124 C 
ATOM      6  N   UNL     1       0.887  -0.902  -5.882  0.00  0.00    -0.325 N 
ATOM      7  C   UNL     1       0.903  -2.371  -5.866  0.00  0.00    +0.124 C 
ATOM      8  C   UNL     1      -0.197  -2.863  -4.924  0.00  0.00    +0.127 C 
ENDROOT
BRANCH   1  12
ATOM      9  C   UNL     1      -2.205   0.391   0.613  0.00  0.00    +0.044 C 
ATOM     10  C   UNL     1      -1.064  -0.539   0.292  0.00  0.00    -0.048 A 
ATOM     11  C   UNL     1      -1.050  -1.219  -0.907  0.00  0.00    +0.020 A 
ATOM     12  C   UNL     1       0.007  -2.082  -1.206  0.00  0.00    +0.080 A 
ATOM     13  C   UNL     1       1.048  -2.249  -0.282  0.00  0.00    +0.143 A 
ATOM     14  C   UNL     1       1.018  -1.556   0.920  0.00  0.00    +0.060 A 
ATOM     15  C   UNL     1      -0.031  -0.702   1.200  0.00  0.00    +0.022 A 
ATOM     16 BR   UNL     1       2.418  -1.776   2.172  0.00  0.00    -0.046 Br
BRANCH  13  17
ATOM     17  O   UNL     1       2.080  -3.084  -0.562  0.00  0.00    -0.505 OA
ATOM     18  H   UNL     1       2.819  -2.658  -1.018  0.00  0.00    +0.292 HD
ENDBRANCH  13  17
ENDBRANCH   1  12
BRANCH   6  19
ATOM     19  C   UNL     1       0.766  -0.205  -7.086  0.00  0.00    +0.060 A 
ATOM     20  C   UNL     1       1.903   0.150  -7.803  0.00  0.00    +0.025 A 
ATOM     21  C   UNL     1       1.779   0.838  -8.993  0.00  0.00    +0.002 A 
ATOM     22  C   UNL     1       0.526   1.176  -9.472  0.00  0.00    +0.002 A 
ATOM     23  C   UNL     1      -0.606   0.825  -8.761  0.00  0.00    +0.034 A 
ATOM     24  C   UNL     1      -0.490   0.131  -7.572  0.00  0.00    +0.147 A 
BRANCH  24  25
ATOM     25  N   UNL     1      -1.704  -0.249  -6.815  0.00  0.00    +0.058 N 
ATOM     26  O   UNL     1      -2.798   0.043  -7.240  0.00  0.00    -0.126 OA
ATOM     27  O   UNL     1      -1.602  -0.853  -5.772  0.00  0.00    -0.126 OA
ENDBRANCH  24  25
ENDBRANCH   6  19
TORSDOF 4
