REMARK  Name = ZINC35293139
REMARK  5 active torsions:
REMARK  status: ('A' for Active; 'I' for Inactive)
REMARK    1  A    between atoms: C_3  and  N_30
REMARK    2  A    between atoms: C_6  and  C_7
REMARK    3  A    between atoms: C_9  and  C_19
REMARK    4  A    between atoms: N_10  and  C_12
REMARK    5  A    between atoms: C_24  and  C_27
REMARK                            x       y       z     vdW  Elec       q    Type
REMARK                         _______ _______ _______ _____ _____    ______ ____
ROOT
ATOM      1  C   UNL     1      -1.282  -0.907   0.466  0.00  0.00    +0.094 A 
ATOM      2  C   UNL     1      -1.638  -2.204   0.879  0.00  0.00    +0.063 A 
ATOM      3  C   UNL     1      -2.922  -2.399   0.405  0.00  0.00    +0.130 A 
ATOM      4  N   UNL     1      -3.271  -1.249  -0.251  0.00  0.00    -0.227 N 
ATOM      5  N   UNL     1      -2.305  -0.404  -0.194  0.00  0.00    -0.166 NA
ENDROOT
BRANCH   3   6
ATOM      6  C   UNL     1      -3.750  -3.604   0.571  0.00  0.00    +0.265 C 
ATOM      7  O   UNL     1      -4.963  -3.511   0.583  0.00  0.00    -0.268 OA
ATOM      8  N   UNL     1      -3.164  -4.809   0.710  0.00  0.00    -0.296 N 
ATOM      9  C   UNL     1      -1.700  -4.935   0.709  0.00  0.00    +0.109 C 
ATOM     10  C   UNL     1      -1.295  -5.969  -0.346  0.00  0.00    +0.032 C 
ATOM     11  C   UNL     1      -2.038  -7.280  -0.082  0.00  0.00    +0.078 C 
ATOM     12  C   UNL     1      -3.547  -7.045  -0.191  0.00  0.00    +0.032 C 
ATOM     13  C   UNL     1      -3.977  -6.022   0.872  0.00  0.00    +0.109 C 
BRANCH  11  14
ATOM     14  C   UNL     1      -1.617  -8.310  -1.098  0.00  0.00    +0.214 C 
ATOM     15  O   UNL     1      -0.802  -8.024  -1.949  0.00  0.00    -0.276 OA
ATOM     16  N   UNL     1      -2.145  -9.550  -1.060  0.00  0.00    -0.329 N 
ATOM     17  H   UNL     1      -2.796  -9.779  -0.379  0.00  0.00    +0.145 HD
ATOM     18  H   UNL     1      -1.873 -10.213  -1.714  0.00  0.00    +0.145 HD
ENDBRANCH  11  14
ENDBRANCH   3   6
BRANCH   4  19
ATOM     19  C   UNL     1      -4.499  -1.024  -0.884  0.00  0.00    +0.066 A 
ATOM     20  C   UNL     1      -5.072  -2.021  -1.664  0.00  0.00    +0.029 A 
ATOM     21  C   UNL     1      -6.284  -1.797  -2.287  0.00  0.00    +0.022 A 
ATOM     22  C   UNL     1      -6.928  -0.582  -2.135  0.00  0.00    +0.041 A 
ATOM     23  C   UNL     1      -6.359   0.413  -1.359  0.00  0.00    +0.022 A 
ATOM     24  C   UNL     1      -5.150   0.193  -0.730  0.00  0.00    +0.029 A 
ATOM     25 CL   UNL     1      -8.451  -0.304  -2.921  0.00  0.00    -0.084 Cl
ENDBRANCH   4  19
BRANCH   1  31
ATOM     26  C   UNL     1       0.227   1.068   0.265  0.00  0.00    +0.012 A 
ATOM     27  C   UNL     1       1.430   1.696   0.514  0.00  0.00    +0.033 A 
ATOM     28  C   UNL     1       2.420   1.042   1.225  0.00  0.00    +0.126 A 
ATOM     29  C   UNL     1       2.210  -0.244   1.690  0.00  0.00    +0.033 A 
ATOM     30  C   UNL     1       1.011  -0.881   1.446  0.00  0.00    +0.012 A 
ATOM     31  C   UNL     1       0.010  -0.227   0.731  0.00  0.00    +0.002 A 
BRANCH  28  32
ATOM     32  N   UNL     1       3.709   1.720   1.489  0.00  0.00    +0.056 N 
ATOM     33  O   UNL     1       3.895   2.844   1.083  0.00  0.00    -0.126 OA
ATOM     34  O   UNL     1       4.576   1.151   2.110  0.00  0.00    -0.126 OA
ENDBRANCH  28  32
ENDBRANCH   1  31
TORSDOF 5
