REMARK  Name = ZINC01373335
REMARK  11 active torsions:
REMARK  status: ('A' for Active; 'I' for Inactive)
REMARK    1  A    between atoms: C_1  and  C_2
REMARK    2  A    between atoms: C_2  and  C_3
REMARK    3  A    between atoms: C_10  and  C_15
REMARK    4  A    between atoms: C_15  and  N_16
REMARK    5  A    between atoms: N_16  and  C_17
REMARK    6  A    between atoms: N_16  and  C_25
REMARK    7  A    between atoms: C_17  and  C_18
REMARK    8  A    between atoms: C_21  and  C_24
REMARK    9  A    between atoms: C_25  and  C_26
REMARK   10  A    between atoms: N_30  and  C_31
REMARK   11  A    between atoms: C_31  and  C_32
REMARK                            x       y       z     vdW  Elec       q    Type
REMARK                         _______ _______ _______ _____ _____    ______ ____
ROOT
ATOM      1  N   UNL     1      -5.946  -3.709  -3.995  0.00  0.00    -0.287 NA
ENDROOT
BRANCH   1   2
ATOM      2  C   UNL     1      -6.448  -2.446  -3.437  0.00  0.00    +0.125 C 
BRANCH   2  10
ATOM      3  C   UNL     1      -3.016  -0.616   1.376  0.00  0.00    -0.047 A 
ATOM      4  C   UNL     1      -3.747  -1.282   2.350  0.00  0.00    +0.005 A 
ATOM      5  C   UNL     1      -4.849  -2.036   2.010  0.00  0.00    +0.026 A 
ATOM      6  C   UNL     1      -5.235  -2.133   0.677  0.00  0.00    +0.049 A 
ATOM      7  C   UNL     1      -4.492  -1.456  -0.308  0.00  0.00    -0.001 A 
ATOM      8  C   UNL     1      -3.380  -0.692   0.061  0.00  0.00    +0.013 A 
ATOM      9  C   UNL     1      -4.906  -1.563  -1.708  0.00  0.00    +0.020 A 
ATOM     10  C   UNL     1      -5.995  -2.314  -2.005  0.00  0.00    +0.031 A 
ATOM     11  C   UNL     1      -6.706  -2.973  -0.979  0.00  0.00    +0.254 A 
ATOM     12  O   UNL     1      -7.682  -3.643  -1.269  0.00  0.00    -0.268 OA
ATOM     13  N   UNL     1      -6.333  -2.880   0.309  0.00  0.00    -0.322 N 
ATOM     14  H   UNL     1      -6.844  -3.346   0.989  0.00  0.00    +0.169 HD
BRANCH   3  16
ATOM     15  C   UNL     1      -2.253   1.638   2.073  0.00  0.00    +0.009 C 
ATOM     16  C   UNL     1      -1.815   0.203   1.772  0.00  0.00    +0.032 C 
ENDBRANCH   3  16
ENDBRANCH   2  10
ENDBRANCH   1   2
BRANCH   1  17
ATOM     17  C   UNL     1      -4.545  -3.578  -4.417  0.00  0.00    +0.120 C 
BRANCH  17  18
ATOM     18  C   UNL     1      -4.440  -2.526  -5.491  0.00  0.00    -0.033 A 
ATOM     19  C   UNL     1      -4.701  -2.855  -6.808  0.00  0.00    +0.005 A 
ATOM     20  C   UNL     1      -4.604  -1.891  -7.793  0.00  0.00    +0.003 A 
ATOM     21  C   UNL     1      -4.247  -0.597  -7.462  0.00  0.00    -0.050 A 
ATOM     22  C   UNL     1      -3.988  -0.268  -6.144  0.00  0.00    +0.003 A 
ATOM     23  C   UNL     1      -4.089  -1.231  -5.158  0.00  0.00    +0.005 A 
ATOM     24  C   UNL     1      -4.141   0.455  -8.536  0.00  0.00    +0.044 C 
ENDBRANCH  17  18
ENDBRANCH   1  17
BRANCH   1  25
ATOM     25  C   UNL     1      -6.790  -4.165  -5.107  0.00  0.00    +0.163 C 
BRANCH  25  26
ATOM     26  C   UNL     1      -6.522  -5.623  -5.376  0.00  0.00    +0.166 A 
ATOM     27  N   UNL     1      -5.550  -6.119  -6.101  0.00  0.00    -0.112 NA
ATOM     28  N   UNL     1      -5.659  -7.403  -6.089  0.00  0.00    -0.023 NA
ATOM     29  N   UNL     1      -6.676  -7.739  -5.375  0.00  0.00    -0.044 NA
ATOM     30  N   UNL     1      -7.232  -6.670  -4.914  0.00  0.00    -0.224 N 
BRANCH  30  31
ATOM     31  C   UNL     1      -8.414  -6.606  -4.051  0.00  0.00    +0.182 C 
BRANCH  31  32
ATOM     32  C   UNL     1      -9.654  -6.526  -4.904  0.00  0.00    -0.026 A 
ATOM     33  C   UNL     1     -10.149  -5.295  -5.291  0.00  0.00    +0.005 A 
ATOM     34  C   UNL     1     -11.286  -5.221  -6.074  0.00  0.00    +0.000 A 
ATOM     35  C   UNL     1     -11.928  -6.380  -6.469  0.00  0.00    +0.000 A 
ATOM     36  C   UNL     1     -11.433  -7.611  -6.083  0.00  0.00    +0.000 A 
ATOM     37  C   UNL     1     -10.294  -7.684  -5.304  0.00  0.00    +0.005 A 
ENDBRANCH  31  32
ENDBRANCH  30  31
ENDBRANCH  25  26
ENDBRANCH   1  25
TORSDOF 9
