REMARK  Name = ZINC04586051
REMARK  8 active torsions:
REMARK  status: ('A' for Active; 'I' for Inactive)
REMARK    1  A    between atoms: C_1  and  C_2
REMARK    2  A    between atoms: C_5  and  C_28
REMARK    3  A    between atoms: C_6  and  N_8
REMARK    4  A    between atoms: C_9  and  C_11
REMARK    5  A    between atoms: C_11  and  S_12
REMARK    6  A    between atoms: S_12  and  C_13
REMARK    7  A    between atoms: C_16  and  C_23
REMARK    8  A    between atoms: N_17  and  N_18
REMARK                            x       y       z     vdW  Elec       q    Type
REMARK                         _______ _______ _______ _____ _____    ______ ____
ROOT
ATOM      1  C   UNL     1       0.002  -0.003  -0.029  0.00  0.00    +0.212 A 
ATOM      2  N   UNL     1      -0.017   1.311  -0.029  0.00  0.00    -0.120 NA
ATOM      3  N   UNL     1       1.183   1.770  -0.047  0.00  0.00    -0.126 NA
ATOM      4  C   UNL     1       2.044   0.776  -0.061  0.00  0.00    +0.191 A 
ATOM      5  N   UNL     1       1.313  -0.391  -0.050  0.00  0.00    -0.203 N 
ENDROOT
BRANCH   5   6
ATOM      6  N   UNL     1       1.808  -1.701  -0.057  0.00  0.00    -0.259 N 
ATOM      7  C   UNL     1       2.548  -2.276   0.934  0.00  0.00    +0.111 A 
ATOM      8  C   UNL     1       2.833  -3.542   0.566  0.00  0.00    +0.021 A 
ATOM      9  C   UNL     1       2.256  -3.753  -0.702  0.00  0.00    +0.021 A 
ATOM     10  C   UNL     1       1.636  -2.610  -1.058  0.00  0.00    +0.111 A 
ENDBRANCH   5   6
BRANCH   4  11
ATOM     11  C   UNL     1       3.512   0.889  -0.084  0.00  0.00    +0.058 A 
ATOM     12  C   UNL     1       4.290   1.982  -0.372  0.00  0.00    +0.019 A 
ATOM     13  C   UNL     1       5.660   1.847  -0.329  0.00  0.00    +0.008 A 
ATOM     14  C   UNL     1       6.197   0.642  -0.005  0.00  0.00    +0.046 A 
ATOM     15  S   UNL     1       4.742  -0.357   0.263  0.00  0.00    -0.093 S 
ENDBRANCH   4  11
BRANCH   1  16
ATOM     16  S   UNL     1      -1.402  -1.067  -0.007  0.00  0.00    -0.075 S 
BRANCH  16  17
ATOM     17  C   UNL     1      -2.729   0.164   0.014  0.00  0.00    +0.173 C 
BRANCH  17  19
ATOM     18  N   UNL     1      -5.202   0.184   0.053  0.00  0.00    -0.285 N 
ATOM     19  C   UNL     1      -4.064  -0.537   0.035  0.00  0.00    +0.227 C 
ATOM     20  O   UNL     1      -4.112  -1.748   0.036  0.00  0.00    -0.275 OA
ATOM     21  H   UNL     1      -5.164   1.150   0.133  0.00  0.00    +0.155 HD
BRANCH  18  27
ATOM     22  C   UNL     1      -7.851  -3.694  -1.403  0.00  0.00    +0.044 C 
ATOM     23  C   UNL     1      -7.753  -2.342  -0.745  0.00  0.00    -0.049 A 
ATOM     24  C   UNL     1      -8.888  -1.738  -0.236  0.00  0.00    +0.004 A 
ATOM     25  C   UNL     1      -8.802  -0.497   0.369  0.00  0.00    +0.005 A 
ATOM     26  C   UNL     1      -7.582   0.142   0.466  0.00  0.00    -0.029 A 
ATOM     27  C   UNL     1      -6.440  -0.462  -0.044  0.00  0.00    +0.037 A 
ATOM     28  C   UNL     1      -6.530  -1.706  -0.655  0.00  0.00    +0.027 A 
ATOM     29  C   UNL     1      -7.489   1.494   1.125  0.00  0.00    +0.045 C 
ENDBRANCH  18  27
ENDBRANCH  17  19
ENDBRANCH  16  17
ENDBRANCH   1  16
TORSDOF 6
