REMARK  Name = ZINC04331863
REMARK  6 active torsions:
REMARK  status: ('A' for Active; 'I' for Inactive)
REMARK    1  A    between atoms: C_1  and  N_2
REMARK    2  A    between atoms: N_2  and  C_3
REMARK    3  A    between atoms: N_2  and  C_4
REMARK    4  A    between atoms: C_7  and  N_10
REMARK    5  A    between atoms: C_11  and  C_22
REMARK    6  A    between atoms: C_26  and  N_28
REMARK                            x       y       z     vdW  Elec       q    Type
REMARK                         _______ _______ _______ _____ _____    ______ ____
ROOT
ATOM      1  N   UNL     1      -1.279   5.819  -0.647  0.00  0.00    -0.244 N 
ATOM      2  C   UNL     1      -0.092   5.281   0.019  0.00  0.00    +0.198 C 
ATOM      3  N   UNL     1       1.125   5.781  -0.629  0.00  0.00    -0.321 N 
ATOM      4  C   UNL     1       1.181   5.809  -2.018  0.00  0.00    +0.041 A 
ATOM      5  C   UNL     1       2.379   5.698  -2.703  0.00  0.00    +0.024 A 
ATOM      6  C   UNL     1       2.386   5.759  -4.083  0.00  0.00    +0.002 A 
ATOM      7  C   UNL     1       1.205   5.933  -4.787  0.00  0.00    +0.001 A 
ATOM      8  C   UNL     1       0.002   6.040  -4.120  0.00  0.00    +0.015 A 
ATOM      9  C   UNL     1      -0.022   5.968  -2.730  0.00  0.00    +0.058 A 
ATOM     10  C   UNL     1      -1.280   6.072  -1.971  0.00  0.00    +0.254 C 
ATOM     11  O   UNL     1      -2.312   6.385  -2.534  0.00  0.00    -0.270 OA
ATOM     12  H   UNL     1       1.878   6.087  -0.099  0.00  0.00    +0.148 HD
ENDROOT
BRANCH   1  16
ATOM     13  C   UNL     1      -4.715   6.582   1.589  0.00  0.00    +0.029 A 
ATOM     14  C   UNL     1      -3.518   7.203   1.922  0.00  0.00    +0.025 A 
ATOM     15  C   UNL     1      -2.380   6.950   1.181  0.00  0.00    +0.025 A 
ATOM     16  C   UNL     1      -2.433   6.075   0.104  0.00  0.00    +0.039 A 
ATOM     17  C   UNL     1      -3.631   5.458  -0.232  0.00  0.00    +0.025 A 
ATOM     18  C   UNL     1      -4.768   5.707   0.512  0.00  0.00    +0.025 A 
BRANCH  13  20
ATOM     19  C   UNL     1      -5.812   7.760   3.476  0.00  0.00    +0.129 C 
ATOM     20  N   UNL     1      -5.868   6.837   2.340  0.00  0.00    -0.336 N 
ATOM     21  C   UNL     1      -7.130   6.182   1.989  0.00  0.00    +0.129 C 
ENDBRANCH  13  20
ENDBRANCH   1  16
BRANCH   2  22
ATOM     22  C   UNL     1      -0.116   3.776  -0.057  0.00  0.00    -0.007 A 
ATOM     23  C   UNL     1      -1.324   3.105  -0.094  0.00  0.00    +0.007 A 
ATOM     24  C   UNL     1      -1.346   1.725  -0.169  0.00  0.00    +0.003 A 
ATOM     25  C   UNL     1      -0.160   1.015  -0.198  0.00  0.00    +0.033 A 
ATOM     26  C   UNL     1       1.048   1.686  -0.162  0.00  0.00    +0.127 A 
ATOM     27  C   UNL     1       1.070   3.067  -0.091  0.00  0.00    +0.039 A 
BRANCH  26  28
ATOM     28  N   UNL     1       2.318   0.927  -0.198  0.00  0.00    +0.056 N 
ATOM     29  O   UNL     1       2.299  -0.289  -0.260  0.00  0.00    -0.126 OA
ATOM     30  O   UNL     1       3.382   1.518  -0.167  0.00  0.00    -0.126 OA
ENDBRANCH  26  28
ENDBRANCH   2  22
TORSDOF 4
