REMARK  Name = ZINC40003978
REMARK  13 active torsions:
REMARK  status: ('A' for Active; 'I' for Inactive)
REMARK    1  A    between atoms: C_1  and  C_2
REMARK    2  A    between atoms: C_9  and  C_39
REMARK    3  A    between atoms: C_10  and  C_11
REMARK    4  A    between atoms: C_11  and  C_13
REMARK    5  A    between atoms: N_17  and  C_32
REMARK    6  A    between atoms: C_18  and  C_20
REMARK    7  A    between atoms: C_22  and  O_30
REMARK    8  A    between atoms: C_23  and  O_28
REMARK    9  A    between atoms: C_24  and  O_26
REMARK   10  A    between atoms: O_26  and  C_27
REMARK   11  A    between atoms: O_28  and  C_29
REMARK   12  A    between atoms: O_30  and  C_31
REMARK   13  A    between atoms: C_32  and  C_33
REMARK                            x       y       z     vdW  Elec       q    Type
REMARK                         _______ _______ _______ _____ _____    ______ ____
ROOT
ATOM      1  C   UNL     1       0.657  -4.360   5.137  0.00  0.00    +0.078 C 
ATOM      2  C   UNL     1       0.608  -5.710   5.089  0.00  0.00    +0.249 C 
ATOM      3  C   UNL     1       0.499  -6.242   6.461  0.00  0.00    +0.288 C 
ATOM      4  O   UNL     1       0.434  -7.421   6.749  0.00  0.00    -0.266 OA
ATOM      5  N   UNL     1       0.482  -5.229   7.347  0.00  0.00    -0.276 N 
ATOM      6  C   UNL     1       0.585  -3.973   6.596  0.00  0.00    +0.145 C 
ATOM      7  O   UNL     1       0.650  -6.457   3.960  0.00  0.00    -0.282 OA
ENDROOT
BRANCH   6   8
ATOM      8  C   UNL     1       1.831  -3.227   6.997  0.00  0.00    -0.015 A 
ATOM      9  C   UNL     1       3.037  -3.896   7.085  0.00  0.00    +0.055 A 
ATOM     10  C   UNL     1       4.186  -3.214   7.455  0.00  0.00    +0.165 A 
ATOM     11  C   UNL     1       4.124  -1.854   7.735  0.00  0.00    +0.204 A 
ATOM     12  C   UNL     1       2.910  -1.184   7.644  0.00  0.00    +0.165 A 
ATOM     13  C   UNL     1       1.766  -1.873   7.269  0.00  0.00    +0.055 A 
BRANCH  12  14
ATOM     14  O   UNL     1       2.845   0.147   7.918  0.00  0.00    -0.491 OA
ATOM     15  C   UNL     1       1.549   0.750   7.897  0.00  0.00    +0.277 C 
ENDBRANCH  12  14
BRANCH  11  16
ATOM     16  O   UNL     1       5.250  -1.180   8.098  0.00  0.00    -0.488 OA
ATOM     17  C   UNL     1       6.023  -0.596   7.048  0.00  0.00    +0.277 C 
ENDBRANCH  11  16
BRANCH  10  18
ATOM     18  O   UNL     1       5.372  -3.874   7.542  0.00  0.00    -0.491 OA
ATOM     19  C   UNL     1       5.384  -5.242   7.131  0.00  0.00    +0.277 C 
ENDBRANCH  10  18
ENDBRANCH   6   8
BRANCH   1  20
ATOM     20  C   UNL     1       0.767  -3.446   3.993  0.00  0.00    +0.213 C 
ATOM     21  O   UNL     1       1.821  -2.875   3.768  0.00  0.00    -0.285 OA
BRANCH  20  31
ATOM     22  C   UNL     1      -3.381  -1.937  -0.238  0.00  0.00    +0.047 C 
ATOM     23  C   UNL     1      -1.977  -1.883   0.306  0.00  0.00    -0.008 A 
ATOM     24  C   UNL     1      -1.009  -1.187  -0.355  0.00  0.00    +0.008 A 
ATOM     25  C   UNL     1       0.292  -1.146   0.164  0.00  0.00    +0.018 A 
ATOM     26  C   UNL     1       0.583  -1.795   1.315  0.00  0.00    +0.093 A 
ATOM     27  N   UNL     1      -0.376  -2.491   1.981  0.00  0.00    -0.296 N 
ATOM     28  C   UNL     1      -1.655  -2.545   1.504  0.00  0.00    +0.141 A 
ATOM     29  N   UNL     1      -2.391  -3.278   2.339  0.00  0.00    -0.232 NA
ATOM     30  C   UNL     1      -1.644  -3.699   3.345  0.00  0.00    +0.068 A 
ATOM     31  C   UNL     1      -0.351  -3.228   3.151  0.00  0.00    +0.116 A 
ATOM     32  C   UNL     1      -2.110  -4.554   4.495  0.00  0.00    +0.068 C 
ENDBRANCH  20  31
ENDBRANCH   1  20
BRANCH   5  33
ATOM     33  C   UNL     1       0.383  -5.359   8.803  0.00  0.00    +0.183 C 
BRANCH  33  34
ATOM     34  C   UNL     1       1.755  -5.594   9.380  0.00  0.00    +0.122 A 
ATOM     35  C   UNL     1       2.567  -4.650   9.890  0.00  0.00    +0.046 A 
ATOM     36  C   UNL     1       3.744  -5.308  10.315  0.00  0.00    +0.041 A 
ATOM     37  C   UNL     1       3.582  -6.614  10.038  0.00  0.00    +0.195 A 
ATOM     38  O   UNL     1       2.373  -6.783   9.477  0.00  0.00    -0.466 OA
ENDBRANCH  33  34
ENDBRANCH   5  33
TORSDOF 8
