REMARK  Name = ZINC40815686
REMARK  9 active torsions:
REMARK  status: ('A' for Active; 'I' for Inactive)
REMARK    1  A    between atoms: C_1  and  C_2
REMARK    2  A    between atoms: C_4  and  C_32
REMARK    3  A    between atoms: C_6  and  O_8
REMARK    4  A    between atoms: O_8  and  C_9
REMARK    5  A    between atoms: C_9  and  C_11
REMARK    6  A    between atoms: C_12  and  C_31
REMARK    7  A    between atoms: N_20  and  N_21
REMARK    8  A    between atoms: C_22  and  C_24
REMARK    9  A    between atoms: C_24  and  C_25
REMARK                            x       y       z     vdW  Elec       q    Type
REMARK                         _______ _______ _______ _____ _____    ______ ____
ROOT
ATOM      1  C   UNL     1       0.281  -2.771   4.786  0.00  0.00    +0.215 A 
ATOM      2  C   UNL     1       0.384  -2.177   6.014  0.00  0.00    +0.011 A 
ATOM      3  C   UNL     1       0.488  -3.218   6.944  0.00  0.00    +0.042 A 
ATOM      4  C   UNL     1       0.445  -4.402   6.246  0.00  0.00    +0.115 A 
ATOM      5  O   UNL     1       0.312  -4.113   4.954  0.00  0.00    -0.452 OA
ATOM      6  C   UNL     1       0.535  -5.751   6.912  0.00  0.00    +0.075 C 
ATOM      7  C   UNL     1       1.175  -5.594   8.294  0.00  0.00    +0.014 C 
ATOM      8  C   UNL     1       0.439  -4.527   9.112  0.00  0.00    +0.058 C 
ATOM      9  C   UNL     1       0.620  -3.185   8.418  0.00  0.00    +0.070 C 
ATOM     10  N   UNL     1       0.873  -2.092   9.070  0.00  0.00    -0.184 NA
ATOM     11  C   UNL     1       0.387  -0.699   6.306  0.00  0.00    +0.048 C 
ENDROOT
BRANCH  10  12
ATOM     12  N   UNL     1       0.988  -2.120  10.466  0.00  0.00    -0.206 N 
ATOM     13  C   UNL     1       1.250  -0.985  11.143  0.00  0.00    +0.237 C 
ATOM     14  O   UNL     1       1.387   0.061  10.544  0.00  0.00    -0.274 OA
ATOM     15  H   UNL     1       0.878  -2.957  10.945  0.00  0.00    +0.177 HD
BRANCH  13  16
ATOM     16  C   UNL     1       1.374  -1.015  12.645  0.00  0.00    +0.132 C 
BRANCH  16  17
ATOM     17  C   UNL     1       1.667   0.373  13.153  0.00  0.00    -0.039 A 
ATOM     18  C   UNL     1       2.976   0.800  13.279  0.00  0.00    +0.004 A 
ATOM     19  C   UNL     1       3.245   2.074  13.745  0.00  0.00    +0.000 A 
ATOM     20  C   UNL     1       2.205   2.920  14.084  0.00  0.00    +0.000 A 
ATOM     21  C   UNL     1       0.897   2.493  13.956  0.00  0.00    +0.000 A 
ATOM     22  C   UNL     1       0.628   1.221  13.486  0.00  0.00    +0.004 A 
ENDBRANCH  16  17
ENDBRANCH  13  16
ENDBRANCH  10  12
BRANCH   1  23
ATOM     23  C   UNL     1       0.150  -2.071   3.505  0.00  0.00    +0.380 C 
ATOM     24  O   UNL     1       0.133  -0.855   3.475  0.00  0.00    -0.241 OA
BRANCH  23  25
ATOM     25  O   UNL     1       0.050  -2.776   2.359  0.00  0.00    -0.420 OA
BRANCH  25  31
ATOM     26  C   UNL     1       2.460  -0.069  -0.910  0.00  0.00    +0.044 C 
ATOM     27  C   UNL     1       1.206  -0.757  -0.440  0.00  0.00    -0.047 A 
ATOM     28  C   UNL     1       0.053  -0.691  -1.201  0.00  0.00    +0.007 A 
ATOM     29  C   UNL     1      -1.100  -1.321  -0.772  0.00  0.00    -0.047 A 
ATOM     30  C   UNL     1      -1.103  -2.020   0.420  0.00  0.00    +0.049 A 
ATOM     31  C   UNL     1       0.051  -2.089   1.186  0.00  0.00    +0.133 A 
ATOM     32  C   UNL     1       1.209  -1.460   0.750  0.00  0.00    +0.049 A 
ATOM     33  C   UNL     1      -2.354  -1.246  -1.604  0.00  0.00    +0.044 C 
ENDBRANCH  25  31
ENDBRANCH  23  25
ENDBRANCH   1  23
TORSDOF 6
