REMARK  Name = ZINC52334382
REMARK  4 active torsions:
REMARK  status: ('A' for Active; 'I' for Inactive)
REMARK    1  A    between atoms: C_1  and  C_2
REMARK    2  A    between atoms: C_2  and  C_4
REMARK    3  A    between atoms: C_2  and  N_10
REMARK    4  A    between atoms: N_10  and  C_11
REMARK                            x       y       z     vdW  Elec       q    Type
REMARK                         _______ _______ _______ _____ _____    ______ ____
ROOT
ATOM      1  C   UNL     1       2.122  -0.083   1.122  0.00  0.00    +0.052 C 
ATOM      2  C   UNL     1       2.859  -0.506   2.372  0.00  0.00    +0.004 A 
ATOM      3  C   UNL     1       3.858  -1.379   1.960  0.00  0.00    +0.041 A 
ATOM      4  C   UNL     1       4.705  -1.934   2.916  0.00  0.00    +0.062 A 
ATOM      5  C   UNL     1       4.548  -1.617   4.252  0.00  0.00    +0.128 A 
ATOM      6  C   UNL     1       3.549  -0.745   4.651  0.00  0.00    +0.077 A 
ATOM      7  C   UNL     1       2.702  -0.189   3.705  0.00  0.00    +0.130 A 
ATOM      8  F   UNL     1       1.726   0.662   4.088  0.00  0.00    -0.205 F 
ATOM      9  F   UNL     1       5.374  -2.160   5.173  0.00  0.00    -0.205 F 
ATOM     10  N   UNL     1       3.815  -1.541   0.575  0.00  0.00    -0.286 N 
ATOM     11  C   UNL     1       2.832  -0.818   0.005  0.00  0.00    +0.208 C 
ATOM     12  O   UNL     1       2.565  -0.765  -1.176  0.00  0.00    -0.277 OA
ATOM     13  H   UNL     1       4.425  -2.109   0.078  0.00  0.00    +0.155 HD
ENDROOT
BRANCH   1  14
ATOM     14  N   UNL     1       0.713  -0.491   1.192  0.00  0.00    +0.391 N 
ATOM     15  H   UNL     1       0.290  -0.099   2.020  0.00  0.00    -0.084 HD
ATOM     16  H   UNL     1       0.655  -1.497   1.230  0.00  0.00    -0.084 HD
BRANCH  14  18
ATOM     17  C   UNL     1      -0.019   1.526   0.010  0.00  0.00    -0.013 C 
ATOM     18  C   UNL     1       0.002  -0.004   0.002  0.00  0.00    -0.070 C 
BRANCH  18  19
ATOM     19  C   UNL     1      -1.433  -0.534   0.013  0.00  0.00    -0.025 C 
ATOM     20  C   UNL     1      -1.413  -2.063   0.004  0.00  0.00    +0.002 C 
ATOM     21  C   UNL     1      -2.848  -2.593   0.015  0.00  0.00    +0.000 C 
ATOM     22  C   UNL     1      -3.588  -2.086  -1.224  0.00  0.00    +0.000 C 
ATOM     23  C   UNL     1      -3.609  -0.556  -1.216  0.00  0.00    +0.000 C 
ATOM     24  C   UNL     1      -2.173  -0.027  -1.227  0.00  0.00    +0.002 C 
ENDBRANCH  18  19
ENDBRANCH  14  18
ENDBRANCH   1  14
TORSDOF 3
