REMARK  Name = ZINC39637348
REMARK  8 active torsions:
REMARK  status: ('A' for Active; 'I' for Inactive)
REMARK    1  A    between atoms: C_1  and  C_2
REMARK    2  A    between atoms: C_7  and  N_12
REMARK    3  A    between atoms: C_9  and  C_11
REMARK    4  A    between atoms: C_13  and  C_15
REMARK    5  A    between atoms: C_26  and  C_28
REMARK    6  A    between atoms: C_32  and  N_34
REMARK    7  A    between atoms: N_34  and  C_35
REMARK    8  A    between atoms: N_34  and  C_36
REMARK                            x       y       z     vdW  Elec       q    Type
REMARK                         _______ _______ _______ _____ _____    ______ ____
ROOT
ATOM      1  C   UNL     1       2.071  -4.532   3.493  0.00  0.00    +0.100 C 
ATOM      2  C   UNL     1       3.615  -4.592   3.530  0.00  0.00    +0.121 C 
ATOM      3  N   UNL     1       3.923  -5.791   4.344  0.00  0.00    -0.296 N 
ATOM      4  C   UNL     1       2.911  -6.791   3.926  0.00  0.00    +0.115 C 
ATOM      5  C   UNL     1       1.613  -5.977   3.752  0.00  0.00    -0.004 C 
ATOM      6  C   UNL     1       0.818  -6.501   2.561  0.00  0.00    -0.010 C 
ATOM      7  C   UNL     1       0.324  -7.918   2.866  0.00  0.00    -0.082 C 
ATOM      8  N   UNL     1      -0.517  -7.896   4.069  0.00  0.00    +0.379 N 
ATOM      9  C   UNL     1       0.280  -7.479   5.229  0.00  0.00    -0.082 C 
ATOM     10  C   UNL     1       0.773  -6.044   5.024  0.00  0.00    -0.010 C 
ATOM     11  C   UNL     1       4.902  -5.940   5.258  0.00  0.00    +0.247 C 
ATOM     12  O   UNL     1       5.576  -4.983   5.588  0.00  0.00    -0.270 OA
ATOM     13  H   UNL     1      -1.278  -7.247   3.935  0.00  0.00    -0.086 HD
ATOM     14  H   UNL     1      -0.891  -8.819   4.234  0.00  0.00    -0.086 HD
ENDROOT
BRANCH  11  15
ATOM     15  C   UNL     1       5.156  -7.266   5.861  0.00  0.00    +0.039 A 
ATOM     16  C   UNL     1       4.708  -8.423   5.221  0.00  0.00    +0.013 A 
ATOM     17  C   UNL     1       4.946  -9.660   5.785  0.00  0.00    +0.003 A 
ATOM     18  C   UNL     1       5.628  -9.758   6.984  0.00  0.00    +0.023 A 
ATOM     19  C   UNL     1       6.079  -8.612   7.629  0.00  0.00    +0.030 A 
ATOM     20  C   UNL     1       5.850  -7.365   7.067  0.00  0.00    +0.036 A 
BRANCH  19  21
ATOM     21  N   UNL     1       6.767  -8.717   8.840  0.00  0.00    -0.336 N 
ATOM     22  C   UNL     1       6.891 -10.018   9.502  0.00  0.00    +0.129 C 
ATOM     23  C   UNL     1       7.365  -7.526   9.448  0.00  0.00    +0.129 C 
ENDBRANCH  19  21
ENDBRANCH  11  15
BRANCH   1  25
ATOM     24  N   UNL     1       0.384  -3.492   2.012  0.00  0.00    -0.312 N 
ATOM     25  C   UNL     1       1.597  -4.066   2.140  0.00  0.00    +0.218 C 
ATOM     26  O   UNL     1       2.307  -4.208   1.167  0.00  0.00    -0.275 OA
ATOM     27  H   UNL     1      -0.183  -3.378   2.791  0.00  0.00    +0.149 HD
BRANCH  24  33
ATOM     28  C   UNL     1      -3.618  -2.526  -0.726  0.00  0.00    +0.008 C 
ATOM     29  C   UNL     1      -2.088  -2.546  -0.701  0.00  0.00    -0.009 C 
ATOM     30  C   UNL     1      -1.555  -1.137  -0.971  0.00  0.00    +0.003 C 
ATOM     31  C   UNL     1      -0.025  -1.157  -0.946  0.00  0.00    +0.002 C 
ATOM     32  C   UNL     1       0.456  -1.630   0.427  0.00  0.00    +0.022 C 
ATOM     33  C   UNL     1      -0.077  -3.039   0.697  0.00  0.00    +0.076 C 
ATOM     34  C   UNL     1      -1.606  -3.019   0.672  0.00  0.00    +0.009 C 
ATOM     35  C   UNL     1      -2.139  -4.428   0.943  0.00  0.00    +0.009 C 
ENDBRANCH  24  33
ENDBRANCH   1  25
TORSDOF 4
