REMARK  Name = ZINC08298902
REMARK  6 active torsions:
REMARK  status: ('A' for Active; 'I' for Inactive)
REMARK    1  A    between atoms: C_2  and  C_26
REMARK    2  A    between atoms: N_5  and  C_6
REMARK    3  A    between atoms: C_6  and  C_7
REMARK    4  A    between atoms: C_15  and  C_17
REMARK    5  A    between atoms: N_19  and  C_20
REMARK    6  A    between atoms: C_26  and  C_27
REMARK                            x       y       z     vdW  Elec       q    Type
REMARK                         _______ _______ _______ _____ _____    ______ ____
ROOT
ATOM      1  C   UNL     1      -0.013   1.086   0.008  0.00  0.00    -0.046 C 
ATOM      2  C   UNL     1      -0.751   1.594  -1.234  0.00  0.00    -0.010 C 
ATOM      3  C   UNL     1       0.208   2.460  -2.060  0.00  0.00    -0.004 C 
ATOM      4  C   UNL     1       1.423   1.609  -2.450  0.00  0.00    -0.015 C 
ATOM      5  C   UNL     1       2.101   1.102  -1.175  0.00  0.00    -0.078 C 
ATOM      6  C   UNL     1       1.386   3.063   0.052  0.00  0.00    -0.065 C 
ATOM      7  C   UNL     1       0.687   3.627  -1.188  0.00  0.00    +0.061 C 
ATOM      8  N   UNL     1       1.379   1.585   0.021  0.00  0.00    +0.383 N 
ATOM      9  H   UNL     1       1.852   1.232   0.862  0.00  0.00    -0.081 HD
ENDROOT
BRANCH   7  10
ATOM     10  C   UNL     1      -0.494   4.463  -0.768  0.00  0.00    +0.215 C 
ATOM     11  O   UNL     1      -1.611   4.158  -1.129  0.00  0.00    -0.276 OA
ATOM     12  N   UNL     1      -0.310   5.549   0.009  0.00  0.00    -0.312 N 
ATOM     13  H   UNL     1       0.583   5.793   0.297  0.00  0.00    +0.149 HD
BRANCH  12  14
ATOM     14  C   UNL     1      -1.459   6.361   0.417  0.00  0.00    +0.073 C 
ATOM     15  C   UNL     1      -1.778   7.380  -0.679  0.00  0.00    +0.022 C 
ATOM     16  C   UNL     1      -2.978   8.228  -0.253  0.00  0.00    +0.002 C 
ATOM     17  C   UNL     1      -2.646   8.964   1.047  0.00  0.00    +0.000 C 
ATOM     18  C   UNL     1      -2.328   7.945   2.143  0.00  0.00    +0.002 C 
ATOM     19  C   UNL     1      -1.128   7.097   1.716  0.00  0.00    +0.022 C 
ENDBRANCH  12  14
ENDBRANCH   7  10
BRANCH   1  20
ATOM     20  C   UNL     1      -0.730   1.580   1.266  0.00  0.00    +0.130 C 
BRANCH  20  25
ATOM     21  C   UNL     1       0.401   1.688   3.505  0.00  0.00    +0.133 A 
ATOM     22  C   UNL     1       0.891   0.763   4.363  0.00  0.00    +0.083 A 
ATOM     23  N   UNL     1       0.676  -0.431   3.800  0.00  0.00    -0.135 NA
ATOM     24  N   UNL     1       0.085  -0.258   2.671  0.00  0.00    -0.066 NA
ATOM     25  N   UNL     1      -0.094   0.998   2.451  0.00  0.00    -0.253 N 
BRANCH  22  26
ATOM     26  C   UNL     1       1.552   1.028   5.692  0.00  0.00    +0.062 C 
BRANCH  26  27
ATOM     27  C   UNL     1       0.827   0.243   6.787  0.00  0.00    -0.005 C 
ATOM     28  C   UNL     1      -0.602   0.771   6.932  0.00  0.00    +0.004 C 
ATOM     29  C   UNL     1      -1.327  -0.015   8.027  0.00  0.00    +0.000 C 
ATOM     30  C   UNL     1      -0.583   0.154   9.354  0.00  0.00    +0.000 C 
ATOM     31  C   UNL     1       0.845  -0.374   9.208  0.00  0.00    +0.000 C 
ATOM     32  C   UNL     1       1.570   0.412   8.113  0.00  0.00    +0.004 C 
ENDBRANCH  26  27
ENDBRANCH  22  26
ENDBRANCH  20  25
ENDBRANCH   1  20
TORSDOF 6
