REMARK  Name = ZINC36308146
REMARK  15 active torsions:
REMARK  status: ('A' for Active; 'I' for Inactive)
REMARK    1  A    between atoms: C_1  and  C_2
REMARK    2  A    between atoms: C_7  and  O_8
REMARK    3  A    between atoms: O_8  and  C_9
REMARK    4  A    between atoms: C_9  and  C_10
REMARK    5  A    between atoms: C_10  and  C_12
REMARK    6  A    between atoms: C_10  and  O_40
REMARK    7  A    between atoms: C_12  and  N_13
REMARK    8  A    between atoms: N_13  and  C_14
REMARK    9  A    between atoms: N_13  and  C_20
REMARK   10  A    between atoms: C_14  and  C_15
REMARK   11  A    between atoms: C_20  and  C_21
REMARK   12  A    between atoms: C_22  and  C_34
REMARK   13  A    between atoms: N_24  and  C_33
REMARK   14  A    between atoms: C_25  and  O_26
REMARK   15  A    between atoms: O_26  and  C_27
REMARK                            x       y       z     vdW  Elec       q    Type
REMARK                         _______ _______ _______ _____ _____    ______ ____
ROOT
ATOM      1  N   UNL     1       0.646   0.341   6.809  0.00  0.00    +0.389 N 
ATOM      2  H   UNL     1       1.469   0.860   6.542  0.00  0.00    -0.081 HD
ENDROOT
BRANCH   1   3
ATOM      3  C   UNL     1       0.326  -0.641   5.764  0.00  0.00    -0.043 C 
BRANCH   3   4
ATOM      4  C   UNL     1       0.265   0.061   4.406  0.00  0.00    +0.135 C 
BRANCH   4   5
ATOM      5  O   UNL     1      -0.865   0.936   4.372  0.00  0.00    -0.390 OA
ATOM      6  H   UNL     1      -1.712   0.488   4.500  0.00  0.00    +0.210 HD
ENDBRANCH   4   5
BRANCH   4   7
ATOM      7  C   UNL     1       0.135  -0.984   3.297  0.00  0.00    +0.258 C 
BRANCH   7   8
ATOM      8  O   UNL     1       0.195  -0.338   2.023  0.00  0.00    -0.489 OA
BRANCH   8  15
ATOM      9  C   UNL     1       0.311   0.919  -0.503  0.00  0.00    +0.047 C 
ATOM     10  C   UNL     1       0.144  -0.570  -0.344  0.00  0.00    -0.009 A 
ATOM     11  C   UNL     1       0.046  -1.378  -1.460  0.00  0.00    +0.007 A 
ATOM     12  C   UNL     1      -0.108  -2.744  -1.314  0.00  0.00    +0.000 A 
ATOM     13  C   UNL     1      -0.164  -3.305  -0.051  0.00  0.00    +0.004 A 
ATOM     14  C   UNL     1      -0.067  -2.501   1.068  0.00  0.00    +0.046 A 
ATOM     15  C   UNL     1       0.093  -1.131   0.924  0.00  0.00    +0.124 A 
ENDBRANCH   8  15
ENDBRANCH   7   8
ENDBRANCH   4   7
ENDBRANCH   3   4
ENDBRANCH   1   3
BRANCH   1  16
ATOM     16  C   UNL     1      -0.483   1.265   6.975  0.00  0.00    -0.003 C 
BRANCH  16  17
ATOM     17  C   UNL     1      -0.139   2.297   8.018  0.00  0.00    +0.089 A 
ATOM     18  C   UNL     1       0.392   3.510   7.779  0.00  0.00    +0.042 A 
ATOM     19  C   UNL     1       0.550   4.142   9.033  0.00  0.00    +0.041 A 
ATOM     20  C   UNL     1       0.106   3.278   9.964  0.00  0.00    +0.195 A 
ATOM     21  O   UNL     1      -0.315   2.165   9.342  0.00  0.00    -0.470 OA
ENDBRANCH  16  17
ENDBRANCH   1  16
BRANCH   1  22
ATOM     22  C   UNL     1       0.898  -0.357   8.076  0.00  0.00    -0.035 C 
BRANCH  22  23
ATOM     23  C   UNL     1       2.146  -1.193   7.950  0.00  0.00    +0.025 A 
ATOM     24  C   UNL     1       2.197  -2.564   7.638  0.00  0.00    +0.098 A 
ATOM     25  N   UNL     1       3.461  -2.933   7.620  0.00  0.00    -0.168 NA
ATOM     26  N   UNL     1       4.249  -1.814   7.918  0.00  0.00    -0.235 N 
ATOM     27  C   UNL     1       3.421  -0.756   8.112  0.00  0.00    +0.221 A 
ATOM     28  C   UNL     1       5.711  -1.790   8.001  0.00  0.00    +0.176 C 
BRANCH  24  29
ATOM     29  C   UNL     1       1.030  -3.443   7.375  0.00  0.00    +0.002 A 
ATOM     30  C   UNL     1      -0.103  -3.360   8.182  0.00  0.00    +0.010 A 
ATOM     31  C   UNL     1      -1.186  -4.178   7.933  0.00  0.00    +0.001 A 
ATOM     32  C   UNL     1      -1.148  -5.080   6.885  0.00  0.00    +0.000 A 
ATOM     33  C   UNL     1      -0.025  -5.167   6.081  0.00  0.00    +0.001 A 
ATOM     34  C   UNL     1       1.061  -4.349   6.317  0.00  0.00    +0.010 A 
ENDBRANCH  24  29
BRANCH  27  35
ATOM     35  O   UNL     1       3.800   0.512   8.415  0.00  0.00    -0.438 OA
BRANCH  35  36
ATOM     36  C   UNL     1       3.994   0.824   9.723  0.00  0.00    +0.130 A 
ATOM     37  C   UNL     1       3.913  -0.165  10.693  0.00  0.00    +0.046 A 
ATOM     38  C   UNL     1       4.111   0.154  12.022  0.00  0.00    +0.004 A 
ATOM     39  C   UNL     1       4.391   1.459  12.387  0.00  0.00    +0.000 A 
ATOM     40  C   UNL     1       4.473   2.446  11.422  0.00  0.00    +0.004 A 
ATOM     41  C   UNL     1       4.281   2.131  10.091  0.00  0.00    +0.046 A 
ENDBRANCH  35  36
ENDBRANCH  27  35
ENDBRANCH  22  23
ENDBRANCH   1  22
TORSDOF 13
