REMARK  Name = ZINC21739861
REMARK  11 active torsions:
REMARK  status: ('A' for Active; 'I' for Inactive)
REMARK    1  A    between atoms: C_3  and  C_29
REMARK    2  A    between atoms: C_5  and  S_7
REMARK    3  A    between atoms: S_7  and  N_10
REMARK    4  A    between atoms: N_10  and  C_11
REMARK    5  A    between atoms: C_11  and  C_12
REMARK    6  A    between atoms: C_12  and  C_13
REMARK    7  A    between atoms: C_13  and  O_15
REMARK    8  A    between atoms: O_15  and  C_16
REMARK    9  A    between atoms: C_16  and  C_17
REMARK   10  A    between atoms: N_22  and  C_23
REMARK   11  A    between atoms: C_23  and  C_24
REMARK                            x       y       z     vdW  Elec       q    Type
REMARK                         _______ _______ _______ _____ _____    ______ ____
ROOT
ATOM      1  C   UNL     1      -0.550   7.947   5.394  0.00  0.00    +0.309 C 
ATOM      2  O   UNL     1      -1.716   7.706   5.188  0.00  0.00    -0.251 OA
ENDROOT
BRANCH   1   3
ATOM      3  C   UNL     1       0.469   6.838   5.348  0.00  0.00    +0.137 C 
BRANCH   3   4
ATOM      4  C   UNL     1      -0.231   5.516   5.024  0.00  0.00    +0.117 C 
BRANCH   4   5
ATOM      5  N   UNL     1       0.760   4.438   4.979  0.00  0.00    -0.189 NA
ATOM      6  H   UNL     1       1.812   4.666   4.754  0.00  0.00    +0.148 HD
BRANCH   5   7
ATOM      7  S   UNL     1       0.266   2.858   5.020  0.00  0.00    +0.058 S 
ATOM      8  O   UNL     1      -0.653   2.747   6.098  0.00  0.00    -0.153 OA
ATOM      9  O   UNL     1       1.441   2.063   4.936  0.00  0.00    -0.153 OA
BRANCH   7  14
ATOM     10  C   UNL     1      -2.735   2.540   2.366  0.00  0.00    +0.002 A 
ATOM     11  C   UNL     1      -2.087   2.098   1.228  0.00  0.00    +0.012 A 
ATOM     12  C   UNL     1      -0.722   1.881   1.250  0.00  0.00    +0.057 A 
ATOM     13  C   UNL     1      -0.003   2.115   2.407  0.00  0.00    +0.041 A 
ATOM     14  C   UNL     1      -0.650   2.560   3.544  0.00  0.00    +0.106 A 
ATOM     15  C   UNL     1      -2.016   2.773   3.524  0.00  0.00    +0.028 A 
BRANCH  12  16
ATOM     16  C   UNL     1      -0.017   1.395   0.010  0.00  0.00    +0.417 C 
ATOM     17  F   UNL     1       0.002  -0.004   0.002  0.00  0.00    -0.166 F 
ATOM     18  F   UNL     1       1.296   1.879  -0.000  0.00  0.00    -0.166 F 
ATOM     19  F   UNL     1      -0.694   1.858  -1.124  0.00  0.00    -0.166 F 
ENDBRANCH  12  16
ENDBRANCH   7  14
ENDBRANCH   5   7
ENDBRANCH   4   5
ENDBRANCH   3   4
ENDBRANCH   1   3
BRANCH   1  20
ATOM     20  O   UNL     1      -0.162   9.204   5.663  0.00  0.00    -0.455 OA
BRANCH  20  21
ATOM     21  C   UNL     1      -1.198  10.222   5.691  0.00  0.00    +0.328 C 
BRANCH  21  22
ATOM     22  C   UNL     1      -0.579  11.559   6.006  0.00  0.00    +0.258 C 
ATOM     23  O   UNL     1       0.616  11.646   6.190  0.00  0.00    -0.272 OA
ATOM     24  N   UNL     1      -1.354  12.659   6.085  0.00  0.00    -0.237 N 
ATOM     25  C   UNL     1      -0.801  13.855   6.367  0.00  0.00    +0.306 C 
ATOM     26  O   UNL     1       0.397  13.942   6.551  0.00  0.00    -0.252 OA
ATOM     27  N   UNL     1      -1.577  14.954   6.446  0.00  0.00    -0.294 N 
ATOM     28  H   UNL     1      -2.439  12.580   5.918  0.00  0.00    +0.159 HD
ATOM     29  H   UNL     1      -2.661  14.875   6.279  0.00  0.00    +0.151 HD
BRANCH  27  30
ATOM     30  C   UNL     1      -0.975  16.254   6.752  0.00  0.00    +0.148 C 
BRANCH  30  31
ATOM     31  C   UNL     1      -2.050  17.311   6.781  0.00  0.00    +0.007 A 
ATOM     32  C   UNL     1      -2.807  17.730   7.824  0.00  0.00    +0.013 A 
ATOM     33  C   UNL     1      -3.741  18.727   7.617  0.00  0.00    +0.008 A 
ATOM     34  C   UNL     1      -3.879  19.250   6.374  0.00  0.00    +0.045 A 
ATOM     35  S   UNL     1      -2.661  18.329   5.449  0.00  0.00    -0.100 S 
ENDBRANCH  30  31
ENDBRANCH  27  30
ENDBRANCH  21  22
ENDBRANCH  20  21
ENDBRANCH   1  20
TORSDOF 11
