REMARK  Name = ZINC06443593
REMARK  10 active torsions:
REMARK  status: ('A' for Active; 'I' for Inactive)
REMARK    1  A    between atoms: C_1  and  C_2
REMARK    2  A    between atoms: C_12  and  C_14
REMARK    3  A    between atoms: C_14  and  C_16
REMARK    4  A    between atoms: C_14  and  N_68
REMARK    5  A    between atoms: N_20  and  C_21
REMARK    6  A    between atoms: C_21  and  C_22
REMARK    7  A    between atoms: C_21  and  C_23
REMARK    8  A    between atoms: C_21  and  C_24
REMARK    9  A    between atoms: N_27  and  C_30
REMARK   10  A    between atoms: C_34  and  C_36
REMARK                            x       y       z     vdW  Elec       q    Type
REMARK                         _______ _______ _______ _____ _____    ______ ____
ROOT
ATOM      1  C   UNL     1       3.620   2.267   1.317  0.00  0.00    +0.039 C 
ENDROOT
BRANCH   1  13
ATOM      2  C   UNL     1       2.839   8.674   2.563  0.00  0.00    +0.046 C 
ATOM      3  C   UNL     1       3.684   7.954   1.545  0.00  0.00    -0.026 A 
ATOM      4  C   UNL     1       4.472   8.670   0.668  0.00  0.00    +0.005 A 
ATOM      5  C   UNL     1       5.255   8.019  -0.275  0.00  0.00    +0.001 A 
ATOM      6  C   UNL     1       5.260   6.655  -0.352  0.00  0.00    +0.010 A 
ATOM      7  C   UNL     1       4.469   5.908   0.526  0.00  0.00    -0.001 A 
ATOM      8  C   UNL     1       3.673   6.564   1.485  0.00  0.00    +0.052 A 
ATOM      9  N   UNL     1       2.895   5.823   2.348  0.00  0.00    -0.322 N 
ATOM     10  H   UNL     1       2.348   6.277   3.008  0.00  0.00    +0.169 HD
ATOM     11  C   UNL     1       2.880   4.480   2.285  0.00  0.00    +0.251 A 
ATOM     12  O   UNL     1       2.176   3.857   3.061  0.00  0.00    -0.268 OA
ATOM     13  C   UNL     1       3.663   3.773   1.348  0.00  0.00    +0.011 A 
ATOM     14  C   UNL     1       4.450   4.445   0.471  0.00  0.00    +0.017 A 
ENDBRANCH   1  13
BRANCH   1  20
ATOM     15  C   UNL     1       1.576   2.497   0.040  0.00  0.00    -0.058 C 
ATOM     16  C   UNL     1       0.109   2.064  -0.031  0.00  0.00    +0.086 C 
ATOM     17  N   UNL     1       0.039   0.604  -0.184  0.00  0.00    -0.333 N 
ATOM     18  C   UNL     1       0.693  -0.073   0.945  0.00  0.00    +0.086 C 
ATOM     19  C   UNL     1       2.159   0.360   1.016  0.00  0.00    -0.058 C 
ATOM     20  N   UNL     1       2.215   1.826   1.192  0.00  0.00    +0.391 N 
ATOM     21  H   UNL     1       1.708   2.079   2.049  0.00  0.00    -0.080 HD
BRANCH  17  22
ATOM     22  C   UNL     1      -1.284   0.178  -0.325  0.00  0.00    +0.030 A 
ATOM     23  C   UNL     1      -2.319   1.105  -0.302  0.00  0.00    +0.023 A 
ATOM     24  C   UNL     1      -3.626   0.681  -0.446  0.00  0.00    +0.002 A 
ATOM     25  C   UNL     1      -3.905  -0.665  -0.603  0.00  0.00    +0.012 A 
ATOM     26  C   UNL     1      -2.877  -1.589  -0.621  0.00  0.00    +0.057 A 
ATOM     27  C   UNL     1      -1.568  -1.172  -0.482  0.00  0.00    +0.035 A 
BRANCH  26  28
ATOM     28  C   UNL     1      -3.186  -3.054  -0.792  0.00  0.00    +0.417 C 
ATOM     29  F   UNL     1      -3.378  -3.640   0.464  0.00  0.00    -0.166 F 
ATOM     30  F   UNL     1      -4.348  -3.200  -1.557  0.00  0.00    -0.166 F 
ATOM     31  F   UNL     1      -2.118  -3.683  -1.442  0.00  0.00    -0.166 F 
ENDBRANCH  26  28
ENDBRANCH  17  22
ENDBRANCH   1  20
BRANCH   1  32
ATOM     32  C   UNL     1       4.189   1.722   2.602  0.00  0.00    +0.143 A 
ATOM     33  N   UNL     1       3.651   1.808   3.794  0.00  0.00    -0.115 NA
ATOM     34  N   UNL     1       4.439   1.221   4.629  0.00  0.00    -0.023 NA
ATOM     35  N   UNL     1       5.465   0.764   4.000  0.00  0.00    -0.043 NA
ATOM     36  N   UNL     1       5.345   1.048   2.747  0.00  0.00    -0.225 N 
BRANCH  36  37
ATOM     37  C   UNL     1       6.292   0.705   1.683  0.00  0.00    +0.059 C 
ATOM     38  C   UNL     1       6.756   1.983   0.981  0.00  0.00    +0.036 C 
ATOM     39  C   UNL     1       7.500  -0.013   2.287  0.00  0.00    +0.036 C 
ATOM     40  C   UNL     1       5.608  -0.213   0.668  0.00  0.00    +0.036 C 
ENDBRANCH  36  37
ENDBRANCH   1  32
TORSDOF 6
