REMARK  Name = ZINC64816370
REMARK  9 active torsions:
REMARK  status: ('A' for Active; 'I' for Inactive)
REMARK    1  A    between atoms: C_1  and  C_2
REMARK    2  A    between atoms: C_6  and  C_8
REMARK    3  A    between atoms: C_8  and  N_9
REMARK    4  A    between atoms: C_14  and  C_31
REMARK    5  A    between atoms: C_18  and  C_19
REMARK    6  A    between atoms: C_18  and  C_20
REMARK    7  A    between atoms: N_22  and  C_23
REMARK    8  A    between atoms: C_23  and  C_24
REMARK    9  A    between atoms: C_29  and  C_30
REMARK                            x       y       z     vdW  Elec       q    Type
REMARK                         _______ _______ _______ _____ _____    ______ ____
ROOT
ATOM      1  N   UNL     1       1.440  -3.341   3.035  0.00  0.00    -0.276 N 
ATOM      2  C   UNL     1       2.058  -4.460   2.585  0.00  0.00    +0.266 C 
ATOM      3  O   UNL     1       1.509  -5.235   1.826  0.00  0.00    -0.268 OA
ATOM      4  C   UNL     1       3.431  -4.684   3.065  0.00  0.00    +0.124 A 
ATOM      5  C   UNL     1       4.382  -5.585   2.684  0.00  0.00    +0.065 A 
ATOM      6  C   UNL     1       5.502  -5.299   3.496  0.00  0.00    +0.128 A 
ATOM      7  N   UNL     1       5.175  -4.291   4.287  0.00  0.00    -0.167 NA
ATOM      8  N   UNL     1       3.975  -3.917   4.072  0.00  0.00    -0.256 N 
ATOM      9  C   UNL     1       3.190  -2.868   4.735  0.00  0.00    +0.179 C 
ATOM     10  C   UNL     1       2.172  -2.297   3.744  0.00  0.00    +0.130 C 
ATOM     11  C   UNL     1       1.174  -1.424   4.507  0.00  0.00    +0.044 C 
ENDROOT
BRANCH   6  12
ATOM     12  C   UNL     1       6.805  -5.999   3.467  0.00  0.00    +0.155 A 
ATOM     13  C   UNL     1       7.877  -5.723   4.255  0.00  0.00    +0.051 A 
ATOM     14  C   UNL     1       8.893  -6.629   3.891  0.00  0.00    +0.042 A 
ATOM     15  C   UNL     1       8.396  -7.405   2.909  0.00  0.00    +0.196 A 
ATOM     16  O   UNL     1       7.132  -7.026   2.659  0.00  0.00    -0.461 OA
ENDBRANCH   6  12
BRANCH  10  17
ATOM     17  C   UNL     1       2.894  -1.440   2.736  0.00  0.00    +0.239 C 
ATOM     18  O   UNL     1       3.020  -0.249   2.933  0.00  0.00    -0.273 OA
ATOM     19  N   UNL     1       3.400  -1.995   1.617  0.00  0.00    -0.309 N 
ATOM     20  H   UNL     1       3.299  -2.947   1.460  0.00  0.00    +0.149 HD
BRANCH  19  21
ATOM     21  C   UNL     1       4.102  -1.161   0.638  0.00  0.00    +0.139 C 
BRANCH  21  22
ATOM     22  C   UNL     1       4.565  -2.018  -0.511  0.00  0.00    -0.027 A 
ATOM     23  C   UNL     1       5.878  -2.449  -0.567  0.00  0.00    +0.005 A 
ATOM     24  C   UNL     1       6.303  -3.235  -1.621  0.00  0.00    +0.000 A 
ATOM     25  C   UNL     1       5.415  -3.591  -2.620  0.00  0.00    +0.000 A 
ATOM     26  C   UNL     1       4.103  -3.162  -2.563  0.00  0.00    +0.003 A 
ATOM     27  C   UNL     1       3.676  -2.379  -1.506  0.00  0.00    -0.046 A 
ATOM     28  C   UNL     1       2.244  -1.915  -1.442  0.00  0.00    +0.044 C 
ENDBRANCH  21  22
ENDBRANCH  19  21
ENDBRANCH  10  17
BRANCH   1  29
ATOM     29  C   UNL     1       0.004  -3.173   2.799  0.00  0.00    +0.144 C 
BRANCH  29  35
ATOM     30  C   UNL     1      -0.338   0.822  -0.196  0.00  0.00    +0.044 C 
ATOM     31  C   UNL     1      -0.379  -0.672  -0.003  0.00  0.00    -0.050 A 
ATOM     32  C   UNL     1      -0.617  -1.502  -1.083  0.00  0.00    +0.003 A 
ATOM     33  C   UNL     1      -0.655  -2.873  -0.906  0.00  0.00    +0.001 A 
ATOM     34  C   UNL     1      -0.454  -3.413   0.350  0.00  0.00    +0.005 A 
ATOM     35  C   UNL     1      -0.215  -2.584   1.429  0.00  0.00    -0.030 A 
ATOM     36  C   UNL     1      -0.173  -1.213   1.252  0.00  0.00    +0.008 A 
ENDBRANCH  29  35
ENDBRANCH   1  29
TORSDOF 6
