REMARK  Name = ZINC59039297
REMARK  6 active torsions:
REMARK  status: ('A' for Active; 'I' for Inactive)
REMARK    1  A    between atoms: C_1  and  C_2
REMARK    2  A    between atoms: C_11  and  C_14
REMARK    3  A    between atoms: C_14  and  N_15
REMARK    4  A    between atoms: N_18  and  C_19
REMARK    5  A    between atoms: C_19  and  C_21
REMARK    6  A    between atoms: C_19  and  C_22
REMARK                            x       y       z     vdW  Elec       q    Type
REMARK                         _______ _______ _______ _____ _____    ______ ____
ROOT
ATOM      1  N   UNL     1      -2.304  -7.683   4.228  0.00  0.00    -0.295 N 
ATOM      2  C   UNL     1      -2.664  -8.757   4.959  0.00  0.00    +0.300 C 
ATOM      3  O   UNL     1      -3.161  -8.605   6.058  0.00  0.00    -0.253 OA
ATOM      4  N   UNL     1      -2.474  -9.998   4.471  0.00  0.00    -0.293 N 
ATOM      5  H   UNL     1      -1.907  -7.804   3.351  0.00  0.00    +0.151 HD
ATOM      6  H   UNL     1      -2.078 -10.119   3.594  0.00  0.00    +0.151 HD
ENDROOT
BRANCH   4   7
ATOM      7  C   UNL     1      -2.866 -11.165   5.264  0.00  0.00    +0.102 C 
ATOM      8  C   UNL     1      -1.736 -11.530   6.229  0.00  0.00    +0.033 C 
BRANCH   7   9
ATOM      9  C   UNL     1      -3.139 -12.329   4.346  0.00  0.00    -0.024 A 
ATOM     10  C   UNL     1      -2.320 -12.554   3.255  0.00  0.00    +0.009 A 
ATOM     11  C   UNL     1      -2.567 -13.619   2.410  0.00  0.00    +0.050 A 
ATOM     12  C   UNL     1      -3.637 -14.466   2.655  0.00  0.00    +0.162 A 
ATOM     13  C   UNL     1      -4.459 -14.242   3.753  0.00  0.00    +0.162 A 
ATOM     14  C   UNL     1      -4.203 -13.174   4.600  0.00  0.00    +0.055 A 
ATOM     15  O   UNL     1      -5.510 -15.066   4.016  0.00  0.00    -0.485 OA
ATOM     16  C   UNL     1      -5.954 -15.905   2.945  0.00  0.00    +0.270 C 
ATOM     17  C   UNL     1      -4.721 -16.552   2.299  0.00  0.00    +0.270 C 
ATOM     18  O   UNL     1      -3.870 -15.509   1.812  0.00  0.00    -0.485 OA
ENDBRANCH   7   9
ENDBRANCH   4   7
BRANCH   1  19
ATOM     19  C   UNL     1      -2.510  -6.333   4.759  0.00  0.00    +0.142 C 
BRANCH  19  30
ATOM     20  C   UNL     1       1.516  -1.759  -2.543  0.00  0.00    +0.007 C 
ATOM     21  C   UNL     1       0.744  -1.592  -1.232  0.00  0.00    -0.011 C 
ATOM     22  C   UNL     1       1.541  -2.221  -0.087  0.00  0.00    +0.022 C 
ATOM     23  C   UNL     1       0.782  -2.021   1.228  0.00  0.00    +0.107 C 
ATOM     24  N   UNL     1      -0.578  -2.556   1.075  0.00  0.00    -0.317 N 
ATOM     25  C   UNL     1      -1.400  -2.086  -0.049  0.00  0.00    +0.107 C 
ATOM     26  C   UNL     1      -0.616  -2.284  -1.350  0.00  0.00    +0.022 C 
ATOM     27  C   UNL     1      -1.078  -3.489   1.976  0.00  0.00    +0.099 A 
ATOM     28  C   UNL     1      -2.408  -3.889   1.888  0.00  0.00    +0.042 A 
ATOM     29  C   UNL     1      -2.892  -4.819   2.790  0.00  0.00    +0.010 A 
ATOM     30  C   UNL     1      -2.026  -5.319   3.755  0.00  0.00    -0.014 A 
ATOM     31  C   UNL     1      -0.719  -4.878   3.784  0.00  0.00    +0.089 A 
ATOM     32  N   UNL     1      -0.283  -3.994   2.906  0.00  0.00    -0.349 N 
ATOM     33  H   UNL     1       0.642  -3.704   2.947  0.00  0.00    +0.167 HD
ENDBRANCH  19  30
ENDBRANCH   1  19
TORSDOF 4
