REMARK  Name = ZINC01924247
REMARK  3 active torsions:
REMARK  status: ('A' for Active; 'I' for Inactive)
REMARK    1  A    between atoms: C_11  and  S_14
REMARK    2  A    between atoms: S_14  and  C_15
REMARK    3  A    between atoms: C_15  and  C_16
REMARK                            x       y       z     vdW  Elec       q    Type
REMARK                         _______ _______ _______ _____ _____    ______ ____
ROOT
ATOM      1  S   UNL     1       2.671   5.903   0.031  0.00  0.00    -0.076 S 
ENDROOT
BRANCH   1  12
ATOM      2  C   UNL     1      -0.024   1.084   0.032  0.00  0.00    +0.001 A 
ATOM      3  C   UNL     1       1.171   1.788   0.007  0.00  0.00    +0.002 A 
ATOM      4  C   UNL     1       1.175   3.167   0.031  0.00  0.00    +0.027 A 
ATOM      5  C   UNL     1      -0.026   3.863   0.080  0.00  0.00    +0.058 A 
ATOM      6  C   UNL     1      -1.239   3.152   0.105  0.00  0.00    -0.001 A 
ATOM      7  C   UNL     1      -1.226   1.754   0.074  0.00  0.00    +0.010 A 
ATOM      8  C   UNL     1      -2.503   3.894   0.158  0.00  0.00    +0.013 A 
ATOM      9  C   UNL     1      -2.473   5.245   0.179  0.00  0.00    +0.049 A 
ATOM     10  C   UNL     1      -1.238   5.935   0.152  0.00  0.00    +0.162 A 
ATOM     11  N   UNL     1      -0.046   5.247   0.104  0.00  0.00    -0.270 N 
ATOM     12  C   UNL     1       0.934   6.195   0.089  0.00  0.00    +0.197 A 
ATOM     13  N   UNL     1       0.341   7.368   0.127  0.00  0.00    -0.122 NA
ATOM     14  N   UNL     1      -0.936   7.220   0.164  0.00  0.00    -0.129 NA
ENDBRANCH   1  12
BRANCH   1  15
ATOM     15  C   UNL     1       3.277   7.609   0.040  0.00  0.00    +0.173 C 
BRANCH  15  16
ATOM     16  C   UNL     1       4.783   7.607  -0.006  0.00  0.00    +0.230 C 
ATOM     17  O   UNL     1       5.390   6.559   0.049  0.00  0.00    -0.274 OA
ATOM     18  N   UNL     1       5.455   8.771  -0.109  0.00  0.00    -0.270 N 
ATOM     19  C   UNL     1       4.737  10.052  -0.097  0.00  0.00    +0.114 C 
ATOM     20  C   UNL     1       5.322  10.928  -1.213  0.00  0.00    +0.024 C 
ATOM     21  C   UNL     1       6.791  11.211  -0.899  0.00  0.00    +0.038 C 
ATOM     22  C   UNL     1       7.526   9.929  -0.608  0.00  0.00    -0.026 A 
ATOM     23  C   UNL     1       6.852   8.779  -0.223  0.00  0.00    +0.039 A 
ATOM     24  C   UNL     1       7.561   7.614   0.049  0.00  0.00    +0.024 A 
ATOM     25  C   UNL     1       8.937   7.601  -0.061  0.00  0.00    +0.002 A 
ATOM     26  C   UNL     1       9.609   8.747  -0.442  0.00  0.00    +0.000 A 
ATOM     27  C   UNL     1       8.905   9.906  -0.723  0.00  0.00    +0.005 A 
ENDBRANCH  15  16
ENDBRANCH   1  15
TORSDOF 3
