REMARK  Name = ZINC22825698
REMARK  13 active torsions:
REMARK  status: ('A' for Active; 'I' for Inactive)
REMARK    1  A    between atoms: C_1  and  C_2
REMARK    2  A    between atoms: C_4  and  C_38
REMARK    3  A    between atoms: N_10  and  C_11
REMARK    4  A    between atoms: C_11  and  C_13
REMARK    5  A    between atoms: C_13  and  O_14
REMARK    6  A    between atoms: O_14  and  C_15
REMARK    7  A    between atoms: C_18  and  O_21
REMARK    8  A    between atoms: O_21  and  C_22
REMARK    9  A    between atoms: N_23  and  C_24
REMARK   10  A    between atoms: C_24  and  C_25
REMARK   11  A    between atoms: C_25  and  C_26
REMARK   12  A    between atoms: C_33  and  O_36
REMARK   13  A    between atoms: O_36  and  C_37
REMARK                            x       y       z     vdW  Elec       q    Type
REMARK                         _______ _______ _______ _____ _____    ______ ____
ROOT
ATOM      1  C   UNL     1      -0.623  -6.822   3.977  0.00  0.00    +0.066 C 
ATOM      2  C   UNL     1      -0.568  -5.889   2.795  0.00  0.00    +0.044 A 
ATOM      3  C   UNL     1      -0.540  -6.394   1.504  0.00  0.00    +0.046 A 
ATOM      4  C   UNL     1      -0.490  -5.500   0.445  0.00  0.00    +0.044 A 
ATOM      5  N   UNL     1      -0.471  -4.202   0.697  0.00  0.00    -0.217 NA
ATOM      6  C   UNL     1      -0.498  -3.753   1.942  0.00  0.00    +0.231 A 
ATOM      7  N   UNL     1      -0.552  -4.579   2.976  0.00  0.00    -0.217 NA
ATOM      8  N   UNL     1      -0.477  -2.384   2.170  0.00  0.00    -0.297 N 
ATOM      9  C   UNL     1      -0.393  -1.905   3.447  0.00  0.00    +0.196 C 
ATOM     10  N   UNL     1      -0.224  -2.743   4.460  0.00  0.00    -0.144 NA
ATOM     11  N   UNL     1      -0.483  -0.565   3.679  0.00  0.00    -0.357 N 
ATOM     12  C   UNL     1      -0.458  -6.002  -0.976  0.00  0.00    +0.066 C 
ATOM     13  H   UNL     1      -0.521  -1.767   1.423  0.00  0.00    +0.171 HD
ATOM     14  H   UNL     1      -0.333  -0.217   4.572  0.00  0.00    +0.162 HD
ENDROOT
BRANCH  10  15
ATOM     15  C   UNL     1      -0.024  -2.271   5.689  0.00  0.00    +0.277 C 
ATOM     16  O   UNL     1      -0.096  -1.076   5.901  0.00  0.00    -0.270 OA
BRANCH  15  17
ATOM     17  C   UNL     1       0.293  -3.218   6.818  0.00  0.00    +0.326 C 
BRANCH  17  18
ATOM     18  O   UNL     1       0.464  -2.477   8.028  0.00  0.00    -0.483 OA
BRANCH  18  19
ATOM     19  C   UNL     1       0.757  -3.187   9.150  0.00  0.00    +0.121 A 
ATOM     20  C   UNL     1       0.882  -4.566   9.085  0.00  0.00    +0.049 A 
ATOM     21  C   UNL     1       1.179  -5.287  10.226  0.00  0.00    +0.049 A 
ATOM     22  C   UNL     1       1.353  -4.631  11.435  0.00  0.00    +0.120 A 
ATOM     23  C   UNL     1       1.229  -3.251  11.500  0.00  0.00    +0.049 A 
ATOM     24  C   UNL     1       0.936  -2.530  10.359  0.00  0.00    +0.049 A 
BRANCH  22  25
ATOM     25  O   UNL     1       1.645  -5.341  12.558  0.00  0.00    -0.495 OA
ATOM     26  C   UNL     1       1.811  -4.600  13.769  0.00  0.00    +0.277 C 
ENDBRANCH  22  25
ENDBRANCH  18  19
ENDBRANCH  17  18
ENDBRANCH  15  17
ENDBRANCH  10  15
BRANCH  11  27
ATOM     27  C   UNL     1      -0.808   0.348   2.581  0.00  0.00    +0.120 C 
BRANCH  27  28
ATOM     28  C   UNL     1      -0.727   1.793   3.078  0.00  0.00    +0.058 C 
BRANCH  28  29
ATOM     29  C   UNL     1      -1.178   2.727   1.985  0.00  0.00    -0.021 A 
ATOM     30  C   UNL     1      -0.395   3.332   1.078  0.00  0.00    +0.087 A 
ATOM     31  N   UNL     1      -1.157   4.104   0.245  0.00  0.00    -0.360 N 
ATOM     32  H   UNL     1      -0.814   4.637  -0.490  0.00  0.00    +0.165 HD
ATOM     33  C   UNL     1      -2.485   4.012   0.605  0.00  0.00    +0.047 A 
ATOM     34  C   UNL     1      -2.556   3.141   1.707  0.00  0.00    +0.006 A 
ATOM     35  C   UNL     1      -3.791   2.851   2.289  0.00  0.00    +0.056 A 
ATOM     36  C   UNL     1      -4.939   3.422   1.775  0.00  0.00    +0.121 A 
ATOM     37  C   UNL     1      -4.866   4.281   0.682  0.00  0.00    +0.047 A 
ATOM     38  C   UNL     1      -3.652   4.580   0.104  0.00  0.00    +0.030 A 
BRANCH  36  39
ATOM     39  O   UNL     1      -6.145   3.143   2.337  0.00  0.00    -0.495 OA
ATOM     40  C   UNL     1      -7.292   3.767   1.756  0.00  0.00    +0.277 C 
ENDBRANCH  36  39
ENDBRANCH  28  29
ENDBRANCH  27  28
ENDBRANCH  11  27
TORSDOF 9
