REMARK  Name = ZINC01838239
REMARK  11 active torsions:
REMARK  status: ('A' for Active; 'I' for Inactive)
REMARK    1  A    between atoms: C_1  and  C_2
REMARK    2  A    between atoms: C_2  and  O_3
REMARK    3  A    between atoms: O_3  and  C_4
REMARK    4  A    between atoms: C_4  and  C_6
REMARK    5  A    between atoms: C_7  and  C_32
REMARK    6  A    between atoms: C_8  and  C_30
REMARK    7  A    between atoms: C_9  and  N_11
REMARK    8  A    between atoms: N_11  and  C_12
REMARK    9  A    between atoms: C_12  and  N_14
REMARK   10  A    between atoms: C_15  and  C_17
REMARK   11  A    between atoms: C_20  and  C_22
REMARK                            x       y       z     vdW  Elec       q    Type
REMARK                         _______ _______ _______ _____ _____    ______ ____
ROOT
ATOM      1  C   UNL     1       1.147   1.655   0.000  0.00  0.00    +0.142 C 
ATOM      2  S   UNL     1       1.124   3.367   0.009  0.00  0.00    -0.018 S 
ENDROOT
BRANCH   1   3
ATOM      3  N   UNL     1      -0.011   0.966   0.007  0.00  0.00    -0.261 N 
ATOM      4  C   UNL     1      -1.187   1.624   0.017  0.00  0.00    +0.285 C 
ATOM      5  O   UNL     1      -1.204   2.841   0.023  0.00  0.00    -0.266 OA
ATOM      6  H   UNL     1       0.004  -0.134   0.006  0.00  0.00    +0.157 HD
BRANCH   4   7
ATOM      7  C   UNL     1      -2.445   0.875   0.018  0.00  0.00    +0.190 A 
ATOM      8  C   UNL     1      -3.711   1.419   0.033  0.00  0.00    +0.055 A 
ATOM      9  C   UNL     1      -4.611   0.349   0.026  0.00  0.00    +0.051 A 
ATOM     10  C   UNL     1      -3.869  -0.799   0.017  0.00  0.00    +0.137 A 
ATOM     11  O   UNL     1      -2.567  -0.470   0.012  0.00  0.00    -0.450 OA
BRANCH  10  12
ATOM     12  C   UNL     1      -4.410  -2.173   0.012  0.00  0.00    +0.037 A 
ATOM     13  C   UNL     1      -5.381  -2.548   0.944  0.00  0.00    +0.013 A 
ATOM     14  C   UNL     1      -5.887  -3.831   0.930  0.00  0.00    +0.002 A 
ATOM     15  C   UNL     1      -5.426  -4.751   0.004  0.00  0.00    +0.021 A 
ATOM     16  C   UNL     1      -4.460  -4.389  -0.919  0.00  0.00    +0.060 A 
ATOM     17  C   UNL     1      -3.949  -3.105  -0.920  0.00  0.00    +0.070 A 
ATOM     18 CL   UNL     1      -2.738  -2.652  -2.079  0.00  0.00    -0.081 Cl
ATOM     19 CL   UNL     1      -3.889  -5.551  -2.076  0.00  0.00    -0.082 Cl
ENDBRANCH  10  12
ENDBRANCH   4   7
ENDBRANCH   1   3
BRANCH   1  20
ATOM     20  N   UNL     1       2.323   0.998  -0.015  0.00  0.00    -0.290 N 
ATOM     21  H   UNL     1       2.338  -0.102  -0.021  0.00  0.00    +0.154 HD
BRANCH  20  25
ATOM     22  C   UNL     1       5.523   3.463  -0.032  0.00  0.00    +0.102 A 
ATOM     23  C   UNL     1       5.856   2.123  -0.042  0.00  0.00    -0.010 A 
ATOM     24  C   UNL     1       4.817   1.209  -0.037  0.00  0.00    +0.084 A 
ATOM     25  C   UNL     1       3.509   1.704  -0.022  0.00  0.00    +0.090 A 
ATOM     26  S   UNL     1       3.741   3.422  -0.023  0.00  0.00    -0.065 S 
ATOM     27  C   UNL     1       7.295   1.674  -0.058  0.00  0.00    +0.046 C 
BRANCH  22  28
ATOM     28  C   UNL     1       6.410   4.625  -0.035  0.00  0.00    +0.346 C 
ATOM     29  O   UNL     1       7.617   4.469  -0.048  0.00  0.00    -0.244 OA
BRANCH  28  30
ATOM     30  O   UNL     1       5.891   5.870  -0.023  0.00  0.00    -0.461 OA
BRANCH  30  32
ATOM     31  C   UNL     1       6.047   8.282  -0.012  0.00  0.00    +0.048 C 
ATOM     32  C   UNL     1       6.816   6.959  -0.027  0.00  0.00    +0.229 C 
ENDBRANCH  30  32
ENDBRANCH  28  30
ENDBRANCH  22  28
BRANCH  24  33
ATOM     33  C   UNL     1       5.072  -0.200  -0.047  0.00  0.00    +0.102 C 
ATOM     34  N   UNL     1       5.275  -1.318  -0.055  0.00  0.00    -0.191 NA
ENDBRANCH  24  33
ENDBRANCH  20  25
ENDBRANCH   1  20
TORSDOF 9
