REMARK  Name = ZINC07699883
REMARK  10 active torsions:
REMARK  status: ('A' for Active; 'I' for Inactive)
REMARK    1  A    between atoms: C_1  and  C_2
REMARK    2  A    between atoms: C_2  and  C_3
REMARK    3  A    between atoms: C_3  and  O_4
REMARK    4  A    between atoms: O_4  and  C_5
REMARK    5  A    between atoms: C_6  and  C_14
REMARK    6  A    between atoms: C_10  and  O_11
REMARK    7  A    between atoms: O_11  and  C_12
REMARK    8  A    between atoms: C_12  and  C_13
REMARK    9  A    between atoms: C_25  and  C_29
REMARK   10  A    between atoms: C_26  and  C_28
REMARK                            x       y       z     vdW  Elec       q    Type
REMARK                         _______ _______ _______ _____ _____    ______ ____
ROOT
ATOM      1  C   UNL     1       1.252   3.241   2.357  0.00  0.00    +0.019 C 
ATOM      2  C   UNL     1       2.469   3.752   2.638  0.00  0.00    -0.002 C 
ATOM      3  C   UNL     1       3.532   3.114   3.500  0.00  0.00    +0.060 C 
ATOM      4  C   UNL     1       4.697   4.112   3.481  0.00  0.00    +0.131 C 
ATOM      5  N   UNL     1       4.271   5.241   2.639  0.00  0.00    -0.292 N 
ATOM      6  C   UNL     1       3.008   5.029   2.158  0.00  0.00    +0.141 A 
ATOM      7  N   UNL     1       2.425   5.934   1.378  0.00  0.00    -0.222 NA
ATOM      8  C   UNL     1       3.043   7.050   1.035  0.00  0.00    +0.116 A 
ATOM      9  C   UNL     1       4.347   7.348   1.479  0.00  0.00    +0.075 A 
ATOM     10  C   UNL     1       4.954   6.365   2.322  0.00  0.00    +0.263 A 
ATOM     11  O   UNL     1       6.081   6.539   2.752  0.00  0.00    -0.267 OA
ATOM     12  C   UNL     1       4.880   8.613   1.010  0.00  0.00    -0.026 A 
ATOM     13  C   UNL     1       4.125   9.388   0.214  0.00  0.00    -0.008 A 
ATOM     14  S   UNL     1       2.617   8.454   0.036  0.00  0.00    -0.073 S 
ATOM     15  C   UNL     1       4.470  10.728  -0.384  0.00  0.00    +0.052 C 
ATOM     16  C   UNL     1       6.264   9.053   1.411  0.00  0.00    +0.045 C 
ENDROOT
BRANCH   1  18
ATOM     17  C   UNL     1       0.086   1.041   2.302  0.00  0.00    +0.169 A 
ATOM     18  C   UNL     1       0.801   2.009   3.022  0.00  0.00    +0.021 A 
ATOM     19  C   UNL     1       1.083   1.797   4.375  0.00  0.00    +0.012 A 
ATOM     20  C   UNL     1       0.658   0.641   4.994  0.00  0.00    +0.004 A 
ATOM     21  C   UNL     1      -0.048  -0.314   4.283  0.00  0.00    +0.049 A 
ATOM     22  C   UNL     1      -0.340  -0.116   2.943  0.00  0.00    +0.162 A 
BRANCH  17  23
ATOM     23  O   UNL     1      -0.195   1.236   0.987  0.00  0.00    -0.488 OA
BRANCH  23  24
ATOM     24  C   UNL     1       0.764   0.758   0.042  0.00  0.00    +0.229 C 
BRANCH  24  26
ATOM     25  C   UNL     1       1.306   0.554  -2.389  0.00  0.00    +0.007 C 
ATOM     26  C   UNL     1       0.279   1.066  -1.376  0.00  0.00    +0.038 C 
ENDBRANCH  24  26
ENDBRANCH  23  24
ENDBRANCH  17  23
BRANCH  22  27
ATOM     27  O   UNL     1      -1.039  -1.057   2.253  0.00  0.00    -0.489 OA
BRANCH  27  28
ATOM     28  C   UNL     1      -1.445  -2.222   2.974  0.00  0.00    +0.226 C 
ATOM     29  C   UNL     1      -2.213  -3.159   2.039  0.00  0.00    +0.048 C 
ENDBRANCH  27  28
ENDBRANCH  22  27
ENDBRANCH   1  18
TORSDOF 6
