REMARK  Name = ZINC16231252
REMARK  6 active torsions:
REMARK  status: ('A' for Active; 'I' for Inactive)
REMARK    1  A    between atoms: C_1  and  N_2
REMARK    2  A    between atoms: C_11  and  C_13
REMARK    3  A    between atoms: N_15  and  N_16
REMARK    4  A    between atoms: C_17  and  C_19
REMARK    5  A    between atoms: C_20  and  C_21
REMARK    6  A    between atoms: C_24  and  C_26
REMARK                            x       y       z     vdW  Elec       q    Type
REMARK                         _______ _______ _______ _____ _____    ______ ____
ROOT
ATOM      1  N   UNL     1      -3.680   2.047   0.031  0.00  0.00    -0.231 N 
ATOM      2  C   UNL     1      -4.842   1.365   0.033  0.00  0.00    +0.253 C 
ATOM      3  O   UNL     1      -4.834   0.148   0.026  0.00  0.00    -0.269 OA
ATOM      4  H   UNL     1      -3.686   3.017   0.036  0.00  0.00    +0.173 HD
ENDROOT
BRANCH   1   7
ATOM      5  C   UNL     1      -1.299   2.036   0.019  0.00  0.00    +0.281 C 
ATOM      6  O   UNL     1      -1.307   3.252   0.026  0.00  0.00    -0.267 OA
ATOM      7  N   UNL     1      -2.462   1.355   0.021  0.00  0.00    -0.229 N 
ATOM      8  H   UNL     1      -2.455   0.385   0.016  0.00  0.00    +0.173 HD
BRANCH   5  19
ATOM      9  C   UNL     1       0.935  -2.169  -0.018  0.00  0.00    +0.176 C 
ATOM     10  N   UNL     1       1.069  -0.710  -0.012  0.00  0.00    -0.231 N 
ATOM     11  C   UNL     1       2.311  -0.182  -0.021  0.00  0.00    +0.275 A 
ATOM     12  O   UNL     1       3.293  -0.902  -0.035  0.00  0.00    -0.266 OA
ATOM     13  C   UNL     1       2.450   1.280  -0.015  0.00  0.00    +0.050 A 
ATOM     14  C   UNL     1       3.685   1.922  -0.024  0.00  0.00    +0.014 A 
ATOM     15  C   UNL     1       3.730   3.300  -0.018  0.00  0.00    +0.001 A 
ATOM     16  C   UNL     1       2.560   4.048  -0.002  0.00  0.00    +0.001 A 
ATOM     17  C   UNL     1       1.327   3.431   0.007  0.00  0.00    +0.011 A 
ATOM     18  C   UNL     1       1.259   2.042   0.001  0.00  0.00    +0.020 A 
ATOM     19  C   UNL     1      -0.016   1.307   0.009  0.00  0.00    +0.155 A 
ATOM     20  N   UNL     1       0.002  -0.004   0.002  0.00  0.00    -0.163 NA
ENDBRANCH   5  19
ENDBRANCH   1   7
BRANCH   2  21
ATOM     21  C   UNL     1      -6.074   2.065   0.042  0.00  0.00    +0.071 C 
ATOM     22  C   UNL     1      -7.241   1.381   0.044  0.00  0.00    +0.033 C 
BRANCH  22  23
ATOM     23  C   UNL     1      -8.517   2.107   0.054  0.00  0.00    +0.072 A 
ATOM     24  C   UNL     1      -9.720   1.419   0.056  0.00  0.00    +0.075 A 
ATOM     25  S   UNL     1     -10.865   2.724   0.069  0.00  0.00    -0.075 S 
ATOM     26  C   UNL     1      -9.694   4.072   0.070  0.00  0.00    +0.109 A 
ATOM     27  N   UNL     1      -8.540   3.432   0.067  0.00  0.00    -0.240 NA
BRANCH  26  28
ATOM     28  C   UNL     1      -9.951   5.528   0.079  0.00  0.00    +0.007 A 
ATOM     29  C   UNL     1      -8.884   6.428   0.084  0.00  0.00    +0.013 A 
ATOM     30  C   UNL     1      -9.129   7.785   0.087  0.00  0.00    +0.039 A 
ATOM     31  C   UNL     1     -10.432   8.256   0.095  0.00  0.00    +0.123 A 
ATOM     32  C   UNL     1     -11.496   7.367   0.095  0.00  0.00    +0.039 A 
ATOM     33  C   UNL     1     -11.262   6.008   0.087  0.00  0.00    +0.013 A 
ATOM     34  F   UNL     1     -10.667   9.586   0.103  0.00  0.00    -0.205 F 
ENDBRANCH  26  28
ENDBRANCH  22  23
ENDBRANCH   2  21
TORSDOF 5
