REMARK  Name = ZINC58647397
REMARK  5 active torsions:
REMARK  status: ('A' for Active; 'I' for Inactive)
REMARK    1  A    between atoms: C_3  and  C_6
REMARK    2  A    between atoms: C_6  and  C_8
REMARK    3  A    between atoms: C_6  and  N_18
REMARK    4  A    between atoms: N_18  and  S_19
REMARK    5  A    between atoms: S_19  and  C_22
REMARK                            x       y       z     vdW  Elec       q    Type
REMARK                         _______ _______ _______ _____ _____    ______ ____
ROOT
ATOM      1  N   UNL     1       4.569   1.019  -0.924  0.00  0.00    -0.178 NA
ATOM      2  H   UNL     1       4.966   0.196  -0.601  0.00  0.00    +0.149 HD
ENDROOT
BRANCH   1   3
ATOM      3  S   UNL     1       4.806   1.492  -2.494  0.00  0.00    +0.059 S 
ATOM      4  O   UNL     1       5.641   0.511  -3.092  0.00  0.00    -0.153 OA
ATOM      5  O   UNL     1       3.526   1.823  -3.015  0.00  0.00    -0.153 OA
BRANCH   3   6
ATOM      6  C   UNL     1       5.735   2.988  -2.453  0.00  0.00    +0.106 A 
ATOM      7  C   UNL     1       5.077   4.207  -2.394  0.00  0.00    +0.030 A 
ATOM      8  C   UNL     1       5.788   5.390  -2.361  0.00  0.00    +0.028 A 
ATOM      9  C   UNL     1       7.174   5.361  -2.387  0.00  0.00    +0.056 A 
ATOM     10  C   UNL     1       7.842   4.126  -2.446  0.00  0.00    +0.065 A 
ATOM     11  C   UNL     1       7.113   2.939  -2.474  0.00  0.00    +0.043 A 
ATOM     12  C   UNL     1       9.316   4.131  -2.472  0.00  0.00    +0.262 A 
ATOM     13  O   UNL     1       9.943   3.091  -2.523  0.00  0.00    -0.267 OA
ATOM     14  N   UNL     1       9.952   5.322  -2.436  0.00  0.00    -0.275 N 
ATOM     15  H   UNL     1      10.922   5.344  -2.453  0.00  0.00    +0.173 HD
ATOM     16  C   UNL     1       9.269   6.476  -2.380  0.00  0.00    +0.327 A 
ATOM     17  O   UNL     1       9.891   7.520  -2.350  0.00  0.00    -0.247 OA
ATOM     18  N   UNL     1       7.926   6.527  -2.354  0.00  0.00    -0.307 N 
ATOM     19  H   UNL     1       7.478   7.386  -2.313  0.00  0.00    +0.170 HD
ENDBRANCH   3   6
ENDBRANCH   1   3
BRANCH   1  20
ATOM     20  C   UNL     1       3.761   1.845  -0.024  0.00  0.00    +0.143 C 
BRANCH  20  21
ATOM     21  C   UNL     1       4.330   1.776   1.369  0.00  0.00    -0.024 A 
ATOM     22  C   UNL     1       4.809   0.577   1.864  0.00  0.00    +0.006 A 
ATOM     23  C   UNL     1       5.326   0.521   3.142  0.00  0.00    +0.004 A 
ATOM     24  C   UNL     1       5.372   1.660   3.935  0.00  0.00    -0.044 A 
ATOM     25  C   UNL     1       4.901   2.855   3.440  0.00  0.00    -0.044 A 
ATOM     26  C   UNL     1       4.382   2.910   2.153  0.00  0.00    +0.009 A 
ATOM     27  C   UNL     1       4.934   4.132   4.238  0.00  0.00    +0.035 C 
ATOM     28  C   UNL     1       5.120   3.833   5.724  0.00  0.00    +0.005 C 
ATOM     29  C   UNL     1       6.323   2.895   5.882  0.00  0.00    +0.005 C 
ATOM     30  C   UNL     1       5.942   1.525   5.323  0.00  0.00    +0.035 C 
ENDBRANCH  20  21
BRANCH  20  33
ATOM     31  C   UNL     1      -0.016   1.351   0.009  0.00  0.00    +0.008 A 
ATOM     32  C   UNL     1       1.183   2.038   0.002  0.00  0.00    +0.013 A 
ATOM     33  C   UNL     1       2.343   1.336  -0.013  0.00  0.00    +0.013 A 
ATOM     34  S   UNL     1       1.754  -0.349  -0.017  0.00  0.00    -0.100 S 
ATOM     35  C   UNL     1       0.002  -0.004   0.002  0.00  0.00    +0.045 A 
ENDBRANCH  20  33
ENDBRANCH   1  20
TORSDOF 5
