REMARK  Name = ZINC06441947
REMARK  9 active torsions:
REMARK  status: ('A' for Active; 'I' for Inactive)
REMARK    1  A    between atoms: C_1  and  C_2
REMARK    2  A    between atoms: C_7  and  C_15
REMARK    3  A    between atoms: C_13  and  C_14
REMARK    4  A    between atoms: C_15  and  C_17
REMARK    5  A    between atoms: C_15  and  N_73
REMARK    6  A    between atoms: N_21  and  C_22
REMARK    7  A    between atoms: N_29  and  C_32
REMARK    8  A    between atoms: C_35  and  O_38
REMARK    9  A    between atoms: O_38  and  C_39
REMARK                            x       y       z     vdW  Elec       q    Type
REMARK                         _______ _______ _______ _____ _____    ______ ____
ROOT
ATOM      1  C   UNL     1      -4.985   1.048   0.031  0.00  0.00    +0.039 C 
ENDROOT
BRANCH   1   8
ATOM      2  C   UNL     1       2.457   3.919  -0.000  0.00  0.00    +0.044 C 
ATOM      3  C   UNL     1       1.151   3.166   0.008  0.00  0.00    -0.046 A 
ATOM      4  C   UNL     1       1.159   1.778   0.001  0.00  0.00    +0.004 A 
ATOM      5  C   UNL     1      -0.013   1.076   0.008  0.00  0.00    +0.010 A 
ATOM      6  C   UNL     1      -1.232   1.762   0.017  0.00  0.00    -0.001 A 
ATOM      7  C   UNL     1      -2.506   1.041   0.019  0.00  0.00    +0.017 A 
ATOM      8  C   UNL     1      -3.656   1.759   0.028  0.00  0.00    +0.011 A 
ATOM      9  C   UNL     1      -3.613   3.170   0.035  0.00  0.00    +0.251 A 
ATOM     10  O   UNL     1      -4.659   3.796   0.042  0.00  0.00    -0.268 OA
ATOM     11  N   UNL     1      -2.448   3.840   0.044  0.00  0.00    -0.322 N 
ATOM     12  H   UNL     1      -2.454   4.810   0.049  0.00  0.00    +0.169 HD
ATOM     13  C   UNL     1      -1.244   3.169   0.030  0.00  0.00    +0.052 A 
ATOM     14  C   UNL     1      -0.038   3.862   0.022  0.00  0.00    -0.024 A 
ATOM     15  C   UNL     1      -0.032   5.370   0.030  0.00  0.00    +0.046 C 
ENDBRANCH   1   8
BRANCH   1  21
ATOM     16  C   UNL     1      -5.064   1.319   2.436  0.00  0.00    -0.058 C 
ATOM     17  C   UNL     1      -5.896   1.885   3.588  0.00  0.00    +0.086 C 
ATOM     18  N   UNL     1      -7.202   1.212   3.623  0.00  0.00    -0.333 N 
ATOM     19  C   UNL     1      -7.925   1.406   2.358  0.00  0.00    +0.086 C 
ATOM     20  C   UNL     1      -7.092   0.839   1.206  0.00  0.00    -0.058 C 
ATOM     21  N   UNL     1      -5.791   1.540   1.169  0.00  0.00    +0.391 N 
ATOM     22  H   UNL     1      -5.957   2.546   1.050  0.00  0.00    -0.080 HD
BRANCH  18  23
ATOM     23  C   UNL     1      -7.966   1.654   4.710  0.00  0.00    +0.030 A 
ATOM     24  C   UNL     1      -9.227   2.194   4.498  0.00  0.00    +0.027 A 
ATOM     25  C   UNL     1      -9.982   2.624   5.572  0.00  0.00    +0.047 A 
ATOM     26  C   UNL     1      -9.476   2.529   6.859  0.00  0.00    +0.120 A 
ATOM     27  C   UNL     1      -8.213   1.994   7.071  0.00  0.00    +0.047 A 
ATOM     28  C   UNL     1      -7.459   1.558   5.999  0.00  0.00    +0.027 A 
BRANCH  26  29
ATOM     29  O   UNL     1     -10.217   2.958   7.915  0.00  0.00    -0.495 OA
ATOM     30  C   UNL     1     -11.508   3.497   7.625  0.00  0.00    +0.277 C 
ENDBRANCH  26  29
ENDBRANCH  18  23
ENDBRANCH   1  21
BRANCH   1  31
ATOM     31  C   UNL     1      -5.717   1.348  -1.252  0.00  0.00    +0.143 A 
ATOM     32  N   UNL     1      -6.327   2.466  -1.563  0.00  0.00    -0.115 NA
ATOM     33  N   UNL     1      -6.828   2.331  -2.742  0.00  0.00    -0.023 NA
ATOM     34  N   UNL     1      -6.560   1.153  -3.188  0.00  0.00    -0.044 NA
ATOM     35  N   UNL     1      -5.877   0.516  -2.299  0.00  0.00    -0.227 N 
BRANCH  35  36
ATOM     36  C   UNL     1      -5.370  -0.854  -2.407  0.00  0.00    +0.111 C 
ATOM     37  C   UNL     1      -4.457  -0.983  -3.644  0.00  0.00    +0.027 C 
ATOM     38  C   UNL     1      -4.769  -2.396  -4.198  0.00  0.00    +0.002 C 
ATOM     39  C   UNL     1      -6.296  -2.523  -3.975  0.00  0.00    +0.002 C 
ATOM     40  C   UNL     1      -6.538  -1.833  -2.617  0.00  0.00    +0.027 C 
ENDBRANCH  35  36
ENDBRANCH   1  31
TORSDOF 6
