REMARK  Name = ZINC34951570
REMARK  6 active torsions:
REMARK  status: ('A' for Active; 'I' for Inactive)
REMARK    1  A    between atoms: C_1  and  C_2
REMARK    2  A    between atoms: C_7  and  N_8
REMARK    3  A    between atoms: C_9  and  C_11
REMARK    4  A    between atoms: C_11  and  C_13
REMARK    5  A    between atoms: C_11  and  N_14
REMARK    6  A    between atoms: N_17  and  C_18
REMARK                            x       y       z     vdW  Elec       q    Type
REMARK                         _______ _______ _______ _____ _____    ______ ____
ROOT
ATOM      1  N   UNL     1      -0.259  -0.900   5.992  0.00  0.00    -0.288 N 
ATOM      2  C   UNL     1       0.148  -0.537   7.225  0.00  0.00    +0.305 C 
ATOM      3  O   UNL     1       0.572   0.585   7.420  0.00  0.00    -0.252 OA
ATOM      4  N   UNL     1       0.085  -1.420   8.242  0.00  0.00    -0.267 N 
ATOM      5  H   UNL     1      -0.597  -1.796   5.837  0.00  0.00    +0.151 HD
ATOM      6  H   UNL     1      -0.175  -2.339   8.072  0.00  0.00    +0.156 HD
ENDROOT
BRANCH   4   7
ATOM      7  C   UNL     1       0.394  -1.009   9.546  0.00  0.00    +0.070 A 
ATOM      8  C   UNL     1       0.264   0.325   9.904  0.00  0.00    +0.029 A 
ATOM      9  C   UNL     1       0.569   0.728  11.190  0.00  0.00    +0.040 A 
ATOM     10  C   UNL     1       1.005  -0.198  12.122  0.00  0.00    +0.126 A 
ATOM     11  C   UNL     1       1.137  -1.530  11.769  0.00  0.00    +0.078 A 
ATOM     12  C   UNL     1       0.827  -1.939  10.485  0.00  0.00    +0.147 A 
ATOM     13  F   UNL     1       0.950  -3.240  10.141  0.00  0.00    -0.203 F 
ATOM     14  F   UNL     1       1.303   0.199  13.379  0.00  0.00    -0.205 F 
ENDBRANCH   4   7
BRANCH   1  15
ATOM     15  C   UNL     1      -0.190   0.059   4.887  0.00  0.00    +0.158 C 
ATOM     16  C   UNL     1      -1.450   0.928   4.887  0.00  0.00    +0.038 C 
BRANCH  15  18
ATOM     17  N   UNL     1      -0.020  -0.006   2.420  0.00  0.00    -0.284 N 
ATOM     18  C   UNL     1      -0.095  -0.687   3.580  0.00  0.00    +0.237 C 
ATOM     19  O   UNL     1      -0.084  -1.899   3.574  0.00  0.00    -0.273 OA
ATOM     20  H   UNL     1       0.041   0.963   2.429  0.00  0.00    +0.155 HD
BRANCH  17  27
ATOM     21  C   UNL     1      -1.327   1.205   0.202  0.00  0.00    +0.045 C 
ATOM     22  C   UNL     1      -0.657  -0.140   0.094  0.00  0.00    -0.029 A 
ATOM     23  C   UNL     1      -0.661  -0.821  -1.108  0.00  0.00    +0.005 A 
ATOM     24  C   UNL     1      -0.046  -2.055  -1.207  0.00  0.00    +0.000 A 
ATOM     25  C   UNL     1       0.574  -2.613  -0.104  0.00  0.00    +0.002 A 
ATOM     26  C   UNL     1       0.582  -1.937   1.101  0.00  0.00    +0.023 A 
ATOM     27  C   UNL     1      -0.030  -0.695   1.202  0.00  0.00    +0.036 A 
ENDBRANCH  17  27
ENDBRANCH  15  18
ENDBRANCH   1  15
TORSDOF 4
