REMARK  Name = ZINC11935447
REMARK  13 active torsions:
REMARK  status: ('A' for Active; 'I' for Inactive)
REMARK    1  A    between atoms: C_1  and  C_2
REMARK    2  A    between atoms: C_9  and  C_22
REMARK    3  A    between atoms: C_10  and  C_11
REMARK    4  A    between atoms: C_11  and  N_64
REMARK    5  A    between atoms: C_12  and  C_14
REMARK    6  A    between atoms: C_12  and  C_15
REMARK    7  A    between atoms: C_12  and  N_64
REMARK    8  A    between atoms: C_15  and  C_16
REMARK    9  A    between atoms: C_16  and  C_17
REMARK   10  A    between atoms: C_17  and  C_18
REMARK   11  A    between atoms: C_18  and  C_19
REMARK   12  A    between atoms: C_18  and  C_20
REMARK   13  A    between atoms: C_18  and  O_21
REMARK                            x       y       z     vdW  Elec       q    Type
REMARK                         _______ _______ _______ _____ _____    ______ ____
ROOT
ATOM      1  C   UNL     1       4.127  -1.950   4.257  0.00  0.00    +0.047 C 
ATOM      2  C   UNL     1       3.818  -1.624   2.819  0.00  0.00    -0.008 A 
ATOM      3  C   UNL     1       4.167  -2.487   1.829  0.00  0.00    +0.008 A 
ATOM      4  C   UNL     1       3.874  -2.170   0.491  0.00  0.00    +0.018 A 
ATOM      5  C   UNL     1       3.249  -1.014   0.187  0.00  0.00    +0.093 A 
ATOM      6  N   UNL     1       2.886  -0.138   1.171  0.00  0.00    -0.304 N 
ATOM      7  C   UNL     1       3.164  -0.417   2.486  0.00  0.00    +0.141 A 
ATOM      8  N   UNL     1       2.720   0.583   3.228  0.00  0.00    -0.223 NA
ATOM      9  C   UNL     1       2.165   1.511   2.426  0.00  0.00    +0.146 A 
ATOM     10  C   UNL     1       2.265   1.073   1.136  0.00  0.00    +0.039 A 
ENDROOT
BRANCH   9  11
ATOM     11  C   UNL     1       1.554   2.780   2.865  0.00  0.00    +0.267 C 
ATOM     12  O   UNL     1       0.978   3.488   2.061  0.00  0.00    -0.268 OA
ATOM     13  N   UNL     1       1.634   3.156   4.157  0.00  0.00    -0.296 N 
ATOM     14  C   UNL     1       2.454   2.393   5.109  0.00  0.00    +0.108 C 
ATOM     15  C   UNL     1       3.425   3.361   5.802  0.00  0.00    +0.019 C 
ATOM     16  C   UNL     1       2.630   4.506   6.434  0.00  0.00    +0.003 C 
ATOM     17  C   UNL     1       1.882   5.274   5.342  0.00  0.00    +0.019 C 
ATOM     18  C   UNL     1       0.898   4.331   4.642  0.00  0.00    +0.108 C 
ENDBRANCH   9  11
BRANCH  10  19
ATOM     19  C   UNL     1       1.775   1.793  -0.094  0.00  0.00    -0.025 C 
BRANCH  19  20
ATOM     20  N   UNL     1       0.383   1.388  -0.368  0.00  0.00    +0.384 N 
ATOM     21  H   UNL     1      -0.206   1.633   0.437  0.00  0.00    -0.085 HD
ATOM     22  H   UNL     1       0.350   0.374  -0.522  0.00  0.00    -0.085 HD
BRANCH  20  23
ATOM     23  C   UNL     1      -0.124   2.079  -1.569  0.00  0.00    -0.075 C 
ATOM     24  C   UNL     1       0.285   1.296  -2.819  0.00  0.00    -0.014 C 
BRANCH  23  25
ATOM     25  C   UNL     1      -1.650   2.161  -1.495  0.00  0.00    -0.016 C 
BRANCH  25  26
ATOM     26  C   UNL     1      -2.056   3.048  -0.316  0.00  0.00    +0.001 C 
BRANCH  26  27
ATOM     27  C   UNL     1      -3.582   3.130  -0.242  0.00  0.00    +0.034 C 
BRANCH  27  28
ATOM     28  C   UNL     1      -3.988   4.017   0.937  0.00  0.00    +0.061 C 
ATOM     29  C   UNL     1      -5.510   3.999   1.088  0.00  0.00    +0.041 C 
ATOM     30  C   UNL     1      -3.342   3.488   2.219  0.00  0.00    +0.041 C 
BRANCH  28  31
ATOM     31  O   UNL     1      -3.548   5.356   0.700  0.00  0.00    -0.389 OA
ATOM     32  H   UNL     1      -3.772   5.975   1.408  0.00  0.00    +0.210 HD
ENDBRANCH  28  31
ENDBRANCH  27  28
ENDBRANCH  26  27
ENDBRANCH  25  26
ENDBRANCH  23  25
ENDBRANCH  20  23
ENDBRANCH  19  20
ENDBRANCH  10  19
TORSDOF 9
