REMARK  Name = ZINC21863327
REMARK  8 active torsions:
REMARK  status: ('A' for Active; 'I' for Inactive)
REMARK    1  A    between atoms: C_1  and  C_2
REMARK    2  A    between atoms: N_8  and  C_9
REMARK    3  A    between atoms: C_9  and  C_10
REMARK    4  A    between atoms: C_10  and  N_11
REMARK    5  A    between atoms: C_17  and  C_31
REMARK    6  A    between atoms: C_20  and  C_21
REMARK    7  A    between atoms: C_20  and  C_22
REMARK    8  A    between atoms: N_24  and  C_25
REMARK                            x       y       z     vdW  Elec       q    Type
REMARK                         _______ _______ _______ _____ _____    ______ ____
ROOT
ATOM      1  N   UNL     1       2.959  -2.840   0.440  0.00  0.00    -0.282 N 
ATOM      2  C   UNL     1       1.692  -3.198   0.131  0.00  0.00    +0.264 C 
ATOM      3  O   UNL     1       1.390  -4.358  -0.086  0.00  0.00    -0.268 OA
ATOM      4  C   UNL     1       0.706  -2.116   0.057  0.00  0.00    +0.105 A 
ATOM      5  C   UNL     1      -0.656  -2.152  -0.057  0.00  0.00    +0.033 A 
ATOM      6  C   UNL     1      -1.107  -0.832  -0.091  0.00  0.00    +0.032 A 
ATOM      7  C   UNL     1       0.002  -0.004   0.002  0.00  0.00    +0.085 A 
ATOM      8  N   UNL     1       1.108  -0.784   0.078  0.00  0.00    -0.331 N 
ATOM      9  C   UNL     1       2.523  -0.410   0.161  0.00  0.00    +0.157 C 
ATOM     10  C   UNL     1       3.285  -1.500   0.914  0.00  0.00    +0.128 C 
ATOM     11  C   UNL     1       4.787  -1.264   0.739  0.00  0.00    +0.043 C 
ENDROOT
BRANCH   7  12
ATOM     12  C   UNL     1      -0.018   1.465   0.010  0.00  0.00    +0.151 A 
ATOM     13  C   UNL     1      -1.133   2.251   0.019  0.00  0.00    +0.051 A 
ATOM     14  C   UNL     1      -0.687   3.586   0.028  0.00  0.00    +0.042 A 
ATOM     15  C   UNL     1       0.662   3.553   0.015  0.00  0.00    +0.196 A 
ATOM     16  O   UNL     1       1.062   2.272   0.004  0.00  0.00    -0.461 OA
ENDBRANCH   7  12
BRANCH  10  17
ATOM     17  C   UNL     1       2.946  -1.407   2.380  0.00  0.00    +0.238 C 
ATOM     18  O   UNL     1       3.664  -0.782   3.130  0.00  0.00    -0.273 OA
ATOM     19  N   UNL     1       1.844  -2.020   2.856  0.00  0.00    -0.311 N 
ATOM     20  H   UNL     1       1.192  -2.587   2.175  0.00  0.00    +0.149 HD
BRANCH  19  21
ATOM     21  C   UNL     1       1.514  -1.930   4.281  0.00  0.00    +0.073 C 
ATOM     22  C   UNL     1       2.271  -3.016   5.049  0.00  0.00    +0.022 C 
ATOM     23  C   UNL     1       1.926  -2.922   6.537  0.00  0.00    +0.002 C 
ATOM     24  C   UNL     1       0.421  -3.120   6.725  0.00  0.00    +0.000 C 
ATOM     25  C   UNL     1      -0.336  -2.034   5.957  0.00  0.00    +0.002 C 
ATOM     26  C   UNL     1       0.009  -2.128   4.469  0.00  0.00    +0.022 C 
ENDBRANCH  19  21
ENDBRANCH  10  17
BRANCH   1  27
ATOM     27  C   UNL     1       4.034  -3.826   0.302  0.00  0.00    +0.091 C 
BRANCH  27  28
ATOM     28  C   UNL     1       4.188  -4.598   1.615  0.00  0.00    -0.059 C 
BRANCH  28  35
ATOM     29  C   UNL     1       3.609  -7.146   0.570  0.00  0.00    -0.013 C 
ATOM     30  C   UNL     1       4.989  -6.516   0.373  0.00  0.00    -0.072 C 
ATOM     31  C   UNL     1       6.053  -7.615   0.351  0.00  0.00    -0.016 C 
ATOM     32  C   UNL     1       7.434  -6.979   0.173  0.00  0.00    -0.003 C 
ATOM     33  C   UNL     1       7.678  -5.981   1.309  0.00  0.00    -0.019 C 
ATOM     34  C   UNL     1       6.566  -4.928   1.303  0.00  0.00    -0.078 C 
ATOM     35  N   UNL     1       5.266  -5.587   1.477  0.00  0.00    +0.382 N 
ATOM     36  H   UNL     1       5.309  -6.175   2.406  0.00  0.00    -0.081 HD
ENDBRANCH  28  35
ENDBRANCH  27  28
ENDBRANCH   1  27
TORSDOF 6
