REMARK  Name = ZINC39211260
REMARK  12 active torsions:
REMARK  status: ('A' for Active; 'I' for Inactive)
REMARK    1  A    between atoms: C_1  and  C_2
REMARK    2  A    between atoms: C_5  and  S_8
REMARK    3  A    between atoms: S_8  and  N_11
REMARK    4  A    between atoms: N_11  and  C_12
REMARK    5  A    between atoms: C_12  and  C_14
REMARK    6  A    between atoms: C_12  and  C_17
REMARK    7  A    between atoms: C_14  and  C_15
REMARK    8  A    between atoms: C_14  and  C_16
REMARK    9  A    between atoms: C_17  and  O_19
REMARK   10  A    between atoms: O_19  and  C_20
REMARK   11  A    between atoms: C_20  and  C_21
REMARK   12  A    between atoms: C_22  and  C_31
REMARK                            x       y       z     vdW  Elec       q    Type
REMARK                         _______ _______ _______ _____ _____    ______ ____
ROOT
ATOM      1  C   UNL     1       2.574  -4.623   1.061  0.00  0.00    +0.187 C 
ENDROOT
BRANCH   1   2
ATOM      2  C   UNL     1       2.728  -5.818   2.003  0.00  0.00    +0.012 C 
ATOM      3  C   UNL     1       1.350  -6.258   2.500  0.00  0.00    +0.009 C 
ATOM      4  C   UNL     1       3.394  -6.975   1.254  0.00  0.00    +0.009 C 
ENDBRANCH   1   2
BRANCH   1   5
ATOM      5  N   UNL     1       1.836  -5.036  -0.136  0.00  0.00    -0.176 NA
ATOM      6  H   UNL     1       2.150  -5.787  -0.664  0.00  0.00    +0.149 HD
BRANCH   5   7
ATOM      7  S   UNL     1       0.467  -4.222  -0.587  0.00  0.00    +0.059 S 
ATOM      8  O   UNL     1      -0.359  -4.145   0.567  0.00  0.00    -0.153 OA
ATOM      9  O   UNL     1       0.024  -4.813  -1.801  0.00  0.00    -0.153 OA
BRANCH   7  14
ATOM     10  C   UNL     1       2.104   1.431  -1.917  0.00  0.00    +0.044 C 
ATOM     11  C   UNL     1       1.695   0.019  -1.585  0.00  0.00    -0.050 A 
ATOM     12  C   UNL     1       1.693  -0.950  -2.570  0.00  0.00    +0.005 A 
ATOM     13  C   UNL     1       1.318  -2.245  -2.266  0.00  0.00    +0.029 A 
ATOM     14  C   UNL     1       0.946  -2.571  -0.975  0.00  0.00    +0.105 A 
ATOM     15  C   UNL     1       0.949  -1.603   0.011  0.00  0.00    +0.029 A 
ATOM     16  C   UNL     1       1.328  -0.309  -0.293  0.00  0.00    +0.005 A 
ENDBRANCH   7  14
ENDBRANCH   5   7
ENDBRANCH   1   5
BRANCH   1  17
ATOM     17  C   UNL     1       3.936  -4.118   0.661  0.00  0.00    +0.327 C 
ATOM     18  O   UNL     1       4.258  -4.105  -0.503  0.00  0.00    -0.249 OA
BRANCH  17  19
ATOM     19  O   UNL     1       4.792  -3.683   1.599  0.00  0.00    -0.457 OA
BRANCH  19  20
ATOM     20  C   UNL     1       6.066  -3.218   1.149  0.00  0.00    +0.289 C 
BRANCH  20  21
ATOM     21  C   UNL     1       6.886  -2.773   2.333  0.00  0.00    +0.100 A 
ATOM     22  C   UNL     1       6.808  -1.448   2.768  0.00  0.00    +0.063 A 
ATOM     23  N   UNL     1       7.512  -1.038   3.798  0.00  0.00    -0.248 NA
ATOM     24  C   UNL     1       8.313  -1.897   4.438  0.00  0.00    +0.089 A 
ATOM     25  C   UNL     1       9.079  -1.489   5.544  0.00  0.00    +0.030 A 
ATOM     26  C   UNL     1       9.884  -2.387   6.175  0.00  0.00    +0.002 A 
ATOM     27  C   UNL     1       9.961  -3.710   5.740  0.00  0.00    +0.002 A 
ATOM     28  C   UNL     1       9.235  -4.140   4.674  0.00  0.00    +0.030 A 
ATOM     29  C   UNL     1       8.391  -3.242   3.997  0.00  0.00    +0.090 A 
ATOM     30  N   UNL     1       7.660  -3.636   2.949  0.00  0.00    -0.245 NA
ATOM     31  C   UNL     1       5.907  -0.478   2.047  0.00  0.00    +0.067 C 
ENDBRANCH  20  21
ENDBRANCH  19  20
ENDBRANCH  17  19
ENDBRANCH   1  17
TORSDOF 8
