REMARK  Name = ZINC11685354
REMARK  11 active torsions:
REMARK  status: ('A' for Active; 'I' for Inactive)
REMARK    1  A    between atoms: C_1  and  C_2
REMARK    2  A    between atoms: C_8  and  N_10
REMARK    3  A    between atoms: C_11  and  C_13
REMARK    4  A    between atoms: C_13  and  C_15
REMARK    5  A    between atoms: C_13  and  O_16
REMARK    6  A    between atoms: O_16  and  C_17
REMARK    7  A    between atoms: C_17  and  C_19
REMARK    8  A    between atoms: C_24  and  S_25
REMARK    9  A    between atoms: S_25  and  C_26
REMARK   10  A    between atoms: C_26  and  C_27
REMARK   11  A    between atoms: N_29  and  C_30
REMARK                            x       y       z     vdW  Elec       q    Type
REMARK                         _______ _______ _______ _____ _____    ______ ____
ROOT
ATOM      1  C   UNL     1       9.136  -4.363   5.692  0.00  0.00    +0.072 A 
ATOM      2  C   UNL     1      10.403  -4.195   6.257  0.00  0.00    +0.016 A 
ATOM      3  C   UNL     1      11.060  -2.991   6.125  0.00  0.00    +0.001 A 
ATOM      4  C   UNL     1      10.471  -1.943   5.434  0.00  0.00    +0.001 A 
ATOM      5  C   UNL     1       9.224  -2.095   4.865  0.00  0.00    +0.015 A 
ATOM      6  C   UNL     1       8.542  -3.300   4.992  0.00  0.00    +0.022 A 
ENDROOT
BRANCH   1   7
ATOM      7  C   UNL     1       8.428  -5.647   5.829  0.00  0.00    +0.341 C 
ATOM      8  O   UNL     1       7.326  -5.789   5.336  0.00  0.00    -0.245 OA
BRANCH   7   9
ATOM      9  O   UNL     1       9.002  -6.664   6.502  0.00  0.00    -0.449 OA
BRANCH   9  10
ATOM     10  C   UNL     1       8.246  -7.901   6.597  0.00  0.00    +0.259 C 
ATOM     11  C   UNL     1       7.373  -7.870   7.853  0.00  0.00    +0.062 C 
BRANCH  10  13
ATOM     12  N   UNL     1       8.722 -10.327   6.669  0.00  0.00    -0.309 N 
ATOM     13  C   UNL     1       9.198  -9.066   6.676  0.00  0.00    +0.254 C 
ATOM     14  O   UNL     1      10.393  -8.870   6.745  0.00  0.00    -0.272 OA
ATOM     15  H   UNL     1       7.766 -10.484   6.613  0.00  0.00    +0.149 HD
BRANCH  12  22
ATOM     16  C   UNL     1       8.665 -12.404   4.651  0.00  0.00    +0.009 C 
ATOM     17  C   UNL     1       8.996 -12.694   6.116  0.00  0.00    +0.006 C 
ATOM     18  C   UNL     1       7.710 -13.033   6.873  0.00  0.00    +0.005 C 
ATOM     19  C   UNL     1       8.042 -13.323   8.338  0.00  0.00    +0.000 C 
ATOM     20  C   UNL     1       8.693 -12.089   8.967  0.00  0.00    +0.002 C 
ATOM     21  C   UNL     1       9.979 -11.750   8.210  0.00  0.00    +0.022 C 
ATOM     22  C   UNL     1       9.647 -11.460   6.745  0.00  0.00    +0.076 C 
ENDBRANCH  12  22
ENDBRANCH  10  13
ENDBRANCH   9  10
ENDBRANCH   7   9
ENDBRANCH   1   7
BRANCH   6  23
ATOM     23  S   UNL     1       6.945  -3.494   4.273  0.00  0.00    -0.115 S 
BRANCH  23  24
ATOM     24  C   UNL     1       6.729  -1.853   3.541  0.00  0.00    +0.170 C 
BRANCH  24  25
ATOM     25  C   UNL     1       5.391  -1.784   2.850  0.00  0.00    +0.227 C 
ATOM     26  O   UNL     1       4.656  -2.749   2.853  0.00  0.00    -0.275 OA
ATOM     27  N   UNL     1       5.011  -0.649   2.229  0.00  0.00    -0.285 N 
ATOM     28  H   UNL     1       5.628   0.096   2.160  0.00  0.00    +0.155 HD
BRANCH  27  29
ATOM     29  C   UNL     1       3.725  -0.547   1.683  0.00  0.00    +0.037 A 
ATOM     30  C   UNL     1       2.658  -1.191   2.294  0.00  0.00    +0.027 A 
ATOM     31  C   UNL     1       1.388  -1.090   1.757  0.00  0.00    +0.051 A 
ATOM     32  C   UNL     1       1.177  -0.347   0.608  0.00  0.00    +0.166 A 
ATOM     33  C   UNL     1       2.246   0.301  -0.008  0.00  0.00    +0.168 A 
ATOM     34  C   UNL     1       3.517   0.199   0.531  0.00  0.00    +0.072 A 
ATOM     35  O   UNL     1       1.781   0.959  -1.110  0.00  0.00    -0.453 OA
ATOM     36  C   UNL     1       0.355   1.044  -0.934  0.00  0.00    +0.466 C 
ATOM     37  O   UNL     1       0.043  -0.094  -0.110  0.00  0.00    -0.453 OA
ENDBRANCH  27  29
ENDBRANCH  24  25
ENDBRANCH  23  24
ENDBRANCH   6  23
TORSDOF 9
