REMARK  Name = ZINC09815669
REMARK  6 active torsions:
REMARK  status: ('A' for Active; 'I' for Inactive)
REMARK    1  A    between atoms: C_1  and  C_2
REMARK    2  A    between atoms: C_2  and  C_3
REMARK    3  A    between atoms: C_2  and  S_4
REMARK    4  A    between atoms: S_4  and  C_5
REMARK    5  A    between atoms: C_8  and  C_11
REMARK    6  A    between atoms: C_17  and  C_19
REMARK                            x       y       z     vdW  Elec       q    Type
REMARK                         _______ _______ _______ _____ _____    ______ ____
ROOT
ATOM      1  C   UNL     1       7.516   7.580  -0.059  0.00  0.00    +0.250 A 
ATOM      2  N   UNL     1       8.093   6.418   0.134  0.00  0.00    -0.106 NA
ATOM      3  N   UNL     1       7.210   5.485   0.064  0.00  0.00    -0.092 NA
ATOM      4  C   UNL     1       6.036   6.013  -0.187  0.00  0.00    +0.315 A 
ATOM      5  O   UNL     1       6.201   7.347  -0.266  0.00  0.00    -0.405 OA
ATOM      6  N   UNL     1       4.843   5.325  -0.337  0.00  0.00    -0.234 N 
ATOM      7  C   UNL     1       4.823   3.981  -0.232  0.00  0.00    +0.259 C 
ATOM      8  O   UNL     1       5.852   3.373  -0.005  0.00  0.00    -0.269 OA
ATOM      9  H   UNL     1       4.023   5.810  -0.517  0.00  0.00    +0.160 HD
ENDROOT
BRANCH   7  10
ATOM     10  C   UNL     1       3.555   3.250  -0.391  0.00  0.00    +0.122 A 
ATOM     11  C   UNL     1       2.377   3.930  -0.648  0.00  0.00    +0.031 A 
ATOM     12  C   UNL     1       1.179   3.185  -0.794  0.00  0.00    +0.018 A 
ATOM     13  C   UNL     1      -0.033   3.842  -1.056  0.00  0.00    +0.011 A 
ATOM     14  C   UNL     1      -1.182   3.119  -1.196  0.00  0.00    +0.001 A 
ATOM     15  C   UNL     1      -1.160   1.735  -1.085  0.00  0.00    +0.004 A 
ATOM     16  C   UNL     1       0.018   1.069  -0.822  0.00  0.00    +0.047 A 
ATOM     17  C   UNL     1       1.202   1.784  -0.676  0.00  0.00    +0.139 A 
ATOM     18  O   UNL     1       2.356   1.129  -0.425  0.00  0.00    -0.422 OA
ATOM     19  C   UNL     1       3.518   1.787  -0.278  0.00  0.00    +0.350 A 
ATOM     20  O   UNL     1       4.541   1.169  -0.052  0.00  0.00    -0.244 OA
ENDBRANCH   7  10
BRANCH   1  24
ATOM     21  C   UNL     1       9.426  11.374  -0.037  0.00  0.00    +0.008 A 
ATOM     22  C   UNL     1      10.171  10.220   0.185  0.00  0.00    +0.015 A 
ATOM     23  C   UNL     1       9.555   8.989   0.178  0.00  0.00    +0.014 A 
ATOM     24  C   UNL     1       8.180   8.899  -0.051  0.00  0.00    +0.039 A 
ATOM     25  C   UNL     1       7.435  10.059  -0.279  0.00  0.00    +0.014 A 
ATOM     26  C   UNL     1       8.056  11.288  -0.266  0.00  0.00    +0.015 A 
BRANCH  21  27
ATOM     27  S   UNL     1      10.219  12.948  -0.029  0.00  0.00    -0.122 S 
BRANCH  27  29
ATOM     28  C   UNL     1       8.039  14.117   1.137  0.00  0.00    +0.019 C 
ATOM     29  C   UNL     1       8.849  14.130  -0.160  0.00  0.00    +0.045 C 
ATOM     30  C   UNL     1       9.408  15.534  -0.398  0.00  0.00    +0.019 C 
ENDBRANCH  27  29
ENDBRANCH  21  27
ENDBRANCH   1  24
TORSDOF 4
