REMARK  Name = ZINC16434954
REMARK  16 active torsions:
REMARK  status: ('A' for Active; 'I' for Inactive)
REMARK    1  A    between atoms: C_1  and  C_2
REMARK    2  A    between atoms: C_2  and  C_3
REMARK    3  A    between atoms: C_3  and  C_4
REMARK    4  A    between atoms: C_4  and  N_5
REMARK    5  A    between atoms: N_5  and  C_6
REMARK    6  A    between atoms: C_6  and  C_7
REMARK    7  A    between atoms: N_9  and  C_10
REMARK    8  A    between atoms: C_12  and  C_22
REMARK    9  A    between atoms: N_14  and  C_15
REMARK   10  A    between atoms: C_18  and  C_21
REMARK   11  A    between atoms: C_22  and  C_23
REMARK   12  A    between atoms: C_22  and  C_24
REMARK   13  A    between atoms: C_22  and  C_25
REMARK   14  A    between atoms: N_28  and  C_29
REMARK   15  A    between atoms: C_33  and  C_36
REMARK   16  A    between atoms: C_34  and  C_35
REMARK                            x       y       z     vdW  Elec       q    Type
REMARK                         _______ _______ _______ _____ _____    ______ ____
ROOT
ATOM      1  C   UNL     1      -1.777   6.555   1.120  0.00  0.00    +0.236 C 
ATOM      2  O   UNL     1      -1.124   6.232   2.090  0.00  0.00    -0.274 OA
ATOM      3  N   UNL     1      -2.937   7.223   1.280  0.00  0.00    -0.269 N 
ATOM      4  H   UNL     1      -3.459   7.481   0.505  0.00  0.00    +0.156 HD
ENDROOT
BRANCH   3   5
ATOM      5  C   UNL     1      -3.386   7.542   2.561  0.00  0.00    +0.129 A 
ATOM      6  C   UNL     1      -2.759   7.244   3.732  0.00  0.00    +0.069 A 
ATOM      7  C   UNL     1      -3.543   7.742   4.777  0.00  0.00    +0.071 A 
ATOM      8  N   UNL     1      -4.601   8.317   4.265  0.00  0.00    -0.169 NA
ATOM      9  N   UNL     1      -4.529   8.213   2.870  0.00  0.00    -0.218 N 
BRANCH   9  10
ATOM     10  C   UNL     1      -5.468   8.709   1.955  0.00  0.00    +0.067 A 
ATOM     11  C   UNL     1      -5.048   9.211   0.731  0.00  0.00    +0.028 A 
ATOM     12  C   UNL     1      -5.976   9.694  -0.171  0.00  0.00    +0.005 A 
ATOM     13  C   UNL     1      -7.322   9.689   0.150  0.00  0.00    -0.050 A 
ATOM     14  C   UNL     1      -7.742   9.195   1.371  0.00  0.00    +0.005 A 
ATOM     15  C   UNL     1      -6.819   8.706   2.274  0.00  0.00    +0.028 A 
ATOM     16  C   UNL     1      -8.331  10.223  -0.834  0.00  0.00    +0.044 C 
ENDBRANCH   9  10
BRANCH   7  17
ATOM     17  C   UNL     1      -3.223   7.634   6.246  0.00  0.00    +0.006 C 
ATOM     18  C   UNL     1      -2.113   8.626   6.600  0.00  0.00    +0.017 C 
ATOM     19  C   UNL     1      -4.475   7.956   7.065  0.00  0.00    +0.017 C 
ATOM     20  C   UNL     1      -2.757   6.212   6.564  0.00  0.00    +0.017 C 
ENDBRANCH   7  17
ENDBRANCH   3   5
BRANCH   1  21
ATOM     21  C   UNL     1      -1.292   6.210  -0.264  0.00  0.00    +0.205 C 
BRANCH  21  22
ATOM     22  N   UNL     1      -0.018   5.491  -0.170  0.00  0.00    -0.277 N 
ATOM     23  C   UNL     1      -0.009   4.147  -0.076  0.00  0.00    +0.307 C 
ATOM     24  O   UNL     1      -1.057   3.531  -0.070  0.00  0.00    -0.252 OA
ATOM     25  N   UNL     1       1.162   3.485   0.010  0.00  0.00    -0.269 N 
ATOM     26  H   UNL     1       1.993   3.979   0.087  0.00  0.00    +0.156 HD
BRANCH  25  27
ATOM     27  C   UNL     1       1.179   2.086  -0.011  0.00  0.00    +0.038 A 
ATOM     28  C   UNL     1       0.141   1.387  -0.614  0.00  0.00    +0.023 A 
ATOM     29  C   UNL     1       0.160   0.006  -0.633  0.00  0.00    +0.002 A 
ATOM     30  C   UNL     1       1.211  -0.680  -0.051  0.00  0.00    +0.004 A 
ATOM     31  C   UNL     1       2.245   0.013   0.550  0.00  0.00    -0.046 A 
ATOM     32  C   UNL     1       2.232   1.394   0.572  0.00  0.00    -0.026 A 
ATOM     33  C   UNL     1       3.359   2.149   1.228  0.00  0.00    +0.046 C 
ATOM     34  C   UNL     1       3.387  -0.739   1.182  0.00  0.00    +0.044 C 
ENDBRANCH  25  27
BRANCH  22  35
ATOM     35  C   UNL     1       1.244   6.234  -0.178  0.00  0.00    +0.110 C 
BRANCH  35  36
ATOM     36  C   UNL     1       1.734   6.392  -1.619  0.00  0.00    +0.019 C 
BRANCH  36  38
ATOM     37  C   UNL     1       3.542   7.326  -3.068  0.00  0.00    +0.004 C 
ATOM     38  C   UNL     1       3.053   7.168  -1.627  0.00  0.00    -0.002 C 
ENDBRANCH  36  38
ENDBRANCH  35  36
ENDBRANCH  22  35
ENDBRANCH  21  22
ENDBRANCH   1  21
TORSDOF 9
