REMARK  Name = ZINC40826754
REMARK  10 active torsions:
REMARK  status: ('A' for Active; 'I' for Inactive)
REMARK    1  A    between atoms: C_1  and  C_2
REMARK    2  A    between atoms: C_2  and  N_3
REMARK    3  A    between atoms: N_3  and  C_4
REMARK    4  A    between atoms: C_10  and  C_12
REMARK    5  A    between atoms: C_13  and  C_37
REMARK    6  A    between atoms: N_21  and  N_22
REMARK    7  A    between atoms: C_23  and  C_25
REMARK    8  A    between atoms: C_25  and  C_26
REMARK    9  A    between atoms: C_33  and  C_36
REMARK   10  A    between atoms: C_34  and  C_35
REMARK                            x       y       z     vdW  Elec       q    Type
REMARK                         _______ _______ _______ _____ _____    ______ ____
ROOT
ATOM      1  C   UNL     1      -1.543  -0.567  -2.102  0.00  0.00    +0.193 A 
ATOM      2  C   UNL     1      -2.441  -0.795  -3.108  0.00  0.00    +0.009 A 
ATOM      3  C   UNL     1      -3.694  -0.422  -2.606  0.00  0.00    +0.042 A 
ATOM      4  C   UNL     1      -3.508   0.019  -1.317  0.00  0.00    +0.115 A 
ATOM      5  O   UNL     1      -2.212  -0.084  -1.030  0.00  0.00    -0.454 OA
ATOM      6  C   UNL     1      -4.636   0.512  -0.448  0.00  0.00    +0.075 C 
ATOM      7  C   UNL     1      -5.817   0.922  -1.332  0.00  0.00    +0.014 C 
ATOM      8  C   UNL     1      -6.198  -0.215  -2.286  0.00  0.00    +0.058 C 
ATOM      9  C   UNL     1      -5.033  -0.450  -3.236  0.00  0.00    +0.070 C 
ATOM     10  N   UNL     1      -5.201  -0.660  -4.505  0.00  0.00    -0.184 NA
ATOM     11  C   UNL     1      -2.142  -1.338  -4.481  0.00  0.00    +0.048 C 
ENDROOT
BRANCH  10  12
ATOM     12  N   UNL     1      -6.492  -0.675  -5.048  0.00  0.00    -0.206 N 
ATOM     13  C   UNL     1      -6.667  -0.893  -6.366  0.00  0.00    +0.237 C 
ATOM     14  O   UNL     1      -5.705  -1.076  -7.083  0.00  0.00    -0.274 OA
ATOM     15  H   UNL     1      -7.261  -0.529  -4.474  0.00  0.00    +0.177 HD
BRANCH  13  16
ATOM     16  C   UNL     1      -8.056  -0.910  -6.950  0.00  0.00    +0.136 C 
BRANCH  16  17
ATOM     17  C   UNL     1      -7.975  -1.172  -8.432  0.00  0.00    +0.007 A 
ATOM     18  C   UNL     1      -7.955  -0.257  -9.410  0.00  0.00    +0.200 A 
ATOM     19  O   UNL     1      -7.877  -0.862 -10.609  0.00  0.00    -0.462 OA
ATOM     20  C   UNL     1      -7.842  -2.202 -10.469  0.00  0.00    +0.138 A 
ATOM     21  C   UNL     1      -7.896  -2.480  -9.093  0.00  0.00    +0.024 A 
ATOM     22  C   UNL     1      -7.870  -3.799  -8.643  0.00  0.00    +0.012 A 
ATOM     23  C   UNL     1      -7.789  -4.827  -9.556  0.00  0.00    +0.004 A 
ATOM     24  C   UNL     1      -7.732  -4.554 -10.915  0.00  0.00    -0.044 A 
ATOM     25  C   UNL     1      -7.765  -3.254 -11.373  0.00  0.00    -0.005 A 
ATOM     26  C   UNL     1      -7.701  -2.974 -12.852  0.00  0.00    +0.048 C 
ATOM     27  C   UNL     1      -7.643  -5.690 -11.901  0.00  0.00    +0.044 C 
ENDBRANCH  16  17
ENDBRANCH  13  16
ENDBRANCH  10  12
BRANCH   1  29
ATOM     28  N   UNL     1       0.663  -0.664  -1.069  0.00  0.00    -0.265 N 
ATOM     29  C   UNL     1      -0.099  -0.812  -2.171  0.00  0.00    +0.286 C 
ATOM     30  O   UNL     1       0.412  -1.148  -3.224  0.00  0.00    -0.266 OA
BRANCH  28  31
ATOM     31  C   UNL     1       2.055  -0.766  -1.163  0.00  0.00    +0.037 A 
ATOM     32  C   UNL     1       2.831  -0.783  -0.011  0.00  0.00    +0.023 A 
ATOM     33  C   UNL     1       4.205  -0.883  -0.107  0.00  0.00    +0.002 A 
ATOM     34  C   UNL     1       4.808  -0.967  -1.349  0.00  0.00    +0.000 A 
ATOM     35  C   UNL     1       4.039  -0.950  -2.497  0.00  0.00    +0.002 A 
ATOM     36  C   UNL     1       2.664  -0.855  -2.408  0.00  0.00    +0.023 A 
ENDBRANCH  28  31
BRANCH  28  38
ATOM     37  C   UNL     1      -0.135   1.112   0.410  0.00  0.00    +0.025 C 
ATOM     38  C   UNL     1       0.034  -0.398   0.226  0.00  0.00    +0.111 C 
ENDBRANCH  28  38
ENDBRANCH   1  29
TORSDOF 6
