REMARK  Name = ZINC33278790
REMARK  9 active torsions:
REMARK  status: ('A' for Active; 'I' for Inactive)
REMARK    1  A    between atoms: C_1  and  C_2
REMARK    2  A    between atoms: C_2  and  C_3
REMARK    3  A    between atoms: C_6  and  C_9
REMARK    4  A    between atoms: C_9  and  N_10
REMARK    5  A    between atoms: C_11  and  C_13
REMARK    6  A    between atoms: C_13  and  N_14
REMARK    7  A    between atoms: C_16  and  C_23
REMARK    8  A    between atoms: C_26  and  C_28
REMARK    9  A    between atoms: C_28  and  N_29
REMARK                            x       y       z     vdW  Elec       q    Type
REMARK                         _______ _______ _______ _____ _____    ______ ____
ROOT
ATOM      1  N   UNL     1       2.507   1.409  -0.014  0.00  0.00    -0.337 N 
ATOM      2  C   UNL     1       3.313   2.508  -0.016  0.00  0.00    +0.100 A 
ATOM      3  C   UNL     1       2.552   3.634  -0.003  0.00  0.00    +0.064 A 
ATOM      4  C   UNL     1       1.147   3.193   0.008  0.00  0.00    +0.012 A 
ATOM      5  C   UNL     1       1.182   1.788   0.000  0.00  0.00    +0.050 A 
ATOM      6  C   UNL     1      -0.013   1.076   0.008  0.00  0.00    +0.026 A 
ATOM      7  C   UNL     1      -1.215   1.749   0.017  0.00  0.00    +0.002 A 
ATOM      8  C   UNL     1      -1.248   3.136   0.029  0.00  0.00    +0.001 A 
ATOM      9  C   UNL     1      -0.076   3.860   0.022  0.00  0.00    +0.011 A 
ENDROOT
BRANCH   3  10
ATOM     10  C   UNL     1       3.039   5.026  -0.002  0.00  0.00    +0.250 A 
ATOM     11  N   UNL     1       2.298   6.112   0.004  0.00  0.00    -0.107 NA
ATOM     12  N   UNL     1       3.062   7.147   0.007  0.00  0.00    -0.114 NA
ATOM     13  C   UNL     1       4.309   6.769  -0.007  0.00  0.00    +0.202 A 
ATOM     14  O   UNL     1       4.328   5.424  -0.012  0.00  0.00    -0.422 OA
BRANCH  13  15
ATOM     15  C   UNL     1       5.513   7.676  -0.015  0.00  0.00    +0.021 C 
BRANCH  15  16
ATOM     16  N   UNL     1       5.918   7.965   1.367  0.00  0.00    +0.386 N 
ATOM     17  C   UNL     1       4.889   8.748   2.064  0.00  0.00    -0.078 C 
ATOM     18  C   UNL     1       5.276   8.905   3.537  0.00  0.00    -0.019 C 
ATOM     19  C   UNL     1       6.632   9.610   3.631  0.00  0.00    -0.004 C 
ATOM     20  C   UNL     1       7.675   8.800   2.856  0.00  0.00    -0.019 C 
ATOM     21  C   UNL     1       7.218   8.646   1.404  0.00  0.00    -0.078 C 
ATOM     22  H   UNL     1       6.026   7.007   1.897  0.00  0.00    -0.081 HD
ENDBRANCH  15  16
ENDBRANCH  13  15
ENDBRANCH   3  10
BRANCH   1  23
ATOM     23  C   UNL     1       2.982   0.023  -0.026  0.00  0.00    +0.217 C 
BRANCH  23  25
ATOM     24  N   UNL     1       3.421  -1.744  -1.701  0.00  0.00    -0.310 N 
ATOM     25  C   UNL     1       3.014  -0.484  -1.445  0.00  0.00    +0.233 C 
ATOM     26  O   UNL     1       2.675   0.240  -2.356  0.00  0.00    -0.274 OA
ATOM     27  H   UNL     1       3.729  -2.401  -0.875  0.00  0.00    +0.149 HD
BRANCH  24  28
ATOM     28  C   UNL     1       3.452  -2.237  -3.080  0.00  0.00    +0.139 C 
BRANCH  28  32
ATOM     29  C   UNL     1       4.835  -6.279  -3.116  0.00  0.00    -0.048 A 
ATOM     30  C   UNL     1       3.484  -6.011  -2.997  0.00  0.00    +0.004 A 
ATOM     31  C   UNL     1       3.036  -4.704  -2.986  0.00  0.00    +0.005 A 
ATOM     32  C   UNL     1       3.940  -3.663  -3.092  0.00  0.00    -0.030 A 
ATOM     33  C   UNL     1       5.291  -3.930  -3.216  0.00  0.00    +0.005 A 
ATOM     34  C   UNL     1       5.739  -5.238  -3.223  0.00  0.00    +0.004 A 
BRANCH  29  36
ATOM     35  C   UNL     1       5.355  -8.221  -4.567  0.00  0.00    +0.009 C 
ATOM     36  C   UNL     1       5.323  -7.704  -3.127  0.00  0.00    +0.032 C 
ENDBRANCH  29  36
ENDBRANCH  28  32
ENDBRANCH  24  28
ENDBRANCH  23  25
ENDBRANCH   1  23
TORSDOF 8
