REMARK  Name = ZINC08833914
REMARK  14 active torsions:
REMARK  status: ('A' for Active; 'I' for Inactive)
REMARK    1  A    between atoms: C_1  and  C_2
REMARK    2  A    between atoms: C_2  and  N_64
REMARK    3  A    between atoms: C_3  and  C_4
REMARK    4  A    between atoms: C_3  and  N_64
REMARK    5  A    between atoms: C_5  and  C_6
REMARK    6  A    between atoms: C_5  and  N_64
REMARK    7  A    between atoms: C_6  and  C_7
REMARK    8  A    between atoms: C_7  and  N_8
REMARK    9  A    between atoms: C_9  and  C_30
REMARK   10  A    between atoms: C_11  and  C_16
REMARK   11  A    between atoms: C_12  and  O_15
REMARK   12  A    between atoms: C_16  and  C_18
REMARK   13  A    between atoms: N_21  and  C_24
REMARK   14  A    between atoms: C_22  and  C_23
REMARK                            x       y       z     vdW  Elec       q    Type
REMARK                         _______ _______ _______ _____ _____    ______ ____
ROOT
ATOM      1  N   UNL     1      -1.612   4.708   0.462  0.00  0.00    -0.283 N 
ATOM      2  C   UNL     1      -1.785   3.760  -0.645  0.00  0.00    +0.151 C 
ATOM      3  C   UNL     1      -2.044   4.595  -1.877  0.00  0.00    +0.072 C 
ATOM      4  C   UNL     1      -2.016   5.889  -1.486  0.00  0.00    +0.188 C 
ATOM      5  C   UNL     1      -1.748   5.952  -0.034  0.00  0.00    +0.282 C 
ATOM      6  O   UNL     1      -1.662   6.975   0.617  0.00  0.00    -0.267 OA
ENDROOT
BRANCH   2   7
ATOM      7  C   UNL     1      -0.533   2.942  -0.826  0.00  0.00    +0.015 A 
ATOM      8  C   UNL     1      -0.402   1.597  -0.942  0.00  0.00    +0.013 A 
ATOM      9  C   UNL     1       0.862   1.059  -1.098  0.00  0.00    +0.008 A 
ATOM     10  C   UNL     1       1.931   1.891  -1.142  0.00  0.00    +0.045 A 
ATOM     11  S   UNL     1       1.161   3.491  -0.952  0.00  0.00    -0.099 S 
ENDBRANCH   2   7
BRANCH   4  12
ATOM     12  O   UNL     1      -2.203   6.957  -2.295  0.00  0.00    -0.502 OA
ATOM     13  H   UNL     1      -2.132   7.798  -1.758  0.00  0.00    +0.292 HD
ENDBRANCH   4  12
BRANCH   3  14
ATOM     14  C   UNL     1      -2.279   4.097  -3.237  0.00  0.00    +0.198 C 
ATOM     15  O   UNL     1      -1.472   4.329  -4.118  0.00  0.00    -0.287 OA
BRANCH  14  16
ATOM     16  C   UNL     1      -3.494   3.317  -3.537  0.00  0.00    +0.063 A 
ATOM     17  C   UNL     1      -4.564   3.057  -2.651  0.00  0.00    +0.146 A 
ATOM     18  N   UNL     1      -5.448   2.336  -3.284  0.00  0.00    -0.174 NA
ATOM     19  N   UNL     1      -4.994   2.102  -4.587  0.00  0.00    -0.236 N 
ATOM     20  C   UNL     1      -3.803   2.708  -4.738  0.00  0.00    +0.053 A 
ATOM     21  C   UNL     1      -2.959   2.718  -5.987  0.00  0.00    +0.066 C 
BRANCH  19  22
ATOM     22  C   UNL     1      -5.670   1.366  -5.570  0.00  0.00    +0.066 A 
ATOM     23  C   UNL     1      -7.040   1.518  -5.734  0.00  0.00    +0.028 A 
ATOM     24  C   UNL     1      -7.702   0.795  -6.706  0.00  0.00    +0.002 A 
ATOM     25  C   UNL     1      -7.003  -0.088  -7.509  0.00  0.00    +0.000 A 
ATOM     26  C   UNL     1      -5.640  -0.246  -7.345  0.00  0.00    +0.002 A 
ATOM     27  C   UNL     1      -4.971   0.479  -6.377  0.00  0.00    +0.028 A 
ENDBRANCH  19  22
ENDBRANCH  14  16
ENDBRANCH   3  14
BRANCH   1  28
ATOM     28  C   UNL     1      -1.340   4.362   1.860  0.00  0.00    +0.107 C 
BRANCH  28  29
ATOM     29  C   UNL     1       0.172   4.291   2.082  0.00  0.00    +0.000 C 
BRANCH  29  30
ATOM     30  C   UNL     1       0.456   3.929   3.541  0.00  0.00    -0.077 C 
BRANCH  30  31
ATOM     31  N   UNL     1       1.919   3.843   3.735  0.00  0.00    +0.379 N 
ATOM     32  H   UNL     1       2.314   3.222   3.019  0.00  0.00    -0.082 HD
BRANCH  31  34
ATOM     33  C   UNL     1       2.019   6.119   4.695  0.00  0.00    -0.017 C 
ATOM     34  C   UNL     1       2.526   5.183   3.596  0.00  0.00    -0.082 C 
ENDBRANCH  31  34
BRANCH  31  35
ATOM     35  C   UNL     1       2.220   3.288   5.072  0.00  0.00    -0.082 C 
ATOM     36  C   UNL     1       3.725   3.034   5.173  0.00  0.00    -0.017 C 
ENDBRANCH  31  35
ENDBRANCH  30  31
ENDBRANCH  29  30
ENDBRANCH  28  29
ENDBRANCH   1  28
TORSDOF 11
