REMARK  Name = ZINC36156018
REMARK  12 active torsions:
REMARK  status: ('A' for Active; 'I' for Inactive)
REMARK    1  A    between atoms: C_1  and  C_2
REMARK    2  A    between atoms: C_2  and  O_3
REMARK    3  A    between atoms: O_3  and  C_4
REMARK    4  A    between atoms: C_4  and  C_5
REMARK    5  A    between atoms: C_5  and  C_7
REMARK    6  A    between atoms: C_5  and  O_33
REMARK    7  A    between atoms: C_7  and  N_8
REMARK    8  A    between atoms: N_8  and  C_9
REMARK    9  A    between atoms: N_8  and  C_17
REMARK   10  A    between atoms: C_9  and  C_10
REMARK   11  A    between atoms: C_10  and  N_11
REMARK   12  A    between atoms: C_17  and  C_18
REMARK                            x       y       z     vdW  Elec       q    Type
REMARK                         _______ _______ _______ _____ _____    ______ ____
ROOT
ATOM      1  N   UNL     1       2.278  -4.225  -4.103  0.00  0.00    +0.387 N 
ATOM      2  H   UNL     1       1.740  -3.474  -4.509  0.00  0.00    -0.081 HD
ENDROOT
BRANCH   1   3
ATOM      3  C   UNL     1       2.112  -4.211  -2.643  0.00  0.00    -0.044 C 
BRANCH   3   4
ATOM      4  C   UNL     1       2.472  -2.826  -2.102  0.00  0.00    +0.124 C 
BRANCH   4   5
ATOM      5  O   UNL     1       3.872  -2.597  -2.270  0.00  0.00    -0.391 OA
ATOM      6  H   UNL     1       4.433  -3.237  -1.812  0.00  0.00    +0.210 HD
ENDBRANCH   4   5
BRANCH   4   7
ATOM      7  C   UNL     1       2.118  -2.752  -0.615  0.00  0.00    +0.189 C 
BRANCH   7   8
ATOM      8  O   UNL     1       2.345  -1.425  -0.137  0.00  0.00    -0.378 OA
BRANCH   8  10
ATOM      9  C   UNL     1       2.322   0.203   1.649  0.00  0.00    +0.034 C 
ATOM     10  C   UNL     1       2.044  -1.247   1.249  0.00  0.00    +0.156 C 
ENDBRANCH   8  10
ENDBRANCH   7   8
ENDBRANCH   4   7
ENDBRANCH   3   4
ENDBRANCH   1   3
BRANCH   1  11
ATOM     11  C   UNL     1       3.697  -4.046  -4.436  0.00  0.00    -0.063 C 
BRANCH  11  12
ATOM     12  C   UNL     1       4.531  -5.092  -3.693  0.00  0.00    +0.066 C 
BRANCH  12  13
ATOM     13  N   UNL     1       5.958  -4.846  -3.940  0.00  0.00    -0.300 NA
ATOM     14  C   UNL     1       6.296  -5.077  -5.352  0.00  0.00    +0.112 C 
ATOM     15  C   UNL     1       7.776  -4.752  -5.577  0.00  0.00    +0.175 C 
ATOM     16  O   UNL     1       8.572  -5.545  -4.693  0.00  0.00    -0.377 OA
ATOM     17  C   UNL     1       8.270  -5.345  -3.309  0.00  0.00    +0.175 C 
ATOM     18  C   UNL     1       6.796  -5.676  -3.062  0.00  0.00    +0.112 C 
ENDBRANCH  12  13
ENDBRANCH  11  12
ENDBRANCH   1  11
BRANCH   1  19
ATOM     19  C   UNL     1       1.807  -5.510  -4.637  0.00  0.00    -0.003 C 
BRANCH  19  20
ATOM     20  C   UNL     1       1.824  -5.463  -6.143  0.00  0.00    +0.094 A 
ATOM     21  N   UNL     1       1.476  -6.570  -6.848  0.00  0.00    -0.312 N 
ATOM     22  H   UNL     1       1.221  -7.376  -6.372  0.00  0.00    +0.170 HD
ATOM     23  C   UNL     1       1.477  -6.572  -8.194  0.00  0.00    +0.260 A 
ATOM     24  O   UNL     1       1.161  -7.574  -8.813  0.00  0.00    -0.267 OA
ATOM     25  C   UNL     1       1.855  -5.377  -8.889  0.00  0.00    +0.075 A 
ATOM     26  C   UNL     1       1.930  -5.149 -10.331  0.00  0.00    -0.023 A 
ATOM     27  C   UNL     1       2.318  -3.922 -10.738  0.00  0.00    -0.004 A 
ATOM     28  S   UNL     1       2.602  -3.011  -9.243  0.00  0.00    -0.073 S 
ATOM     29  C   UNL     1       2.199  -4.285  -8.075  0.00  0.00    +0.116 A 
ATOM     30  N   UNL     1       2.169  -4.358  -6.748  0.00  0.00    -0.229 NA
ATOM     31  C   UNL     1       2.474  -3.440 -12.148  0.00  0.00    +0.043 C 
ATOM     32  C   UNL     1       2.487  -4.661 -13.078  0.00  0.00    +0.005 C 
ATOM     33  C   UNL     1       1.319  -5.577 -12.701  0.00  0.00    +0.005 C 
ATOM     34  C   UNL     1       1.591  -6.235 -11.348  0.00  0.00    +0.037 C 
ENDBRANCH  19  20
ENDBRANCH   1  19
TORSDOF 11
