REMARK  Name = ZINC21151846
REMARK  8 active torsions:
REMARK  status: ('A' for Active; 'I' for Inactive)
REMARK    1  A    between atoms: C_1  and  C_2
REMARK    2  A    between atoms: C_5  and  C_11
REMARK    3  A    between atoms: C_7  and  N_8
REMARK    4  A    between atoms: N_13  and  C_14
REMARK    5  A    between atoms: C_14  and  C_15
REMARK    6  A    between atoms: C_15  and  C_17
REMARK    7  A    between atoms: C_15  and  N_23
REMARK    8  A    between atoms: N_21  and  C_22
REMARK                            x       y       z     vdW  Elec       q    Type
REMARK                         _______ _______ _______ _____ _____    ______ ____
ROOT
ATOM      1  C   UNL     1      -6.090   3.539   0.257  0.00  0.00    +0.121 C 
ENDROOT
BRANCH   1   2
ATOM      2  N   UNL     1      -6.452   2.556   1.287  0.00  0.00    -0.288 NA
ATOM      3  C   UNL     1      -5.251   1.966   1.899  0.00  0.00    +0.090 C 
ATOM      4  C   UNL     1      -5.663   1.248   3.184  0.00  0.00    +0.051 C 
ATOM      5  C   UNL     1      -6.824   0.327   2.908  0.00  0.00    -0.042 A 
ATOM      6  C   UNL     1      -7.117  -0.663   3.835  0.00  0.00    +0.004 A 
ATOM      7  C   UNL     1      -8.177  -1.522   3.625  0.00  0.00    +0.000 A 
ATOM      8  C   UNL     1      -8.950  -1.396   2.486  0.00  0.00    +0.000 A 
ATOM      9  C   UNL     1      -8.657  -0.413   1.562  0.00  0.00    +0.005 A 
ATOM     10  C   UNL     1      -7.591   0.450   1.770  0.00  0.00    -0.030 A 
ATOM     11  C   UNL     1      -7.309   1.504   0.732  0.00  0.00    +0.120 C 
ENDBRANCH   1   2
BRANCH   1  12
ATOM     12  C   UNL     1      -7.314   4.321  -0.143  0.00  0.00    +0.037 A 
ATOM     13  C   UNL     1      -8.533   4.227   0.425  0.00  0.00    +0.024 A 
ATOM     14  C   UNL     1      -9.383   5.127  -0.248  0.00  0.00    +0.019 A 
ATOM     15  C   UNL     1      -8.650   5.737  -1.202  0.00  0.00    +0.085 A 
ATOM     16  N   UNL     1      -7.378   5.251  -1.138  0.00  0.00    -0.352 N 
ATOM     17  C   UNL     1      -6.265   5.658  -1.999  0.00  0.00    +0.148 C 
ENDBRANCH   1  12
BRANCH   1  18
ATOM     18  C   UNL     1      -5.033   4.495   0.814  0.00  0.00    +0.129 C 
BRANCH  18  21
ATOM     19  C   UNL     1      -4.794   6.037   2.684  0.00  0.00    +0.244 C 
ATOM     20  O   UNL     1      -3.739   6.407   2.207  0.00  0.00    -0.270 OA
ATOM     21  N   UNL     1      -5.518   5.085   2.064  0.00  0.00    -0.309 N 
ATOM     22  H   UNL     1      -6.473   4.751   2.496  0.00  0.00    +0.149 HD
BRANCH  19  27
ATOM     23  C   UNL     1      -6.698   8.355   7.596  0.00  0.00    +0.046 C 
ATOM     24  C   UNL     1      -6.199   7.748   6.309  0.00  0.00    -0.020 A 
ATOM     25  C   UNL     1      -6.945   6.770   5.675  0.00  0.00    +0.006 A 
ATOM     26  C   UNL     1      -6.492   6.207   4.500  0.00  0.00    +0.013 A 
ATOM     27  C   UNL     1      -5.283   6.633   3.946  0.00  0.00    +0.039 A 
ATOM     28  C   UNL     1      -4.536   7.620   4.591  0.00  0.00    +0.046 A 
ATOM     29  C   UNL     1      -4.999   8.171   5.769  0.00  0.00    +0.130 A 
BRANCH  29  30
ATOM     30  N   UNL     1      -4.208   9.218   6.454  0.00  0.00    +0.057 N 
ATOM     31  O   UNL     1      -3.217   9.682   5.918  0.00  0.00    -0.126 OA
ATOM     32  O   UNL     1      -4.548   9.616   7.554  0.00  0.00    -0.126 OA
ENDBRANCH  29  30
ENDBRANCH  19  27
ENDBRANCH  18  21
ENDBRANCH   1  18
TORSDOF 6
