REMARK  Name = ZINC42027523
REMARK  4 active torsions:
REMARK  status: ('A' for Active; 'I' for Inactive)
REMARK    1  A    between atoms: C_1  and  C_2
REMARK    2  A    between atoms: C_6  and  N_21
REMARK    3  A    between atoms: C_7  and  C_8
REMARK    4  A    between atoms: N_12  and  C_13
REMARK                            x       y       z     vdW  Elec       q    Type
REMARK                         _______ _______ _______ _____ _____    ______ ____
ROOT
ATOM      1  C   UNL     1       0.044  -0.034   2.446  0.00  0.00    +0.189 A 
ATOM      2  N   UNL     1      -0.215   1.250   2.590  0.00  0.00    -0.108 NA
ATOM      3  N   UNL     1      -0.395   1.536   3.829  0.00  0.00    -0.022 NA
ATOM      4  N   UNL     1      -0.270   0.483   4.561  0.00  0.00    -0.039 NA
ATOM      5  N   UNL     1       0.015  -0.587   3.694  0.00  0.00    -0.191 N 
ENDROOT
BRANCH   5   6
ATOM      6  C   UNL     1       0.228  -1.929   4.037  0.00  0.00    +0.089 A 
ATOM      7  C   UNL     1      -0.419  -2.937   3.334  0.00  0.00    +0.029 A 
ATOM      8  C   UNL     1      -0.208  -4.259   3.674  0.00  0.00    +0.004 A 
ATOM      9  C   UNL     1       0.646  -4.581   4.713  0.00  0.00    +0.021 A 
ATOM     10  C   UNL     1       1.292  -3.579   5.416  0.00  0.00    +0.061 A 
ATOM     11  C   UNL     1       1.090  -2.253   5.076  0.00  0.00    +0.085 A 
ATOM     12 CL   UNL     1       1.907  -0.997   5.953  0.00  0.00    -0.080 Cl
ATOM     13 CL   UNL     1       2.362  -3.987   6.721  0.00  0.00    -0.082 Cl
ENDBRANCH   5   6
BRANCH   1  20
ATOM     14  C   UNL     1      -1.885   0.120   0.296  0.00  0.00    +0.044 C 
ATOM     15  C   UNL     1      -0.615  -0.675   0.132  0.00  0.00    -0.038 A 
ATOM     16  C   UNL     1      -0.361  -1.333  -1.054  0.00  0.00    +0.004 A 
ATOM     17  C   UNL     1       0.803  -2.066  -1.212  0.00  0.00    +0.002 A 
ATOM     18  C   UNL     1       1.723  -2.145  -0.184  0.00  0.00    +0.023 A 
ATOM     19  C   UNL     1       1.483  -1.489   1.016  0.00  0.00    +0.036 A 
ATOM     20  C   UNL     1       0.307  -0.742   1.176  0.00  0.00    +0.045 A 
BRANCH  19  21
ATOM     21  N   UNL     1       2.408  -1.568   2.054  0.00  0.00    -0.357 N 
ATOM     22  H   UNL     1       3.172  -2.162   1.978  0.00  0.00    +0.142 HD
ATOM     23  H   UNL     1       2.289  -1.030   2.852  0.00  0.00    +0.142 HD
ENDBRANCH  19  21
ENDBRANCH   1  20
TORSDOF 3
