REMARK  Name = ZINC39362917
REMARK  6 active torsions:
REMARK  status: ('A' for Active; 'I' for Inactive)
REMARK    1  A    between atoms: C_4  and  C_8
REMARK    2  A    between atoms: C_8  and  S_9
REMARK    3  A    between atoms: S_9  and  C_10
REMARK    4  A    between atoms: C_13  and  C_23
REMARK    5  A    between atoms: N_15  and  C_16
REMARK    6  A    between atoms: C_23  and  C_24
REMARK                            x       y       z     vdW  Elec       q    Type
REMARK                         _______ _______ _______ _____ _____    ______ ____
ROOT
ATOM      1  C   UNL     1       5.771  -1.898   1.478  0.00  0.00    +0.180 C 
ATOM      2  N   UNL     1       6.305  -2.181   0.338  0.00  0.00    -0.162 NA
ATOM      3  N   UNL     1       7.538  -2.826   0.496  0.00  0.00    -0.246 N 
ATOM      4  C   UNL     1       7.760  -2.939   1.948  0.00  0.00    +0.187 C 
ATOM      5  N   UNL     1       6.567  -2.307   2.538  0.00  0.00    -0.258 N 
ATOM      6  H   UNL     1       8.127  -3.136  -0.209  0.00  0.00    +0.170 HD
ENDROOT
BRANCH   5   7
ATOM      7  C   UNL     1       6.291  -2.151   3.900  0.00  0.00    +0.038 A 
ATOM      8  C   UNL     1       6.059  -3.267   4.695  0.00  0.00    +0.026 A 
ATOM      9  C   UNL     1       5.787  -3.111   6.040  0.00  0.00    +0.040 A 
ATOM     10  C   UNL     1       5.745  -1.844   6.596  0.00  0.00    +0.124 A 
ATOM     11  C   UNL     1       5.976  -0.730   5.806  0.00  0.00    +0.040 A 
ATOM     12  C   UNL     1       6.255  -0.882   4.462  0.00  0.00    +0.026 A 
ATOM     13  F   UNL     1       5.478  -1.694   7.912  0.00  0.00    -0.205 F 
ENDBRANCH   5   7
BRANCH   1  14
ATOM     14  S   UNL     1       4.219  -1.085   1.666  0.00  0.00    -0.084 S 
BRANCH  14  15
ATOM     15  C   UNL     1       3.660  -0.807  -0.037  0.00  0.00    +0.116 C 
BRANCH  15  19
ATOM     16  C   UNL     1      -0.127   1.174   0.011  0.00  0.00    +0.004 A 
ATOM     17  C   UNL     1       1.039   1.915  -0.005  0.00  0.00    +0.039 A 
ATOM     18  C   UNL     1       2.267   1.275  -0.020  0.00  0.00    +0.129 A 
ATOM     19  C   UNL     1       2.325  -0.108  -0.020  0.00  0.00    +0.016 A 
ATOM     20  C   UNL     1       1.157  -0.849  -0.004  0.00  0.00    +0.048 A 
ATOM     21  C   UNL     1      -0.069  -0.207   0.011  0.00  0.00    +0.020 A 
ATOM     22 CL   UNL     1       1.229  -2.583  -0.004  0.00  0.00    -0.083 Cl
ATOM     23  F   UNL     1       3.407   2.000  -0.036  0.00  0.00    -0.205 F 
ENDBRANCH  15  19
ENDBRANCH  14  15
ENDBRANCH   1  14
BRANCH   4  24
ATOM     24  C   UNL     1       9.024  -2.183   2.359  0.00  0.00    +0.097 C 
BRANCH  24  25
ATOM     25  C   UNL     1      10.218  -2.785   1.663  0.00  0.00    +0.029 A 
ATOM     26  N   UNL     1      10.848  -3.875   2.200  0.00  0.00    -0.311 N 
ATOM     27  C   UNL     1      11.914  -4.421   1.587  0.00  0.00    +0.327 A 
ATOM     28  O   UNL     1      12.460  -5.389   2.081  0.00  0.00    -0.247 OA
ATOM     29  N   UNL     1      12.386  -3.910   0.434  0.00  0.00    -0.275 N 
ATOM     30  C   UNL     1      11.793  -2.837  -0.127  0.00  0.00    +0.254 A 
ATOM     31  O   UNL     1      12.219  -2.375  -1.170  0.00  0.00    -0.268 OA
ATOM     32  C   UNL     1      10.667  -2.256   0.505  0.00  0.00    +0.091 A 
ATOM     33  H   UNL     1      13.155  -4.316   0.005  0.00  0.00    +0.173 HD
ATOM     34  H   UNL     1      10.524  -4.257   3.030  0.00  0.00    +0.170 HD
ENDBRANCH  24  25
ENDBRANCH   4  24
TORSDOF 6
