REMARK  Name = ZINC00950063
REMARK  7 active torsions:
REMARK  status: ('A' for Active; 'I' for Inactive)
REMARK    1  A    between atoms: C_1  and  C_2
REMARK    2  A    between atoms: C_3  and  C_28
REMARK    3  A    between atoms: C_5  and  N_20
REMARK    4  A    between atoms: C_6  and  C_7
REMARK    5  A    between atoms: C_7  and  C_9
REMARK    6  A    between atoms: C_7  and  N_53
REMARK    7  A    between atoms: C_21  and  C_23
REMARK                            x       y       z     vdW  Elec       q    Type
REMARK                         _______ _______ _______ _____ _____    ______ ____
ROOT
ATOM      1  C   UNL     1      -0.352  -0.975   4.649  0.00  0.00    +0.045 C 
ATOM      2  C   UNL     1      -0.835   0.444   4.806  0.00  0.00    -0.037 A 
ATOM      3  C   UNL     1      -1.584   0.800   5.877  0.00  0.00    -0.008 A 
ATOM      4  S   UNL     1      -1.876   2.534   5.569  0.00  0.00    -0.078 S 
ATOM      5  C   UNL     1      -0.973   2.674   4.036  0.00  0.00    +0.074 A 
ATOM      6  C   UNL     1      -0.514   1.403   3.862  0.00  0.00    -0.025 A 
ATOM      7  C   UNL     1      -2.055  -0.051   7.029  0.00  0.00    +0.052 C 
ENDROOT
BRANCH   5   8
ATOM      8  N   UNL     1      -0.786   3.795   3.224  0.00  0.00    -0.273 N 
ATOM      9  C   UNL     1      -1.218   5.003   3.635  0.00  0.00    +0.284 C 
ATOM     10  O   UNL     1      -1.772   5.118   4.713  0.00  0.00    -0.266 OA
ATOM     11  H   UNL     1      -0.345   3.704   2.365  0.00  0.00    +0.156 HD
BRANCH   9  12
ATOM     12  C   UNL     1      -1.022   6.181   2.783  0.00  0.00    +0.189 A 
ATOM     13  C   UNL     1      -1.410   7.457   3.075  0.00  0.00    +0.054 A 
ATOM     14  C   UNL     1      -1.024   8.255   1.987  0.00  0.00    +0.042 A 
ATOM     15  C   UNL     1      -0.426   7.442   1.089  0.00  0.00    +0.196 A 
ATOM     16  O   UNL     1      -0.422   6.193   1.574  0.00  0.00    -0.458 OA
ENDBRANCH   9  12
ENDBRANCH   5   8
BRANCH   6  17
ATOM     17  C   UNL     1       0.323   1.046   2.661  0.00  0.00    -0.003 C 
BRANCH  17  23
ATOM     18  C   UNL     1      -1.629   1.228   1.241  0.00  0.00    -0.078 C 
ATOM     19  C   UNL     1      -2.238   2.010   0.075  0.00  0.00    -0.019 C 
ATOM     20  C   UNL     1      -1.398   1.777  -1.184  0.00  0.00    -0.004 C 
ATOM     21  C   UNL     1       0.046   2.205  -0.911  0.00  0.00    -0.019 C 
ATOM     22  C   UNL     1       0.589   1.418   0.284  0.00  0.00    -0.078 C 
ATOM     23  N   UNL     1      -0.248   1.705   1.468  0.00  0.00    +0.387 N 
ATOM     24  H   UNL     1      -0.267   2.719   1.624  0.00  0.00    -0.080 HD
ENDBRANCH  17  23
BRANCH  17  25
ATOM     25  C   UNL     1       1.732   1.541   2.865  0.00  0.00    -0.038 A 
ATOM     26  C   UNL     1       2.707   0.695   3.371  0.00  0.00    +0.005 A 
ATOM     27  C   UNL     1       3.989   1.193   3.542  0.00  0.00    +0.020 A 
ATOM     28  C   UNL     1       4.251   2.508   3.206  0.00  0.00    +0.111 A 
ATOM     29  N   UNL     1       3.299   3.284   2.728  0.00  0.00    -0.263 NA
ATOM     30  C   UNL     1       2.070   2.842   2.546  0.00  0.00    +0.113 A 
ENDBRANCH  17  25
ENDBRANCH   6  17
TORSDOF 5
