REMARK  Name = ZINC12139840
REMARK  13 active torsions:
REMARK  status: ('A' for Active; 'I' for Inactive)
REMARK    1  A    between atoms: C_1  and  C_2
REMARK    2  A    between atoms: C_2  and  O_3
REMARK    3  A    between atoms: O_3  and  C_4
REMARK    4  A    between atoms: C_4  and  C_6
REMARK    5  A    between atoms: C_10  and  N_11
REMARK    6  A    between atoms: C_12  and  C_14
REMARK    7  A    between atoms: C_14  and  C_16
REMARK    8  A    between atoms: C_14  and  S_17
REMARK    9  A    between atoms: S_17  and  C_18
REMARK   10  A    between atoms: C_24  and  C_26
REMARK   11  A    between atoms: C_26  and  C_27
REMARK   12  A    between atoms: C_26  and  C_28
REMARK   13  A    between atoms: C_26  and  C_29
REMARK                            x       y       z     vdW  Elec       q    Type
REMARK                         _______ _______ _______ _____ _____    ______ ____
ROOT
ATOM      1  N   UNL     1       1.143   1.898   0.001  0.00  0.00    -0.278 N 
ATOM      2  C   UNL     1      -0.014   1.209   0.009  0.00  0.00    +0.231 C 
ATOM      3  O   UNL     1       0.002  -0.004   0.002  0.00  0.00    -0.274 OA
ATOM      4  H   UNL     1       1.130   2.868   0.007  0.00  0.00    +0.155 HD
ENDROOT
BRANCH   1   9
ATOM      5  C   UNL     1       3.637   1.750  -0.029  0.00  0.00    +0.091 A 
ATOM      6  C   UNL     1       4.748   0.813  -0.039  0.00  0.00    -0.021 A 
ATOM      7  C   UNL     1       4.400  -0.492  -0.044  0.00  0.00    -0.004 A 
ATOM      8  S   UNL     1       2.630  -0.489  -0.026  0.00  0.00    -0.077 S 
ATOM      9  C   UNL     1       2.353   1.222  -0.014  0.00  0.00    +0.086 A 
ATOM     10  C   UNL     1       5.322  -1.672  -0.060  0.00  0.00    +0.043 C 
ATOM     11  C   UNL     1       6.725  -1.185  -0.449  0.00  0.00    +0.005 C 
ATOM     12  C   UNL     1       7.070   0.048   0.392  0.00  0.00    +0.005 C 
ATOM     13  C   UNL     1       6.213   1.235  -0.050  0.00  0.00    +0.037 C 
BRANCH   5  14
ATOM     14  C   UNL     1       3.864   3.197  -0.030  0.00  0.00    +0.342 C 
ATOM     15  O   UNL     1       3.971   3.796   1.023  0.00  0.00    -0.245 OA
BRANCH  14  16
ATOM     16  O   UNL     1       3.953   3.864  -1.199  0.00  0.00    -0.461 OA
BRANCH  16  18
ATOM     17  C   UNL     1       4.251   5.876  -2.538  0.00  0.00    +0.048 C 
ATOM     18  C   UNL     1       4.178   5.297  -1.124  0.00  0.00    +0.229 C 
ENDBRANCH  16  18
ENDBRANCH  14  16
ENDBRANCH   5  14
ENDBRANCH   1   9
BRANCH   2  19
ATOM     19  C   UNL     1      -1.330   1.944   0.019  0.00  0.00    +0.136 C 
ATOM     20  C   UNL     1      -1.720   2.311  -1.414  0.00  0.00    +0.029 C 
BRANCH  19  21
ATOM     21  S   UNL     1      -2.611   0.883   0.742  0.00  0.00    -0.084 S 
BRANCH  21  22
ATOM     22  C   UNL     1      -4.032   1.922   0.819  0.00  0.00    +0.161 A 
ATOM     23  N   UNL     1      -4.182   3.187   0.456  0.00  0.00    -0.133 NA
ATOM     24  N   UNL     1      -5.285   3.788   0.577  0.00  0.00    -0.125 NA
ATOM     25  C   UNL     1      -6.354   3.198   1.084  0.00  0.00    +0.189 A 
ATOM     26  S   UNL     1      -5.682   1.572   1.418  0.00  0.00    -0.024 S 
ATOM     27  N   UNL     1      -7.636   3.697   1.297  0.00  0.00    -0.263 N 
ATOM     28  C   UNL     1      -7.927   4.971   0.965  0.00  0.00    +0.224 C 
ATOM     29  O   UNL     1      -7.071   5.682   0.482  0.00  0.00    -0.275 OA
ATOM     30  H   UNL     1      -8.321   3.129   1.683  0.00  0.00    +0.157 HD
BRANCH  28  31
ATOM     31  C   UNL     1      -9.315   5.512   1.196  0.00  0.00    +0.039 C 
ATOM     32  C   UNL     1      -9.376   6.970   0.737  0.00  0.00    +0.020 C 
ATOM     33  C   UNL     1     -10.324   4.683   0.398  0.00  0.00    +0.020 C 
ATOM     34  C   UNL     1      -9.653   5.431   2.685  0.00  0.00    +0.020 C 
ENDBRANCH  28  31
ENDBRANCH  21  22
ENDBRANCH  19  21
ENDBRANCH   2  19
TORSDOF 8
