REMARK  Name = ZINC36899446
REMARK  2 active torsions:
REMARK  status: ('A' for Active; 'I' for Inactive)
REMARK    1  A    between atoms: C_1  and  C_2
REMARK    2  A    between atoms: C_5  and  N_9
REMARK                            x       y       z     vdW  Elec       q    Type
REMARK                         _______ _______ _______ _____ _____    ______ ____
ROOT
ATOM      1  N   UNL     1       0.059  -4.173  -0.023  0.00  0.00    -0.281 N 
ATOM      2  C   UNL     1      -0.941  -5.013   0.443  0.00  0.00    +0.075 A 
ATOM      3  C   UNL     1      -2.182  -4.800   1.022  0.00  0.00    +0.029 A 
ATOM      4  C   UNL     1      -2.965  -5.877   1.386  0.00  0.00    +0.017 A 
ATOM      5  C   UNL     1      -2.517  -7.174   1.177  0.00  0.00    +0.020 A 
ATOM      6  C   UNL     1      -1.285  -7.403   0.603  0.00  0.00    +0.045 A 
ATOM      7  C   UNL     1      -0.482  -6.324   0.228  0.00  0.00    +0.092 A 
ATOM      8  N   UNL     1       0.747  -6.229  -0.345  0.00  0.00    -0.214 NA
ATOM      9  C   UNL     1       1.066  -4.968  -0.499  0.00  0.00    +0.199 A 
ATOM     10  N   UNL     1       2.241  -4.511  -1.056  0.00  0.00    -0.329 N 
ATOM     11 BR   UNL     1      -3.604  -8.636   1.683  0.00  0.00    -0.050 Br
ATOM     12  H   UNL     1       2.403  -3.557  -1.133  0.00  0.00    +0.145 HD
ATOM     13  H   UNL     1       2.907  -5.142  -1.371  0.00  0.00    +0.145 HD
ENDROOT
BRANCH   1  18
ATOM     14  C   UNL     1      -0.018   1.503   0.010  0.00  0.00    +0.047 C 
ATOM     15  C   UNL     1       0.002  -0.004   0.002  0.00  0.00    -0.015 A 
ATOM     16  C   UNL     1       0.006  -0.688  -1.200  0.00  0.00    +0.008 A 
ATOM     17  C   UNL     1       0.025  -2.068  -1.211  0.00  0.00    +0.027 A 
ATOM     18  C   UNL     1       0.041  -2.772  -0.014  0.00  0.00    +0.052 A 
ATOM     19  C   UNL     1       0.037  -2.085   1.192  0.00  0.00    +0.064 A 
ATOM     20  C   UNL     1       0.023  -0.702   1.198  0.00  0.00    +0.128 A 
ATOM     21  F   UNL     1       0.024  -0.031   2.371  0.00  0.00    -0.205 F 
ENDBRANCH   1  18
TORSDOF 1
