REMARK  Name = ZINC23616767
REMARK  10 active torsions:
REMARK  status: ('A' for Active; 'I' for Inactive)
REMARK    1  A    between atoms: C_1  and  C_2
REMARK    2  A    between atoms: C_2  and  C_3
REMARK    3  A    between atoms: C_8  and  N_9
REMARK    4  A    between atoms: C_10  and  C_12
REMARK    5  A    between atoms: C_12  and  C_14
REMARK    6  A    between atoms: C_12  and  S_15
REMARK    7  A    between atoms: S_15  and  C_16
REMARK    8  A    between atoms: C_19  and  C_22
REMARK    9  A    between atoms: N_20  and  N_21
REMARK   10  A    between atoms: C_26  and  C_27
REMARK                            x       y       z     vdW  Elec       q    Type
REMARK                         _______ _______ _______ _____ _____    ______ ____
ROOT
ATOM      1  S   UNL     1       2.628   0.912   0.548  0.00  0.00    -0.072 S 
ENDROOT
BRANCH   1   2
ATOM      2  C   UNL     1       3.951   2.075   0.571  0.00  0.00    +0.209 A 
ATOM      3  N   UNL     1       3.877   3.346   0.250  0.00  0.00    -0.121 NA
ATOM      4  N   UNL     1       5.028   3.902   0.379  0.00  0.00    -0.127 NA
ATOM      5  C   UNL     1       5.909   3.021   0.790  0.00  0.00    +0.185 A 
ATOM      6  N   UNL     1       5.246   1.824   0.932  0.00  0.00    -0.224 N 
BRANCH   5   7
ATOM      7  C   UNL     1       7.343   3.268   1.057  0.00  0.00    +0.061 A 
ATOM      8  C   UNL     1       8.340   2.294   1.517  0.00  0.00    +0.053 A 
ATOM      9  C   UNL     1       9.498   2.968   1.619  0.00  0.00    +0.196 A 
ATOM     10  O   UNL     1       9.292   4.246   1.266  0.00  0.00    -0.467 OA
ATOM     11  C   UNL     1       8.012   4.445   0.922  0.00  0.00    +0.112 A 
ATOM     12  C   UNL     1       7.414   5.751   0.467  0.00  0.00    +0.087 C 
ENDBRANCH   5   7
BRANCH   6  13
ATOM     13  N   UNL     1       5.772   0.632   1.344  0.00  0.00    -0.295 N 
ATOM     14  H   UNL     1       6.838   0.563   1.607  0.00  0.00    +0.163 HD
ATOM     15  H   UNL     1       5.130  -0.258   1.412  0.00  0.00    +0.163 HD
ENDBRANCH   6  13
ENDBRANCH   1   2
BRANCH   1  16
ATOM     16  C   UNL     1       1.280   1.980  -0.015  0.00  0.00    +0.137 C 
ATOM     17  C   UNL     1       1.568   2.457  -1.440  0.00  0.00    +0.029 C 
BRANCH  16  19
ATOM     18  N   UNL     1      -1.191   1.867   0.018  0.00  0.00    -0.284 N 
ATOM     19  C   UNL     1      -0.014   1.209   0.005  0.00  0.00    +0.230 C 
ATOM     20  O   UNL     1       0.003  -0.004   0.005  0.00  0.00    -0.274 OA
ATOM     21  H   UNL     1      -1.207   2.963   0.110  0.00  0.00    +0.155 HD
BRANCH  18  27
ATOM     22  C   UNL     1      -3.566   1.696   0.418  0.00  0.00    -0.026 A 
ATOM     23  C   UNL     1      -4.750   0.992   0.314  0.00  0.00    +0.005 A 
ATOM     24  C   UNL     1      -4.765  -0.251  -0.292  0.00  0.00    +0.000 A 
ATOM     25  C   UNL     1      -3.596  -0.793  -0.796  0.00  0.00    +0.002 A 
ATOM     26  C   UNL     1      -2.411  -0.091  -0.699  0.00  0.00    +0.023 A 
ATOM     27  C   UNL     1      -2.391   1.155  -0.086  0.00  0.00    +0.037 A 
BRANCH  22  29
ATOM     28  C   UNL     1      -3.680   4.140   0.011  0.00  0.00    +0.009 C 
ATOM     29  C   UNL     1      -3.551   3.051   1.078  0.00  0.00    +0.033 C 
ENDBRANCH  22  29
ENDBRANCH  18  27
ENDBRANCH  16  19
ENDBRANCH   1  16
TORSDOF 7
