REMARK  Name = ZINC35647127
REMARK  10 active torsions:
REMARK  status: ('A' for Active; 'I' for Inactive)
REMARK    1  A    between atoms: C_1  and  C_2
REMARK    2  A    between atoms: N_8  and  C_11
REMARK    3  A    between atoms: C_14  and  O_17
REMARK    4  A    between atoms: O_17  and  C_18
REMARK    5  A    between atoms: N_19  and  C_20
REMARK    6  A    between atoms: C_23  and  N_26
REMARK    7  A    between atoms: N_26  and  S_27
REMARK    8  A    between atoms: S_27  and  C_30
REMARK    9  A    between atoms: C_33  and  O_36
REMARK   10  A    between atoms: O_36  and  C_37
REMARK                            x       y       z     vdW  Elec       q    Type
REMARK                         _______ _______ _______ _____ _____    ______ ____
ROOT
ATOM      1  C   UNL     1      -0.018   1.503   0.010  0.00  0.00    +0.088 C 
ATOM      2  C   UNL     1       0.002  -0.004   0.002  0.00  0.00    +0.130 A 
ATOM      3  N   UNL     1       0.005  -0.632  -1.161  0.00  0.00    -0.217 NA
ATOM      4  C   UNL     1       0.023  -1.959  -1.226  0.00  0.00    +0.133 A 
ATOM      5  C   UNL     1       0.038  -2.688  -0.022  0.00  0.00    +0.079 A 
ATOM      6  C   UNL     1       0.059  -4.061   0.308  0.00  0.00    +0.148 A 
ATOM      7  N   UNL     1       0.067  -4.175   1.606  0.00  0.00    -0.172 NA
ATOM      8  N   UNL     1       0.052  -2.902   2.191  0.00  0.00    -0.214 N 
ATOM      9  C   UNL     1       0.035  -1.972   1.192  0.00  0.00    +0.168 A 
ATOM     10  N   UNL     1       0.022  -0.641   1.152  0.00  0.00    -0.213 NA
ATOM     11  N   UNL     1       0.025  -2.607  -2.446  0.00  0.00    -0.326 N 
ATOM     12  H   UNL     1       0.038  -3.576  -2.480  0.00  0.00    +0.148 HD
ENDROOT
BRANCH   8  13
ATOM     13  C   UNL     1       0.054  -2.631   3.567  0.00  0.00    +0.068 A 
ATOM     14  C   UNL     1       0.726  -1.517   4.054  0.00  0.00    +0.031 A 
ATOM     15  C   UNL     1       0.727  -1.250   5.408  0.00  0.00    +0.048 A 
ATOM     16  C   UNL     1       0.058  -2.094   6.283  0.00  0.00    +0.120 A 
ATOM     17  C   UNL     1      -0.614  -3.206   5.797  0.00  0.00    +0.048 A 
ATOM     18  C   UNL     1      -0.620  -3.472   4.442  0.00  0.00    +0.031 A 
BRANCH  16  19
ATOM     19  O   UNL     1       0.060  -1.830   7.617  0.00  0.00    -0.495 OA
ATOM     20  C   UNL     1      -0.650  -2.740   8.459  0.00  0.00    +0.277 C 
ENDBRANCH  16  19
ENDBRANCH   8  13
BRANCH  11  21
ATOM     21  C   UNL     1       0.008  -1.830  -3.688  0.00  0.00    +0.072 C 
ATOM     22  C   UNL     1      -1.436  -1.473  -4.046  0.00  0.00    +0.024 C 
ATOM     23  C   UNL     1      -2.247  -2.756  -4.236  0.00  0.00    +0.022 C 
ATOM     24  C   UNL     1      -1.632  -3.586  -5.365  0.00  0.00    +0.077 C 
ATOM     25  C   UNL     1      -0.188  -3.943  -5.006  0.00  0.00    +0.022 C 
ATOM     26  C   UNL     1       0.623  -2.660  -4.817  0.00  0.00    +0.024 C 
BRANCH  24  27
ATOM     27  N   UNL     1      -2.408  -4.815  -5.546  0.00  0.00    -0.187 NA
ATOM     28  H   UNL     1      -2.806  -5.255  -4.779  0.00  0.00    +0.148 HD
BRANCH  27  29
ATOM     29  S   UNL     1      -2.607  -5.452  -7.062  0.00  0.00    +0.059 S 
ATOM     30  O   UNL     1      -3.372  -6.640  -6.906  0.00  0.00    -0.153 OA
ATOM     31  O   UNL     1      -3.022  -4.383  -7.901  0.00  0.00    -0.153 OA
BRANCH  29  32
ATOM     32  C   UNL     1      -1.016  -5.950  -7.631  0.00  0.00    +0.105 A 
ATOM     33  C   UNL     1      -0.222  -5.058  -8.327  0.00  0.00    +0.032 A 
ATOM     34  C   UNL     1       1.026  -5.446  -8.775  0.00  0.00    +0.047 A 
ATOM     35  C   UNL     1       1.483  -6.732  -8.525  0.00  0.00    +0.120 A 
ATOM     36  C   UNL     1       0.685  -7.625  -7.825  0.00  0.00    +0.047 A 
ATOM     37  C   UNL     1      -0.560  -7.231  -7.375  0.00  0.00    +0.032 A 
BRANCH  35  38
ATOM     38  O   UNL     1       2.710  -7.116  -8.964  0.00  0.00    -0.495 OA
ATOM     39  C   UNL     1       3.115  -8.454  -8.670  0.00  0.00    +0.277 C 
ENDBRANCH  35  38
ENDBRANCH  29  32
ENDBRANCH  27  29
ENDBRANCH  24  27
ENDBRANCH  11  21
TORSDOF 7
