REMARK  Name = ZINC08743112
REMARK  9 active torsions:
REMARK  status: ('A' for Active; 'I' for Inactive)
REMARK    1  A    between atoms: C_1  and  C_2
REMARK    2  A    between atoms: C_5  and  C_29
REMARK    3  A    between atoms: C_8  and  C_10
REMARK    4  A    between atoms: N_11  and  N_12
REMARK    5  A    between atoms: C_27  and  O_28
REMARK    6  A    between atoms: C_29  and  C_30
REMARK    7  A    between atoms: C_30  and  C_31
REMARK    8  A    between atoms: C_32  and  C_33
REMARK    9  A    between atoms: C_32  and  C_34
REMARK                            x       y       z     vdW  Elec       q    Type
REMARK                         _______ _______ _______ _____ _____    ______ ____
ROOT
ATOM      1  N   UNL     1      -5.374   3.669   0.071  0.00  0.00    -0.145 N 
ATOM      2  C   UNL     1      -4.732   3.124   1.126  0.00  0.00    +0.301 A 
ATOM      3  O   UNL     1      -5.352   2.756   2.110  0.00  0.00    -0.263 OA
ATOM      4  C   UNL     1      -3.329   2.991   1.067  0.00  0.00    +0.133 A 
ATOM      5  C   UNL     1      -2.668   3.428  -0.080  0.00  0.00    +0.107 A 
ATOM      6  C   UNL     1      -1.238   3.169   0.137  0.00  0.00    +0.027 A 
ATOM      7  C   UNL     1      -0.095   3.383  -0.634  0.00  0.00    +0.027 A 
ATOM      8  C   UNL     1       1.139   3.023  -0.141  0.00  0.00    +0.019 A 
ATOM      9  C   UNL     1       1.250   2.448   1.119  0.00  0.00    +0.017 A 
ATOM     10  C   UNL     1       0.132   2.229   1.891  0.00  0.00    +0.027 A 
ATOM     11  C   UNL     1      -1.127   2.582   1.409  0.00  0.00    +0.049 A 
ATOM     12  N   UNL     1      -2.391   2.488   1.954  0.00  0.00    -0.349 N 
ATOM     13  H   UNL     1      -2.594   2.121   2.828  0.00  0.00    +0.166 HD
ATOM     14 BR   UNL     1       2.691   3.313  -1.183  0.00  0.00    -0.050 Br
ATOM     15  N   UNL     1      -3.371   3.961  -1.094  0.00  0.00    -0.193 NA
ATOM     16  C   UNL     1      -4.675   4.079  -1.026  0.00  0.00    +0.320 A 
ENDROOT
BRANCH   1  18
ATOM     17  C   UNL     1      -7.290   4.982   0.120  0.00  0.00    +0.110 C 
ATOM     18  N   UNL     1      -6.768   3.813   0.102  0.00  0.00    -0.172 NA
BRANCH  17  25
ATOM     19  C   UNL     1      -8.398   5.309   2.734  0.00  0.00    +0.008 C 
ATOM     20  C   UNL     1      -9.095   5.947   1.530  0.00  0.00    -0.001 C 
ATOM     21  C   UNL     1     -10.609   5.938   1.748  0.00  0.00    +0.034 C 
ATOM     22  C   UNL     1     -11.316   6.312   0.479  0.00  0.00    -0.073 C 
ATOM     23  C   UNL     1     -10.766   6.289  -0.692  0.00  0.00    -0.027 C 
ATOM     24  C   UNL     1      -9.339   5.894  -0.943  0.00  0.00    +0.036 C 
ATOM     25  C   UNL     1      -8.782   5.138   0.265  0.00  0.00    +0.039 C 
BRANCH  22  26
ATOM     26  C   UNL     1     -12.758   6.742   0.573  0.00  0.00    +0.034 C 
BRANCH  26  27
ATOM     27  C   UNL     1     -13.660   5.506   0.561  0.00  0.00    +0.031 C 
BRANCH  27  28
ATOM     28  C   UNL     1     -15.102   5.936   0.655  0.00  0.00    -0.028 C 
ATOM     29  C   UNL     1     -15.963   5.542  -0.249  0.00  0.00    -0.080 C 
ATOM     30  C   UNL     1     -15.492   4.762  -1.450  0.00  0.00    +0.038 C 
ATOM     31  C   UNL     1     -17.426   5.869  -0.089  0.00  0.00    +0.038 C 
ENDBRANCH  27  28
ENDBRANCH  26  27
ENDBRANCH  22  26
ENDBRANCH  17  25
ENDBRANCH   1  18
BRANCH  16  32
ATOM     32  O   UNL     1      -5.342   4.620  -2.068  0.00  0.00    -0.478 OA
ATOM     33  H   UNL     1      -4.774   4.885  -2.804  0.00  0.00    +0.295 HD
ENDBRANCH  16  32
TORSDOF 6
