REMARK  Name = ZINC09288352
REMARK  5 active torsions:
REMARK  status: ('A' for Active; 'I' for Inactive)
REMARK    1  A    between atoms: C_5  and  C_7
REMARK    2  A    between atoms: C_10  and  S_12
REMARK    3  A    between atoms: S_12  and  C_13
REMARK    4  A    between atoms: C_13  and  C_14
REMARK    5  A    between atoms: N_16  and  C_17
REMARK                            x       y       z     vdW  Elec       q    Type
REMARK                         _______ _______ _______ _____ _____    ______ ____
ROOT
ATOM      1  S   UNL     1       3.789   0.842  -0.054  0.00  0.00    -0.056 S 
ENDROOT
BRANCH   1   5
ATOM      2  C   UNL     1       0.003  -0.006  -0.053  0.00  0.00    +0.250 A 
ATOM      3  N   UNL     1      -0.015   1.304  -0.043  0.00  0.00    -0.106 NA
ATOM      4  N   UNL     1       1.192   1.749  -0.042  0.00  0.00    -0.101 NA
ATOM      5  C   UNL     1       2.030   0.738  -0.051  0.00  0.00    +0.278 A 
ATOM      6  O   UNL     1       1.299  -0.392  -0.059  0.00  0.00    -0.411 OA
BRANCH   2  11
ATOM      7  C   UNL     1      -2.110  -3.109  -0.073  0.00  0.00    +0.001 A 
ATOM      8  C   UNL     1      -3.384  -2.568  -0.066  0.00  0.00    +0.001 A 
ATOM      9  C   UNL     1      -3.559  -1.196  -0.054  0.00  0.00    +0.016 A 
ATOM     10  C   UNL     1      -2.463  -0.357  -0.050  0.00  0.00    +0.030 A 
ATOM     11  C   UNL     1      -1.175  -0.897  -0.057  0.00  0.00    +0.052 A 
ATOM     12  C   UNL     1      -1.006  -2.283  -0.074  0.00  0.00    +0.014 A 
ATOM     13 BR   UNL     1      -2.704   1.518  -0.035  0.00  0.00    -0.050 Br
ENDBRANCH   2  11
ENDBRANCH   1   5
BRANCH   1  14
ATOM     14  C   UNL     1       3.998   2.640  -0.040  0.00  0.00    +0.175 C 
BRANCH  14  15
ATOM     15  C   UNL     1       5.468   2.975  -0.041  0.00  0.00    +0.228 C 
ATOM     16  O   UNL     1       6.292   2.086  -0.050  0.00  0.00    -0.275 OA
ATOM     17  N   UNL     1       5.865   4.263  -0.031  0.00  0.00    -0.284 N 
ATOM     18  H   UNL     1       5.208   4.973  -0.089  0.00  0.00    +0.155 HD
BRANCH  17  19
ATOM     19  C   UNL     1       7.227   4.574   0.063  0.00  0.00    +0.052 A 
ATOM     20  C   UNL     1       8.171   3.755  -0.541  0.00  0.00    +0.026 A 
ATOM     21  C   UNL     1       9.514   4.065  -0.447  0.00  0.00    +0.022 A 
ATOM     22  C   UNL     1       9.919   5.191   0.248  0.00  0.00    +0.042 A 
ATOM     23  C   UNL     1       8.981   6.009   0.852  0.00  0.00    +0.041 A 
ATOM     24  C   UNL     1       7.636   5.706   0.757  0.00  0.00    +0.064 A 
ATOM     25 CL   UNL     1       6.458   6.737   1.510  0.00  0.00    -0.082 Cl
ATOM     26 CL   UNL     1      11.608   5.576   0.364  0.00  0.00    -0.083 Cl
ENDBRANCH  17  19
ENDBRANCH  14  15
ENDBRANCH   1  14
TORSDOF 5
