REMARK  Name = ZINC06198140
REMARK  13 active torsions:
REMARK  status: ('A' for Active; 'I' for Inactive)
REMARK    1  A    between atoms: C_1  and  C_2
REMARK    2  A    between atoms: C_2  and  C_3
REMARK    3  A    between atoms: C_10  and  C_15
REMARK    4  A    between atoms: C_15  and  C_17
REMARK    5  A    between atoms: C_15  and  N_69
REMARK    6  A    between atoms: N_21  and  C_22
REMARK    7  A    between atoms: C_22  and  C_23
REMARK    8  A    between atoms: C_22  and  C_24
REMARK    9  A    between atoms: C_22  and  C_25
REMARK   10  A    between atoms: C_26  and  C_27
REMARK   11  A    between atoms: C_26  and  N_69
REMARK   12  A    between atoms: C_33  and  C_34
REMARK   13  A    between atoms: C_33  and  N_69
REMARK                            x       y       z     vdW  Elec       q    Type
REMARK                         _______ _______ _______ _____ _____    ______ ____
ROOT
ATOM      1  C   UNL     1       5.993  -0.420  -0.635  0.00  0.00    +0.040 C 
ENDROOT
BRANCH   1   9
ATOM      2  C   UNL     1       0.123   0.248  -2.477  0.00  0.00    -0.047 A 
ATOM      3  C   UNL     1       0.082   1.631  -2.366  0.00  0.00    +0.005 A 
ATOM      4  C   UNL     1       1.188   2.336  -1.945  0.00  0.00    +0.026 A 
ATOM      5  C   UNL     1       2.360   1.657  -1.627  0.00  0.00    +0.049 A 
ATOM      6  C   UNL     1       2.398   0.255  -1.740  0.00  0.00    -0.001 A 
ATOM      7  C   UNL     1       1.263  -0.441  -2.170  0.00  0.00    +0.013 A 
ATOM      8  C   UNL     1       3.635  -0.451  -1.402  0.00  0.00    +0.017 A 
ATOM      9  C   UNL     1       4.704   0.276  -0.991  0.00  0.00    +0.011 A 
ATOM     10  C   UNL     1       4.613   1.681  -0.894  0.00  0.00    +0.251 A 
ATOM     11  O   UNL     1       5.585   2.314  -0.522  0.00  0.00    -0.268 OA
ATOM     12  N   UNL     1       3.481   2.337  -1.202  0.00  0.00    -0.322 N 
ATOM     13  H   UNL     1       3.452   3.334  -1.122  0.00  0.00    +0.169 HD
BRANCH   2  15
ATOM     14  C   UNL     1      -1.071  -0.633  -4.463  0.00  0.00    +0.009 C 
ATOM     15  C   UNL     1      -1.100  -0.502  -2.939  0.00  0.00    +0.032 C 
ENDBRANCH   2  15
ENDBRANCH   1   9
BRANCH   1  16
ATOM     16  C   UNL     1       6.277  -0.231   0.832  0.00  0.00    +0.143 A 
ATOM     17  N   UNL     1       6.738   0.853   1.407  0.00  0.00    -0.115 NA
ATOM     18  N   UNL     1       6.846   0.620   2.669  0.00  0.00    -0.023 NA
ATOM     19  N   UNL     1       6.465  -0.585   2.915  0.00  0.00    -0.043 NA
ATOM     20  N   UNL     1       6.102  -1.141   1.809  0.00  0.00    -0.225 N 
BRANCH  20  21
ATOM     21  C   UNL     1       5.598  -2.506   1.645  0.00  0.00    +0.059 C 
ATOM     22  C   UNL     1       6.572  -3.310   0.783  0.00  0.00    +0.036 C 
ATOM     23  C   UNL     1       5.465  -3.169   3.018  0.00  0.00    +0.036 C 
ATOM     24  C   UNL     1       4.228  -2.466   0.964  0.00  0.00    +0.036 C 
ENDBRANCH  20  21
ENDBRANCH   1  16
BRANCH   1  25
ATOM     25  N   UNL     1       7.096   0.179  -1.416  0.00  0.00    +0.397 N 
ATOM     26  H   UNL     1       7.256   1.138  -1.086  0.00  0.00    -0.079 HD
BRANCH  25  27
ATOM     27  C   UNL     1       8.334  -0.607  -1.225  0.00  0.00    -0.041 C 
BRANCH  27  28
ATOM     28  C   UNL     1       8.973  -0.190   0.075  0.00  0.00    -0.064 A 
ATOM     29  C   UNL     1       9.595   1.040   0.176  0.00  0.00    +0.002 A 
ATOM     30  C   UNL     1      10.177   1.424   1.370  0.00  0.00    +0.000 A 
ATOM     31  C   UNL     1      10.146   0.573   2.459  0.00  0.00    +0.000 A 
ATOM     32  C   UNL     1       9.528  -0.659   2.356  0.00  0.00    +0.000 A 
ATOM     33  C   UNL     1       8.941  -1.041   1.164  0.00  0.00    +0.002 A 
ENDBRANCH  27  28
ENDBRANCH  25  27
BRANCH  25  34
ATOM     34  C   UNL     1       6.738   0.217  -2.849  0.00  0.00    -0.001 C 
BRANCH  34  35
ATOM     35  C   UNL     1       7.692   1.141  -3.562  0.00  0.00    +0.089 A 
ATOM     36  C   UNL     1       8.798   0.768  -4.230  0.00  0.00    +0.042 A 
ATOM     37  C   UNL     1       9.388   1.948  -4.737  0.00  0.00    +0.041 A 
ATOM     38  C   UNL     1       8.607   2.972  -4.349  0.00  0.00    +0.195 A 
ATOM     39  O   UNL     1       7.578   2.477  -3.642  0.00  0.00    -0.470 OA
ENDBRANCH  34  35
ENDBRANCH  25  34
ENDBRANCH   1  25
TORSDOF 9
