REMARK  Name = ZINC15859309
REMARK  7 active torsions:
REMARK  status: ('A' for Active; 'I' for Inactive)
REMARK    1  A    between atoms: C_1  and  O_2
REMARK    2  A    between atoms: O_2  and  C_3
REMARK    3  A    between atoms: C_8  and  C_9
REMARK    4  A    between atoms: C_9  and  C_11
REMARK    5  A    between atoms: C_9  and  N_58
REMARK    6  A    between atoms: C_12  and  N_20
REMARK    7  A    between atoms: C_21  and  C_23
REMARK                            x       y       z     vdW  Elec       q    Type
REMARK                         _______ _______ _______ _____ _____    ______ ____
ROOT
ATOM      1  C   UNL     1      -1.532   5.478   0.271  0.00  0.00    +0.118 A 
ATOM      2  C   UNL     1      -1.956   4.216   0.076  0.00  0.00    +0.082 A 
ATOM      3  C   UNL     1      -0.778   3.454  -0.364  0.00  0.00    +0.042 A 
ATOM      4  C   UNL     1      -0.556   2.126  -0.725  0.00  0.00    +0.013 A 
ATOM      5  C   UNL     1       0.698   1.723  -1.093  0.00  0.00    +0.001 A 
ATOM      6  C   UNL     1       1.747   2.631  -1.121  0.00  0.00    +0.004 A 
ATOM      7  C   UNL     1       1.546   3.949  -0.772  0.00  0.00    +0.047 A 
ATOM      8  C   UNL     1       0.280   4.377  -0.389  0.00  0.00    +0.137 A 
ATOM      9  O   UNL     1      -0.216   5.570  -0.004  0.00  0.00    -0.459 OA
ENDROOT
BRANCH   2  10
ATOM     10  N   UNL     1      -3.260   3.726   0.257  0.00  0.00    -0.276 N 
ATOM     11  C   UNL     1      -3.457   2.421   0.531  0.00  0.00    +0.284 C 
ATOM     12  O   UNL     1      -2.503   1.682   0.691  0.00  0.00    -0.266 OA
ATOM     13  H   UNL     1      -4.018   4.326   0.184  0.00  0.00    +0.155 HD
BRANCH  11  14
ATOM     14  C   UNL     1      -4.821   1.892   0.635  0.00  0.00    +0.189 A 
ATOM     15  C   UNL     1      -5.160   0.598   0.906  0.00  0.00    +0.054 A 
ATOM     16  C   UNL     1      -6.563   0.541   0.911  0.00  0.00    +0.042 A 
ATOM     17  C   UNL     1      -7.012   1.788   0.646  0.00  0.00    +0.196 A 
ATOM     18  O   UNL     1      -5.959   2.600   0.486  0.00  0.00    -0.458 OA
ENDBRANCH  11  14
ENDBRANCH   2  10
BRANCH   1  19
ATOM     19  C   UNL     1      -2.401   6.620   0.729  0.00  0.00    +0.035 C 
BRANCH  19  25
ATOM     20  C   UNL     1      -3.094   8.880   0.208  0.00  0.00    -0.077 C 
ATOM     21  C   UNL     1      -2.746  10.117  -0.625  0.00  0.00    -0.019 C 
ATOM     22  C   UNL     1      -2.880   9.779  -2.112  0.00  0.00    -0.004 C 
ATOM     23  C   UNL     1      -1.963   8.599  -2.444  0.00  0.00    -0.019 C 
ATOM     24  C   UNL     1      -2.333   7.406  -1.559  0.00  0.00    -0.077 C 
ATOM     25  N   UNL     1      -2.160   7.789  -0.142  0.00  0.00    +0.389 N 
ATOM     26  H   UNL     1      -1.197   8.116  -0.000  0.00  0.00    -0.080 HD
ENDBRANCH  19  25
BRANCH  19  32
ATOM     27  C   UNL     1      -2.638   6.324   3.208  0.00  0.00    +0.122 A 
ATOM     28  C   UNL     1      -2.305   6.664   4.511  0.00  0.00    +0.046 A 
ATOM     29  C   UNL     1      -1.380   7.662   4.748  0.00  0.00    +0.004 A 
ATOM     30  C   UNL     1      -0.786   8.322   3.687  0.00  0.00    +0.000 A 
ATOM     31  C   UNL     1      -1.113   7.981   2.388  0.00  0.00    +0.006 A 
ATOM     32  C   UNL     1      -2.042   6.987   2.146  0.00  0.00    -0.012 A 
BRANCH  27  34
ATOM     33  C   UNL     1      -4.122   4.702   4.114  0.00  0.00    +0.277 C 
ATOM     34  O   UNL     1      -3.549   5.342   2.972  0.00  0.00    -0.495 OA
ENDBRANCH  27  34
ENDBRANCH  19  32
ENDBRANCH   1  19
TORSDOF 6
