REMARK  Name = ZINC22449220
REMARK  3 active torsions:
REMARK  status: ('A' for Active; 'I' for Inactive)
REMARK    1  A    between atoms: C_1  and  C_2
REMARK    2  A    between atoms: C_3  and  C_16
REMARK    3  A    between atoms: C_16  and  C_17
REMARK                            x       y       z     vdW  Elec       q    Type
REMARK                         _______ _______ _______ _____ _____    ______ ____
ROOT
ATOM      1  C   UNL     1       0.024   0.358   2.656  0.00  0.00    +0.066 C 
ATOM      2  C   UNL     1       0.131  -0.532   1.445  0.00  0.00    +0.050 A 
ATOM      3  C   UNL     1       0.111   0.013   0.195  0.00  0.00    +0.042 A 
ATOM      4  C   UNL     1       0.206  -0.840  -0.920  0.00  0.00    +0.256 A 
ATOM      5  O   UNL     1       0.187  -0.387  -2.053  0.00  0.00    -0.267 OA
ATOM      6  N   UNL     1       0.326  -2.168  -0.712  0.00  0.00    -0.295 N 
ATOM      7  H   UNL     1       0.411  -2.853  -1.569  0.00  0.00    +0.172 HD
ATOM      8  C   UNL     1       0.341  -2.655   0.558  0.00  0.00    +0.198 A 
ATOM      9  N   UNL     1       0.245  -1.850   1.598  0.00  0.00    -0.221 NA
ATOM     10  N   UNL     1       0.457  -4.004   0.761  0.00  0.00    -0.301 N 
ATOM     11  C   UNL     1      -0.525  -4.743  -0.043  0.00  0.00    +0.108 C 
ATOM     12  C   UNL     1      -0.273  -6.246   0.096  0.00  0.00    +0.019 C 
ATOM     13  C   UNL     1      -0.388  -6.644   1.570  0.00  0.00    +0.003 C 
ATOM     14  C   UNL     1       0.612  -5.825   2.391  0.00  0.00    +0.019 C 
ATOM     15  C   UNL     1       0.334  -4.335   2.186  0.00  0.00    +0.108 C 
ENDROOT
BRANCH   3  16
ATOM     16  C   UNL     1      -0.018   1.503   0.010  0.00  0.00    +0.079 C 
BRANCH  16  17
ATOM     17  C   UNL     1       1.350   2.106  -0.180  0.00  0.00    -0.025 A 
ATOM     18  C   UNL     1       2.142   2.381   0.919  0.00  0.00    +0.005 A 
ATOM     19  C   UNL     1       3.399   2.930   0.744  0.00  0.00    +0.000 A 
ATOM     20  C   UNL     1       3.860   3.213  -0.528  0.00  0.00    +0.001 A 
ATOM     21  C   UNL     1       3.066   2.943  -1.627  0.00  0.00    +0.020 A 
ATOM     22  C   UNL     1       1.810   2.389  -1.453  0.00  0.00    +0.044 A 
ATOM     23 CL   UNL     1       0.813   2.048  -2.833  0.00  0.00    -0.083 Cl
ENDBRANCH  16  17
ENDBRANCH   3  16
TORSDOF 2
