REMARK  Name = ZINC13995675
REMARK  7 active torsions:
REMARK  status: ('A' for Active; 'I' for Inactive)
REMARK    1  A    between atoms: C_1  and  C_2
REMARK    2  A    between atoms: C_2  and  C_3
REMARK    3  A    between atoms: C_2  and  C_4
REMARK    4  A    between atoms: C_2  and  C_5
REMARK    5  A    between atoms: C_6  and  C_11
REMARK    6  A    between atoms: C_11  and  N_53
REMARK    7  A    between atoms: N_14  and  C_18
REMARK                            x       y       z     vdW  Elec       q    Type
REMARK                         _______ _______ _______ _____ _____    ______ ____
ROOT
ATOM      1  C   UNL     1       2.377   5.568   1.108  0.00  0.00    -0.058 C 
ATOM      2  C   UNL     1       2.272   6.234   2.482  0.00  0.00    +0.089 C 
ATOM      3  N   UNL     1       2.550   5.258   3.533  0.00  0.00    -0.302 N 
ATOM      4  C   UNL     1       2.500   3.938   3.330  0.00  0.00    +0.199 C 
ATOM      5  O   UNL     1       2.714   3.198   4.267  0.00  0.00    -0.278 OA
ATOM      6  C   UNL     1       2.188   3.332   1.991  0.00  0.00    +0.019 C 
ATOM      7  N   UNL     1       1.551   4.345   1.129  0.00  0.00    +0.389 N 
ATOM      8  H   UNL     1       0.624   4.572   1.507  0.00  0.00    -0.081 HD
ENDROOT
BRANCH   3   9
ATOM      9  C   UNL     1       2.898   5.749   4.869  0.00  0.00    +0.076 C 
ATOM     10  C   UNL     1       4.290   5.243   5.251  0.00  0.00    +0.022 C 
ATOM     11  C   UNL     1       4.653   5.755   6.646  0.00  0.00    +0.002 C 
ATOM     12  C   UNL     1       3.628   5.244   7.660  0.00  0.00    +0.000 C 
ATOM     13  C   UNL     1       2.236   5.750   7.278  0.00  0.00    +0.002 C 
ATOM     14  C   UNL     1       1.873   5.237   5.883  0.00  0.00    +0.022 C 
ENDBRANCH   3   9
BRANCH   7  15
ATOM     15  C   UNL     1       1.393   3.814  -0.245  0.00  0.00    -0.039 C 
BRANCH  15  17
ATOM     16  C   UNL     1      -1.002   2.830  -0.235  0.00  0.00    +0.069 A 
ATOM     17  C   UNL     1       0.390   2.691  -0.225  0.00  0.00    -0.023 A 
ATOM     18  C   UNL     1       0.675   1.368  -0.194  0.00  0.00    +0.107 A 
ATOM     19  N   UNL     1      -0.494   0.695  -0.185  0.00  0.00    -0.284 N 
ATOM     20  H   UNL     1      -0.600  -0.299  -0.159  0.00  0.00    +0.188 HD
ATOM     21  N   UNL     1      -1.533   1.634  -0.217  0.00  0.00    -0.178 NA
BRANCH  16  23
ATOM     22  C   UNL     1      -1.490   4.846  -1.595  0.00  0.00    +0.017 C 
ATOM     23  C   UNL     1      -1.759   4.133  -0.269  0.00  0.00    +0.006 C 
ATOM     24  C   UNL     1      -3.258   3.855  -0.135  0.00  0.00    +0.017 C 
ATOM     25  C   UNL     1      -1.299   5.020   0.890  0.00  0.00    +0.017 C 
ENDBRANCH  16  23
ENDBRANCH  15  17
ENDBRANCH   7  15
TORSDOF 4
