REMARK  Name = ZINC19790685
REMARK  13 active torsions:
REMARK  status: ('A' for Active; 'I' for Inactive)
REMARK    1  A    between atoms: C_1  and  C_2
REMARK    2  A    between atoms: C_6  and  C_40
REMARK    3  A    between atoms: C_8  and  O_11
REMARK    4  A    between atoms: O_11  and  C_12
REMARK    5  A    between atoms: C_12  and  C_13
REMARK    6  A    between atoms: C_13  and  C_15
REMARK    7  A    between atoms: C_13  and  O_39
REMARK    8  A    between atoms: C_15  and  N_16
REMARK    9  A    between atoms: N_19  and  C_22
REMARK   10  A    between atoms: C_22  and  C_23
REMARK   11  A    between atoms: C_23  and  N_24
REMARK   12  A    between atoms: C_40  and  C_41
REMARK   13  A    between atoms: C_40  and  C_42
REMARK                            x       y       z     vdW  Elec       q    Type
REMARK                         _______ _______ _______ _____ _____    ______ ____
ROOT
ATOM      1  N   UNL     1       1.405  -4.274   4.539  0.00  0.00    -0.303 NA
ATOM      2  C   UNL     1       2.418  -3.282   4.923  0.00  0.00    +0.066 C 
ATOM      3  C   UNL     1       3.039  -3.684   6.263  0.00  0.00    -0.063 C 
ATOM      4  N   UNL     1       3.637  -5.021   6.141  0.00  0.00    +0.382 N 
ATOM      5  C   UNL     1       2.624  -6.014   5.756  0.00  0.00    -0.063 C 
ATOM      6  C   UNL     1       2.002  -5.612   4.417  0.00  0.00    +0.066 C 
ATOM      7  H   UNL     1       4.395  -4.983   5.345  0.00  0.00    -0.082 HD
ENDROOT
BRANCH   1   8
ATOM      8  C   UNL     1       0.731  -3.883   3.293  0.00  0.00    +0.117 C 
BRANCH   8   9
ATOM      9  C   UNL     1      -0.084  -2.611   3.533  0.00  0.00    +0.154 C 
BRANCH   9  10
ATOM     10  O   UNL     1      -1.061  -2.854   4.547  0.00  0.00    -0.388 OA
ATOM     11  H   UNL     1      -0.743  -3.160   5.555  0.00  0.00    +0.210 HD
ENDBRANCH   9  10
BRANCH   9  12
ATOM     12  C   UNL     1      -0.786  -2.203   2.236  0.00  0.00    +0.192 C 
BRANCH  12  13
ATOM     13  O   UNL     1      -1.452  -0.954   2.427  0.00  0.00    -0.374 OA
BRANCH  13  19
ATOM     14  C   UNL     1      -5.730  -1.046   2.550  0.00  0.00    +0.007 C 
ATOM     15  C   UNL     1      -4.295  -0.516   2.539  0.00  0.00    -0.012 C 
ATOM     16  C   UNL     1      -4.316   1.014   2.547  0.00  0.00    +0.004 C 
ATOM     17  C   UNL     1      -2.880   1.543   2.537  0.00  0.00    +0.006 C 
ATOM     18  C   UNL     1      -2.164   1.050   1.278  0.00  0.00    +0.020 C 
ATOM     19  C   UNL     1      -2.143  -0.480   1.269  0.00  0.00    +0.122 C 
ATOM     20  C   UNL     1      -3.579  -1.010   1.280  0.00  0.00    +0.035 C 
BRANCH  18  21
ATOM     21  C   UNL     1      -0.729   1.579   1.267  0.00  0.00    -0.012 C 
ATOM     22  C   UNL     1      -0.013   1.086   0.008  0.00  0.00    +0.007 C 
ATOM     23  C   UNL     1      -0.750   3.109   1.275  0.00  0.00    +0.007 C 
ENDBRANCH  18  21
ENDBRANCH  13  19
ENDBRANCH  12  13
ENDBRANCH   9  12
ENDBRANCH   8   9
ENDBRANCH   1   8
BRANCH   4  24
ATOM     24  C   UNL     1       4.311  -5.412   7.386  0.00  0.00    -0.059 C 
BRANCH  24  25
ATOM     25  C   UNL     1       5.171  -4.250   7.887  0.00  0.00    +0.098 C 
BRANCH  25  26
ATOM     26  N   UNL     1       5.843  -4.641   9.129  0.00  0.00    -0.236 N 
ATOM     27  C   UNL     1       5.228  -4.400  10.302  0.00  0.00    +0.254 C 
ATOM     28  O   UNL     1       4.135  -3.867  10.314  0.00  0.00    -0.270 OA
ATOM     29  C   UNL     1       5.869  -4.781  11.569  0.00  0.00    +0.046 A 
ATOM     30  C   UNL     1       5.270  -4.556  12.800  0.00  0.00    +0.014 A 
ATOM     31  C   UNL     1       5.918  -4.930  13.971  0.00  0.00    +0.001 A 
ATOM     32  C   UNL     1       7.148  -5.523  13.950  0.00  0.00    +0.008 A 
ATOM     33  C   UNL     1       7.789  -5.769  12.724  0.00  0.00    -0.016 A 
ATOM     34  C   UNL     1       7.142  -5.394  11.528  0.00  0.00    +0.006 A 
ATOM     35  C   UNL     1       7.761  -5.627  10.279  0.00  0.00    +0.046 A 
ATOM     36  C   UNL     1       9.011  -6.229  10.249  0.00  0.00    +0.014 A 
ATOM     37  C   UNL     1       9.639  -6.594  11.434  0.00  0.00    +0.001 A 
ATOM     38  C   UNL     1       9.055  -6.376  12.650  0.00  0.00    +0.008 A 
ATOM     39  C   UNL     1       7.056  -5.222   9.055  0.00  0.00    +0.254 C 
ATOM     40  O   UNL     1       7.569  -5.413   7.969  0.00  0.00    -0.270 OA
ENDBRANCH  25  26
ENDBRANCH  24  25
ENDBRANCH   4  24
TORSDOF 10
