REMARK  Name = ZINC57641575
REMARK  14 active torsions:
REMARK  status: ('A' for Active; 'I' for Inactive)
REMARK    1  A    between atoms: C_1  and  C_2
REMARK    2  A    between atoms: C_2  and  C_3
REMARK    3  A    between atoms: C_3  and  C_5
REMARK    4  A    between atoms: C_3  and  N_18
REMARK    5  A    between atoms: N_9  and  C_10
REMARK    6  A    between atoms: C_10  and  C_11
REMARK    7  A    between atoms: C_11  and  C_12
REMARK    8  A    between atoms: N_18  and  C_19
REMARK    9  A    between atoms: N_18  and  C_27
REMARK   10  A    between atoms: C_19  and  C_20
REMARK   11  A    between atoms: C_23  and  C_26
REMARK   12  A    between atoms: C_27  and  C_28
REMARK   13  A    between atoms: C_32  and  C_41
REMARK   14  A    between atoms: C_33  and  C_40
REMARK                            x       y       z     vdW  Elec       q    Type
REMARK                         _______ _______ _______ _____ _____    ______ ____
ROOT
ATOM      1  N   UNL     1      -0.160  -0.265  -2.482  0.00  0.00    -0.284 NA
ENDROOT
BRANCH   1   2
ATOM      2  C   UNL     1       0.881  -0.586  -1.497  0.00  0.00    +0.127 C 
BRANCH   2   3
ATOM      3  C   UNL     1       2.238  -0.313  -2.094  0.00  0.00    +0.168 A 
ATOM      4  N   UNL     1       2.646  -0.644  -3.295  0.00  0.00    -0.112 NA
ATOM      5  N   UNL     1       3.861  -0.237  -3.429  0.00  0.00    -0.023 NA
ATOM      6  N   UNL     1       4.239   0.344  -2.344  0.00  0.00    -0.044 NA
ATOM      7  N   UNL     1       3.264   0.322  -1.499  0.00  0.00    -0.227 N 
BRANCH   7   8
ATOM      8  C   UNL     1       3.275   0.881  -0.144  0.00  0.00    +0.152 C 
BRANCH   8   9
ATOM      9  C   UNL     1       3.758  -0.183   0.843  0.00  0.00    +0.058 C 
BRANCH   9  10
ATOM     10  C   UNL     1       3.769   0.391   2.236  0.00  0.00    -0.046 A 
ATOM     11  C   UNL     1       4.900   1.026   2.713  0.00  0.00    +0.004 A 
ATOM     12  C   UNL     1       4.910   1.553   3.991  0.00  0.00    +0.000 A 
ATOM     13  C   UNL     1       3.788   1.446   4.791  0.00  0.00    +0.000 A 
ATOM     14  C   UNL     1       2.656   0.813   4.313  0.00  0.00    +0.000 A 
ATOM     15  C   UNL     1       2.645   0.289   3.034  0.00  0.00    +0.004 A 
ENDBRANCH   9  10
ENDBRANCH   8   9
ENDBRANCH   7   8
ENDBRANCH   2   3
BRANCH   2  17
ATOM     16  C   UNL     1      -0.552  -2.317  -0.406  0.00  0.00    +0.006 C 
ATOM     17  C   UNL     1       0.781  -2.063  -1.113  0.00  0.00    +0.023 C 
ENDBRANCH   2  17
ENDBRANCH   1   2
BRANCH   1  18
ATOM     18  C   UNL     1       0.089  -0.953  -3.756  0.00  0.00    +0.120 C 
BRANCH  18  19
ATOM     19  C   UNL     1      -1.166  -0.937  -4.589  0.00  0.00    -0.033 A 
ATOM     20  C   UNL     1      -2.138  -1.900  -4.393  0.00  0.00    +0.005 A 
ATOM     21  C   UNL     1      -3.290  -1.886  -5.157  0.00  0.00    +0.003 A 
ATOM     22  C   UNL     1      -3.469  -0.908  -6.119  0.00  0.00    -0.050 A 
ATOM     23  C   UNL     1      -2.498   0.055  -6.314  0.00  0.00    +0.003 A 
ATOM     24  C   UNL     1      -1.348   0.043  -5.547  0.00  0.00    +0.005 A 
ATOM     25  C   UNL     1      -4.724  -0.893  -6.953  0.00  0.00    +0.044 C 
ENDBRANCH  18  19
ENDBRANCH   1  18
BRANCH   1  26
ATOM     26  C   UNL     1      -0.268   1.187  -2.680  0.00  0.00    +0.126 C 
BRANCH  26  27
ATOM     27  C   UNL     1      -0.995   1.801  -1.511  0.00  0.00    +0.031 A 
ATOM     28  C   UNL     1      -0.291   2.365  -0.499  0.00  0.00    +0.020 A 
ATOM     29  C   UNL     1      -1.028   2.953   0.622  0.00  0.00    -0.001 A 
ATOM     30  C   UNL     1      -0.357   3.550   1.694  0.00  0.00    +0.013 A 
ATOM     31  C   UNL     1      -1.074   4.090   2.725  0.00  0.00    -0.047 A 
ATOM     32  C   UNL     1      -2.462   4.052   2.717  0.00  0.00    -0.046 A 
ATOM     33  C   UNL     1      -3.143   3.469   1.670  0.00  0.00    +0.030 A 
ATOM     34  C   UNL     1      -2.435   2.913   0.610  0.00  0.00    +0.049 A 
ATOM     35  N   UNL     1      -3.091   2.324  -0.450  0.00  0.00    -0.322 N 
ATOM     36  H   UNL     1      -4.060   2.297  -0.457  0.00  0.00    +0.169 HD
ATOM     37  C   UNL     1      -2.406   1.791  -1.477  0.00  0.00    +0.254 A 
ATOM     38  O   UNL     1      -3.019   1.283  -2.400  0.00  0.00    -0.268 OA
ATOM     39  C   UNL     1      -3.231   4.654   3.864  0.00  0.00    +0.044 C 
ATOM     40  C   UNL     1      -0.351   4.733   3.880  0.00  0.00    +0.044 C 
ENDBRANCH  26  27
ENDBRANCH   1  26
TORSDOF 10
