REMARK  Name = ZINC59019478
REMARK  8 active torsions:
REMARK  status: ('A' for Active; 'I' for Inactive)
REMARK    1  A    between atoms: C_1  and  C_2
REMARK    2  A    between atoms: C_5  and  C_8
REMARK    3  A    between atoms: N_9  and  N_10
REMARK    4  A    between atoms: C_13  and  S_16
REMARK    5  A    between atoms: S_16  and  C_17
REMARK    6  A    between atoms: C_17  and  C_18
REMARK    7  A    between atoms: N_20  and  C_21
REMARK    8  A    between atoms: C_24  and  C_28
REMARK                            x       y       z     vdW  Elec       q    Type
REMARK                         _______ _______ _______ _____ _____    ______ ____
ROOT
ATOM      1  N   UNL     1       0.032  -6.302   1.093  0.00  0.00    -0.205 N 
ATOM      2  C   UNL     1       0.057  -7.000   2.287  0.00  0.00    +0.232 A 
ATOM      3  N   UNL     1       0.059  -6.472   3.493  0.00  0.00    -0.186 NA
ATOM      4  C   UNL     1       0.086  -7.444   4.410  0.00  0.00    +0.211 A 
ATOM      5  N   UNL     1       0.102  -8.606   3.800  0.00  0.00    -0.144 NA
ATOM      6  N   UNL     1       0.077  -8.343   2.420  0.00  0.00    -0.245 N 
ATOM      7  H   UNL     1       0.028  -6.782   0.251  0.00  0.00    +0.177 HD
ATOM      8  H   UNL     1       0.077  -8.998   1.705  0.00  0.00    +0.192 HD
ENDROOT
BRANCH   1  10
ATOM      9  C   UNL     1      -0.011  -4.246  -0.019  0.00  0.00    +0.138 C 
ATOM     10  N   UNL     1       0.012  -4.901   1.101  0.00  0.00    -0.188 NA
BRANCH   9  15
ATOM     11  C   UNL     1      -0.092   1.505   0.015  0.00  0.00    +0.044 C 
ATOM     12  C   UNL     1      -0.071  -0.002   0.006  0.00  0.00    -0.050 A 
ATOM     13  C   UNL     1      -0.076  -0.684  -1.198  0.00  0.00    +0.004 A 
ATOM     14  C   UNL     1      -0.057  -2.063  -1.214  0.00  0.00    +0.010 A 
ATOM     15  C   UNL     1      -0.032  -2.771  -0.010  0.00  0.00    -0.005 A 
ATOM     16  C   UNL     1      -0.026  -2.076   1.202  0.00  0.00    +0.010 A 
ATOM     17  C   UNL     1      -0.041  -0.697   1.202  0.00  0.00    +0.004 A 
ENDBRANCH   9  15
ENDBRANCH   1  10
BRANCH   4  18
ATOM     18  S   UNL     1       0.099  -7.205   6.155  0.00  0.00    -0.075 S 
BRANCH  18  19
ATOM     19  C   UNL     1       0.137  -8.889   6.829  0.00  0.00    +0.173 C 
BRANCH  19  20
ATOM     20  C   UNL     1       0.151  -8.828   8.335  0.00  0.00    +0.228 C 
ATOM     21  O   UNL     1       0.137  -7.754   8.898  0.00  0.00    -0.275 OA
ATOM     22  N   UNL     1       0.180  -9.967   9.055  0.00  0.00    -0.284 N 
ATOM     23  H   UNL     1       0.125 -10.825   8.607  0.00  0.00    +0.155 HD
BRANCH  22  24
ATOM     24  C   UNL     1       0.287  -9.910  10.449  0.00  0.00    +0.047 A 
ATOM     25  C   UNL     1      -0.321  -8.879  11.153  0.00  0.00    +0.024 A 
ATOM     26  C   UNL     1      -0.213  -8.826  12.529  0.00  0.00    +0.005 A 
ATOM     27  C   UNL     1       0.500  -9.798  13.206  0.00  0.00    -0.049 A 
ATOM     28  C   UNL     1       1.108 -10.826  12.509  0.00  0.00    +0.020 A 
ATOM     29  C   UNL     1       0.999 -10.888  11.133  0.00  0.00    +0.039 A 
ATOM     30 BR   UNL     1       1.823 -12.299  10.181  0.00  0.00    -0.048 Br
ATOM     31  C   UNL     1       0.616  -9.737  14.708  0.00  0.00    +0.044 C 
ENDBRANCH  22  24
ENDBRANCH  19  20
ENDBRANCH  18  19
ENDBRANCH   4  18
TORSDOF 6
