REMARK  Name = ZINC09504805
REMARK  3 active torsions:
REMARK  status: ('A' for Active; 'I' for Inactive)
REMARK    1  A    between atoms: C_14  and  C_16
REMARK    2  A    between atoms: N_19  and  S_22
REMARK    3  A    between atoms: S_22  and  C_25
REMARK                            x       y       z     vdW  Elec       q    Type
REMARK                         _______ _______ _______ _____ _____    ______ ____
ROOT
ATOM      1  C   UNL     1      -4.863   2.896  -8.149  0.00  0.00    +0.000 A 
ATOM      2  C   UNL     1      -4.421   1.799  -7.431  0.00  0.00    +0.001 A 
ATOM      3  C   UNL     1      -3.726   1.973  -6.252  0.00  0.00    +0.010 A 
ATOM      4  C   UNL     1      -3.471   3.262  -5.782  0.00  0.00    +0.005 A 
ATOM      5  C   UNL     1      -3.919   4.357  -6.510  0.00  0.00    -0.033 A 
ATOM      6  C   UNL     1      -4.612   4.177  -7.687  0.00  0.00    +0.004 A 
ATOM      7  C   UNL     1      -3.492   5.591  -5.752  0.00  0.00    +0.080 C 
ATOM      8  C   UNL     1      -2.771   5.086  -4.546  0.00  0.00    +0.023 A 
ATOM      9  C   UNL     1      -2.750   3.720  -4.550  0.00  0.00    +0.084 A 
ATOM     10  N   UNL     1      -2.126   3.126  -3.512  0.00  0.00    -0.224 NA
ATOM     11  C   UNL     1      -1.564   3.809  -2.541  0.00  0.00    +0.165 A 
ATOM     12  S   UNL     1      -1.902   5.489  -3.050  0.00  0.00    -0.056 S 
ATOM     13  N   UNL     1      -0.891   3.349  -1.415  0.00  0.00    -0.264 N 
ATOM     14  C   UNL     1      -0.748   2.025  -1.210  0.00  0.00    +0.222 C 
ATOM     15  O   UNL     1      -1.206   1.235  -2.008  0.00  0.00    -0.275 OA
ATOM     16  H   UNL     1      -0.525   3.982  -0.777  0.00  0.00    +0.157 HD
ENDROOT
BRANCH  14  17
ATOM     17  C   UNL     1      -0.019   1.526   0.010  0.00  0.00    +0.078 C 
ATOM     18  C   UNL     1       1.417   2.058  -0.000  0.00  0.00    +0.030 C 
ATOM     19  C   UNL     1       2.144   1.577   1.259  0.00  0.00    +0.110 C 
ATOM     20  N   UNL     1       2.043   0.113   1.334  0.00  0.00    -0.176 NA
ATOM     21  C   UNL     1       0.714  -0.508   1.262  0.00  0.00    +0.110 C 
ATOM     22  C   UNL     1       0.002  -0.004   0.002  0.00  0.00    +0.030 C 
BRANCH  20  23
ATOM     23  S   UNL     1       3.402  -0.819   1.496  0.00  0.00    +0.067 S 
ATOM     24  O   UNL     1       4.396   0.010   2.083  0.00  0.00    -0.152 OA
ATOM     25  O   UNL     1       2.987  -2.044   2.085  0.00  0.00    -0.152 OA
BRANCH  23  26
ATOM     26  C   UNL     1       3.965  -1.207  -0.128  0.00  0.00    +0.143 A 
ATOM     27  C   UNL     1       4.829  -0.523  -0.917  0.00  0.00    +0.036 A 
ATOM     28  C   UNL     1       5.132  -1.024  -2.170  0.00  0.00    +0.010 A 
ATOM     29  C   UNL     1       4.548  -2.178  -2.575  0.00  0.00    +0.047 A 
ATOM     30  S   UNL     1       3.539  -2.598  -1.163  0.00  0.00    -0.077 S 
ENDBRANCH  23  26
ENDBRANCH  20  23
ENDBRANCH  14  17
TORSDOF 3
