REMARK  Name = ZINC06410154
REMARK  7 active torsions:
REMARK  status: ('A' for Active; 'I' for Inactive)
REMARK    1  A    between atoms: C_1  and  C_2
REMARK    2  A    between atoms: C_7  and  C_15
REMARK    3  A    between atoms: C_13  and  C_14
REMARK    4  A    between atoms: C_15  and  N_16
REMARK    5  A    between atoms: N_16  and  C_17
REMARK    6  A    between atoms: N_16  and  S_23
REMARK    7  A    between atoms: S_23  and  C_26
REMARK                            x       y       z     vdW  Elec       q    Type
REMARK                         _______ _______ _______ _____ _____    ______ ____
ROOT
ATOM      1  N   UNL     1       2.779   0.618   1.483  0.00  0.00    -0.169 NA
ENDROOT
BRANCH   1   2
ATOM      2  C   UNL     1       2.078  -0.493   2.131  0.00  0.00    +0.080 C 
ATOM      3  C   UNL     1       2.623  -1.820   1.600  0.00  0.00    +0.020 C 
ATOM      4  C   UNL     1       1.892  -2.980   2.278  0.00  0.00    +0.002 C 
ATOM      5  C   UNL     1       0.395  -2.886   1.974  0.00  0.00    +0.000 C 
ATOM      6  C   UNL     1      -0.150  -1.559   2.506  0.00  0.00    +0.002 C 
ATOM      7  C   UNL     1       0.582  -0.398   1.828  0.00  0.00    +0.020 C 
ENDBRANCH   1   2
BRANCH   1   8
ATOM      8  S   UNL     1       3.740   1.626   2.378  0.00  0.00    +0.063 S 
ATOM      9  O   UNL     1       4.293   0.838   3.423  0.00  0.00    -0.153 OA
ATOM     10  O   UNL     1       4.548   2.343   1.454  0.00  0.00    -0.153 OA
BRANCH   8  11
ATOM     11  C   UNL     1       2.683   2.809   3.145  0.00  0.00    +0.134 A 
ATOM     12  C   UNL     1       2.540   2.817   4.492  0.00  0.00    +0.031 A 
ATOM     13  C   UNL     1       1.717   3.743   5.133  0.00  0.00    +0.004 A 
ATOM     14  C   UNL     1       1.014   4.667   4.436  0.00  0.00    +0.031 A 
ATOM     15  C   UNL     1       1.109   4.714   3.021  0.00  0.00    +0.102 A 
ATOM     16  C   UNL     1       1.976   3.749   2.351  0.00  0.00    +0.126 A 
ATOM     17  N   UNL     1       1.971   3.907   1.028  0.00  0.00    -0.189 NA
ATOM     18  S   UNL     1       1.004   5.104   0.734  0.00  0.00    +0.117 S 
ATOM     19  N   UNL     1       0.511   5.533   2.159  0.00  0.00    -0.191 NA
ENDBRANCH   8  11
ENDBRANCH   1   8
BRANCH   1  20
ATOM     20  C   UNL     1       2.630   0.837   0.042  0.00  0.00    +0.150 C 
BRANCH  20  27
ATOM     21  C   UNL     1       6.422  -4.873  -4.037  0.00  0.00    +0.044 C 
ATOM     22  C   UNL     1       5.514  -3.925  -3.296  0.00  0.00    -0.046 A 
ATOM     23  C   UNL     1       4.168  -4.232  -3.156  0.00  0.00    +0.004 A 
ATOM     24  C   UNL     1       3.328  -3.387  -2.488  0.00  0.00    +0.010 A 
ATOM     25  C   UNL     1       3.829  -2.202  -1.939  0.00  0.00    -0.001 A 
ATOM     26  C   UNL     1       2.957  -1.274  -1.217  0.00  0.00    +0.020 A 
ATOM     27  C   UNL     1       3.499  -0.140  -0.707  0.00  0.00    +0.033 A 
ATOM     28  C   UNL     1       4.874   0.129  -0.876  0.00  0.00    +0.254 A 
ATOM     29  O   UNL     1       5.341   1.154  -0.410  0.00  0.00    -0.268 OA
ATOM     30  N   UNL     1       5.682  -0.715  -1.542  0.00  0.00    -0.322 N 
ATOM     31  H   UNL     1       6.622  -0.498  -1.643  0.00  0.00    +0.169 HD
ATOM     32  C   UNL     1       5.194  -1.887  -2.079  0.00  0.00    +0.052 A 
ATOM     33  C   UNL     1       6.030  -2.763  -2.764  0.00  0.00    -0.024 A 
ATOM     34  C   UNL     1       7.494  -2.443  -2.923  0.00  0.00    +0.046 C 
ENDBRANCH  20  27
ENDBRANCH   1  20
TORSDOF 5
