REMARK  Name = ZINC63514178
REMARK  11 active torsions:
REMARK  status: ('A' for Active; 'I' for Inactive)
REMARK    1  A    between atoms: C_1  and  C_2
REMARK    2  A    between atoms: C_4  and  S_10
REMARK    3  A    between atoms: C_7  and  O_8
REMARK    4  A    between atoms: O_8  and  C_9
REMARK    5  A    between atoms: S_10  and  N_13
REMARK    6  A    between atoms: N_13  and  C_14
REMARK    7  A    between atoms: C_14  and  C_15
REMARK    8  A    between atoms: C_15  and  C_16
REMARK    9  A    between atoms: C_19  and  O_27
REMARK   10  A    between atoms: C_24  and  C_26
REMARK   11  A    between atoms: O_27  and  C_28
REMARK                            x       y       z     vdW  Elec       q    Type
REMARK                         _______ _______ _______ _____ _____    ______ ____
ROOT
ATOM      1  C   UNL     1       3.749  -4.348  -3.141  0.00  0.00    +0.050 C 
ENDROOT
BRANCH   1   2
ATOM      2  C   UNL     1       4.648  -5.215  -2.297  0.00  0.00    -0.037 C 
ATOM      3  C   UNL     1       4.410  -5.649  -1.039  0.00  0.00    +0.003 A 
ATOM      4  C   UNL     1       3.289  -5.454  -0.113  0.00  0.00    +0.056 A 
ATOM      5  C   UNL     1       3.330  -6.025   1.115  0.00  0.00    +0.131 A 
ATOM      6  C   UNL     1       4.417  -6.807   1.542  0.00  0.00    +0.048 A 
ATOM      7  C   UNL     1       5.494  -7.044   0.763  0.00  0.00    +0.029 A 
ATOM      8  C   UNL     1       5.555  -6.474  -0.587  0.00  0.00    +0.043 A 
ATOM      9  N   UNL     1       6.463  -6.546  -1.528  0.00  0.00    -0.378 N 
ATOM     10  C   UNL     1       5.995  -5.780  -2.688  0.00  0.00    +0.103 C 
ATOM     11  C   UNL     1       6.974  -4.644  -2.996  0.00  0.00    +0.035 C 
ATOM     12  H   UNL     1       7.303  -7.028  -1.468  0.00  0.00    +0.160 HD
BRANCH   5  13
ATOM     13  O   UNL     1       2.285  -5.835   1.962  0.00  0.00    -0.406 OA
BRANCH  13  14
ATOM     14  C   UNL     1       2.369  -6.455   3.246  0.00  0.00    +0.575 C 
ATOM     15  F   UNL     1       3.495  -5.973   3.924  0.00  0.00    -0.133 F 
ATOM     16  F   UNL     1       1.218  -6.159   3.984  0.00  0.00    -0.133 F 
ATOM     17  F   UNL     1       2.478  -7.841   3.088  0.00  0.00    -0.133 F 
ENDBRANCH  13  14
ENDBRANCH   5  13
ENDBRANCH   1   2
BRANCH   1  18
ATOM     18  C   UNL     1       2.484  -4.005  -2.352  0.00  0.00    +0.110 C 
BRANCH  18  19
ATOM     19  N   UNL     1       1.610  -3.163  -3.172  0.00  0.00    -0.190 NA
ATOM     20  H   UNL     1       1.959  -2.734  -3.970  0.00  0.00    +0.148 HD
BRANCH  19  21
ATOM     21  S   UNL     1       0.027  -2.942  -2.738  0.00  0.00    +0.058 S 
ATOM     22  O   UNL     1      -0.505  -4.232  -2.473  0.00  0.00    -0.153 OA
ATOM     23  O   UNL     1      -0.540  -2.067  -3.704  0.00  0.00    -0.153 OA
BRANCH  21  27
ATOM     24  C   UNL     1      -0.018   1.503   0.010  0.00  0.00    +0.047 C 
ATOM     25  C   UNL     1       0.002  -0.004   0.002  0.00  0.00    -0.007 A 
ATOM     26  C   UNL     1       0.006  -0.689  -1.198  0.00  0.00    +0.035 A 
ATOM     27  C   UNL     1       0.024  -2.071  -1.206  0.00  0.00    +0.106 A 
ATOM     28  C   UNL     1       0.039  -2.772  -0.014  0.00  0.00    +0.032 A 
ATOM     29  C   UNL     1       0.036  -2.092   1.188  0.00  0.00    +0.048 A 
ATOM     30  C   UNL     1       0.023  -0.705   1.199  0.00  0.00    +0.123 A 
BRANCH  30  31
ATOM     31  O   UNL     1       0.025  -0.033   2.381  0.00  0.00    -0.495 OA
ATOM     32  C   UNL     1       0.048  -0.820   3.574  0.00  0.00    +0.277 C 
ENDBRANCH  30  31
ENDBRANCH  21  27
ENDBRANCH  19  21
ENDBRANCH  18  19
ENDBRANCH   1  18
TORSDOF 8
