REMARK  Name = ZINC10215024
REMARK  6 active torsions:
REMARK  status: ('A' for Active; 'I' for Inactive)
REMARK    1  A    between atoms: C_1  and  C_2
REMARK    2  A    between atoms: C_5  and  N_9
REMARK    3  A    between atoms: C_6  and  C_8
REMARK    4  A    between atoms: C_12  and  C_23
REMARK    5  A    between atoms: C_17  and  C_22
REMARK    6  A    between atoms: C_19  and  C_21
REMARK                            x       y       z     vdW  Elec       q    Type
REMARK                         _______ _______ _______ _____ _____    ______ ____
ROOT
ATOM      1  N   UNL     1       2.440  -2.617  -0.036  0.00  0.00    -0.299 N 
ATOM      2  C   UNL     1       1.218  -1.961  -0.028  0.00  0.00    +0.128 A 
ATOM      3  C   UNL     1       0.024  -2.687  -0.049  0.00  0.00    +0.067 A 
ATOM      4  C   UNL     1      -1.169  -1.990  -0.041  0.00  0.00    +0.045 A 
ATOM      5  N   UNL     1      -1.146  -0.666  -0.014  0.00  0.00    -0.216 NA
ATOM      6  C   UNL     1       0.001  -0.005   0.005  0.00  0.00    +0.253 A 
ATOM      7  N   UNL     1       1.165  -0.633  -0.007  0.00  0.00    -0.196 NA
ATOM      8  N   UNL     1      -0.019   1.389   0.033  0.00  0.00    -0.202 N 
ATOM      9  C   UNL     1      -1.128   2.175   0.037  0.00  0.00    +0.045 A 
ATOM     10  C   UNL     1      -0.717   3.462   0.069  0.00  0.00    +0.048 A 
ATOM     11  C   UNL     1       0.683   3.469   0.076  0.00  0.00    +0.061 A 
ATOM     12  N   UNL     1       1.101   2.230   0.055  0.00  0.00    -0.169 NA
ATOM     13  C   UNL     1       1.559   4.695   0.105  0.00  0.00    +0.067 C 
ATOM     14  C   UNL     1      -2.557   1.697   0.014  0.00  0.00    +0.066 C 
ATOM     15  C   UNL     1      -2.482  -2.729  -0.061  0.00  0.00    +0.066 C 
ATOM     16  H   UNL     1       2.472  -3.583   0.036  0.00  0.00    +0.154 HD
ENDROOT
BRANCH   1  21
ATOM     17  C   UNL     1       7.249   0.355  -0.492  0.00  0.00    +0.044 C 
ATOM     18  C   UNL     1       5.971  -0.435  -0.371  0.00  0.00    -0.050 A 
ATOM     19  C   UNL     1       4.787   0.090  -0.856  0.00  0.00    +0.005 A 
ATOM     20  C   UNL     1       3.615  -0.631  -0.747  0.00  0.00    +0.024 A 
ATOM     21  C   UNL     1       3.625  -1.884  -0.148  0.00  0.00    +0.035 A 
ATOM     22  C   UNL     1       4.815  -2.406   0.343  0.00  0.00    -0.029 A 
ATOM     23  C   UNL     1       5.985  -1.682   0.225  0.00  0.00    +0.008 A 
ATOM     24  C   UNL     1       4.830  -3.763   0.999  0.00  0.00    +0.045 C 
ENDBRANCH   1  21
TORSDOF 1
