REMARK  Name = ZINC36801093
REMARK  7 active torsions:
REMARK  status: ('A' for Active; 'I' for Inactive)
REMARK    1  A    between atoms: C_7  and  C_11
REMARK    2  A    between atoms: C_11  and  C_12
REMARK    3  A    between atoms: C_12  and  C_13
REMARK    4  A    between atoms: N_15  and  C_16
REMARK    5  A    between atoms: C_21  and  C_22
REMARK    6  A    between atoms: N_24  and  C_25
REMARK    7  A    between atoms: C_25  and  C_26
REMARK                            x       y       z     vdW  Elec       q    Type
REMARK                         _______ _______ _______ _____ _____    ______ ____
ROOT
ATOM      1  C   UNL     1      -1.999  -6.376  -2.567  0.00  0.00    +0.046 A 
ATOM      2  C   UNL     1      -2.321  -6.954  -1.346  0.00  0.00    +0.024 A 
ATOM      3  C   UNL     1      -3.103  -8.091  -1.304  0.00  0.00    +0.002 A 
ATOM      4  C   UNL     1      -3.571  -8.663  -2.476  0.00  0.00    +0.001 A 
ATOM      5  C   UNL     1      -3.262  -8.103  -3.696  0.00  0.00    +0.015 A 
ATOM      6  C   UNL     1      -2.477  -6.950  -3.755  0.00  0.00    +0.058 A 
ENDROOT
BRANCH   1   9
ATOM      7  C   UNL     1      -1.173  -4.394  -1.554  0.00  0.00    +0.218 C 
ATOM      8  O   UNL     1      -1.902  -4.587  -0.604  0.00  0.00    -0.275 OA
ATOM      9  N   UNL     1      -1.210  -5.229  -2.612  0.00  0.00    -0.285 N 
ATOM     10  H   UNL     1      -0.688  -5.030  -3.405  0.00  0.00    +0.155 HD
BRANCH   7  11
ATOM     11  C   UNL     1      -0.227  -3.221  -1.552  0.00  0.00    +0.101 C 
BRANCH  11  12
ATOM     12  C   UNL     1      -0.384  -2.442  -0.245  0.00  0.00    +0.046 C 
BRANCH  12  19
ATOM     13  C   UNL     1      -0.670   1.913  -1.956  0.00  0.00    +0.001 A 
ATOM     14  C   UNL     1       0.470   2.666  -1.713  0.00  0.00    +0.002 A 
ATOM     15  C   UNL     1       1.538   2.123  -1.033  0.00  0.00    +0.026 A 
ATOM     16  C   UNL     1       1.475   0.808  -0.584  0.00  0.00    +0.047 A 
ATOM     17  C   UNL     1       0.317   0.050  -0.833  0.00  0.00    +0.003 A 
ATOM     18  C   UNL     1      -0.753   0.620  -1.524  0.00  0.00    +0.010 A 
ATOM     19  C   UNL     1       0.562  -1.269  -0.243  0.00  0.00    -0.022 A 
ATOM     20  C   UNL     1       1.790  -1.234   0.300  0.00  0.00    +0.087 A 
ATOM     21  N   UNL     1       2.350  -0.001   0.106  0.00  0.00    -0.360 N 
ATOM     22  H   UNL     1       3.233   0.263   0.409  0.00  0.00    +0.165 HD
ENDBRANCH  12  19
ENDBRANCH  11  12
ENDBRANCH   7  11
ENDBRANCH   1   9
BRANCH   6  23
ATOM     23  C   UNL     1      -2.147  -6.341  -5.058  0.00  0.00    +0.246 C 
ATOM     24  O   UNL     1      -1.387  -5.394  -5.111  0.00  0.00    -0.270 OA
ATOM     25  N   UNL     1      -2.689  -6.836  -6.188  0.00  0.00    -0.307 N 
ATOM     26  H   UNL     1      -3.296  -7.592  -6.145  0.00  0.00    +0.149 HD
BRANCH  25  27
ATOM     27  C   UNL     1      -2.362  -6.232  -7.482  0.00  0.00    +0.140 C 
BRANCH  27  28
ATOM     28  C   UNL     1      -3.092  -6.965  -8.578  0.00  0.00    -0.027 A 
ATOM     29  C   UNL     1      -2.502  -8.055  -9.191  0.00  0.00    +0.009 A 
ATOM     30  C   UNL     1      -3.168  -8.730 -10.196  0.00  0.00    +0.050 A 
ATOM     31  C   UNL     1      -4.430  -8.317 -10.592  0.00  0.00    +0.166 A 
ATOM     32  C   UNL     1      -5.024  -7.219  -9.974  0.00  0.00    +0.167 A 
ATOM     33  C   UNL     1      -4.353  -6.550  -8.963  0.00  0.00    +0.054 A 
ATOM     34  O   UNL     1      -6.252  -7.014 -10.535  0.00  0.00    -0.453 OA
ATOM     35  C   UNL     1      -6.233  -7.742 -11.777  0.00  0.00    +0.466 C 
ATOM     36  O   UNL     1      -5.285  -8.800 -11.540  0.00  0.00    -0.453 OA
ENDBRANCH  27  28
ENDBRANCH  25  27
ENDBRANCH   6  23
TORSDOF 7
