REMARK  Name = ZINC06900119
REMARK  9 active torsions:
REMARK  status: ('A' for Active; 'I' for Inactive)
REMARK    1  A    between atoms: C_1  and  C_2
REMARK    2  A    between atoms: C_2  and  C_3
REMARK    3  A    between atoms: C_3  and  N_4
REMARK    4  A    between atoms: N_15  and  C_18
REMARK    5  A    between atoms: C_18  and  C_19
REMARK    6  A    between atoms: N_21  and  C_22
REMARK    7  A    between atoms: C_22  and  C_23
REMARK    8  A    between atoms: C_23  and  N_61
REMARK    9  A    between atoms: C_28  and  C_30
REMARK                            x       y       z     vdW  Elec       q    Type
REMARK                         _______ _______ _______ _____ _____    ______ ____
ROOT
ATOM      1  N   UNL     1       0.895   2.635  10.791  0.00  0.00    -0.336 N 
ATOM      2  C   UNL     1       1.454   1.873  11.794  0.00  0.00    +0.050 A 
ATOM      3  C   UNL     1       2.435   2.140  12.745  0.00  0.00    +0.026 A 
ATOM      4  C   UNL     1       2.804   1.164  13.644  0.00  0.00    +0.002 A 
ATOM      5  C   UNL     1       2.206  -0.088  13.612  0.00  0.00    +0.001 A 
ATOM      6  C   UNL     1       1.241  -0.371  12.687  0.00  0.00    +0.010 A 
ATOM      7  C   UNL     1       0.852   0.603  11.767  0.00  0.00    +0.009 A 
ATOM      8  C   UNL     1      -0.125   0.631  10.670  0.00  0.00    +0.033 A 
ATOM      9  C   UNL     1      -0.054   1.905  10.108  0.00  0.00    +0.118 A 
ATOM     10  C   UNL     1      -0.897   2.210   9.014  0.00  0.00    +0.292 A 
ATOM     11  O   UNL     1      -0.859   3.314   8.494  0.00  0.00    -0.264 OA
ATOM     12  N   UNL     1      -1.748   1.271   8.554  0.00  0.00    -0.219 N 
ATOM     13  N   UNL     1      -1.799   0.001   9.137  0.00  0.00    -0.175 NA
ATOM     14  C   UNL     1      -1.031  -0.313  10.144  0.00  0.00    +0.143 A 
ENDROOT
BRANCH   1  15
ATOM     15  C   UNL     1       1.257   4.024  10.493  0.00  0.00    +0.122 C 
BRANCH  15  17
ATOM     16  C   UNL     1       2.776   5.495   9.163  0.00  0.00    +0.005 C 
ATOM     17  C   UNL     1       2.398   4.046   9.474  0.00  0.00    +0.018 C 
ENDBRANCH  15  17
ENDBRANCH   1  15
BRANCH  12  18
ATOM     18  C   UNL     1      -2.628   1.583   7.425  0.00  0.00    +0.243 C 
BRANCH  18  19
ATOM     19  C   UNL     1      -1.931   1.235   6.135  0.00  0.00    +0.235 C 
ATOM     20  O   UNL     1      -0.810   0.773   6.157  0.00  0.00    -0.274 OA
ATOM     21  N   UNL     1      -2.553   1.439   4.957  0.00  0.00    -0.316 N 
ATOM     22  H   UNL     1      -3.450   1.809   4.939  0.00  0.00    +0.149 HD
BRANCH  21  23
ATOM     23  C   UNL     1      -1.876   1.101   3.703  0.00  0.00    +0.086 C 
BRANCH  23  24
ATOM     24  C   UNL     1      -2.794   1.427   2.523  0.00  0.00    -0.059 C 
BRANCH  24  31
ATOM     25  C   UNL     1      -0.731   1.580   1.266  0.00  0.00    -0.078 C 
ATOM     26  C   UNL     1      -0.013   1.086   0.008  0.00  0.00    -0.019 C 
ATOM     27  C   UNL     1      -0.755   1.594  -1.231  0.00  0.00    -0.003 C 
ATOM     28  C   UNL     1      -2.206   1.108  -1.183  0.00  0.00    -0.016 C 
ATOM     29  C   UNL     1      -2.861   1.601   0.109  0.00  0.00    -0.072 C 
ATOM     30  C   UNL     1      -4.306   1.101   0.172  0.00  0.00    -0.013 C 
ATOM     31  N   UNL     1      -2.115   1.058   1.264  0.00  0.00    +0.382 N 
ATOM     32  H   UNL     1      -2.084   0.034   1.189  0.00  0.00    -0.081 HD
ENDBRANCH  24  31
ENDBRANCH  23  24
ENDBRANCH  21  23
ENDBRANCH  18  19
ENDBRANCH  12  18
TORSDOF 7
