REMARK  Name = ZINC12617804
REMARK  6 active torsions:
REMARK  status: ('A' for Active; 'I' for Inactive)
REMARK    1  A    between atoms: C_3  and  C_18
REMARK    2  A    between atoms: C_5  and  S_7
REMARK    3  A    between atoms: S_7  and  N_10
REMARK    4  A    between atoms: N_10  and  C_11
REMARK    5  A    between atoms: C_11  and  C_12
REMARK    6  A    between atoms: N_20  and  C_21
REMARK                            x       y       z     vdW  Elec       q    Type
REMARK                         _______ _______ _______ _____ _____    ______ ____
ROOT
ATOM      1  C   UNL     1       5.980   7.660   2.058  0.00  0.00    +0.003 A 
ATOM      2  C   UNL     1       5.319   6.541   1.594  0.00  0.00    +0.013 A 
ATOM      3  C   UNL     1       6.049   5.457   1.105  0.00  0.00    +0.039 A 
ATOM      4  C   UNL     1       7.444   5.511   1.094  0.00  0.00    +0.041 A 
ATOM      5  C   UNL     1       8.092   6.638   1.556  0.00  0.00    +0.106 A 
ATOM      6  C   UNL     1       7.362   7.709   2.039  0.00  0.00    +0.028 A 
ENDROOT
BRANCH   3   7
ATOM      7  C   UNL     1       5.349   4.255   0.607  0.00  0.00    +0.248 C 
ATOM      8  O   UNL     1       5.987   3.312   0.181  0.00  0.00    -0.270 OA
ATOM      9  N   UNL     1       4.002   4.204   0.625  0.00  0.00    -0.281 N 
ATOM     10  H   UNL     1       3.491   4.980   0.901  0.00  0.00    +0.155 HD
BRANCH   9  11
ATOM     11  C   UNL     1       3.341   3.030   0.244  0.00  0.00    +0.037 A 
ATOM     12  C   UNL     1       2.163   2.659   0.879  0.00  0.00    +0.027 A 
ATOM     13  C   UNL     1       1.508   1.501   0.505  0.00  0.00    +0.051 A 
ATOM     14  C   UNL     1       2.025   0.708  -0.504  0.00  0.00    +0.167 A 
ATOM     15  C   UNL     1       3.209   1.076  -1.143  0.00  0.00    +0.169 A 
ATOM     16  C   UNL     1       3.864   2.236  -0.768  0.00  0.00    +0.073 A 
ATOM     17  O   UNL     1       3.500   0.129  -2.090  0.00  0.00    -0.447 OA
ATOM     18  C   UNL     1       2.240  -0.511  -2.335  0.00  0.00    +0.254 C 
ATOM     19  O   UNL     1       1.584  -0.466  -1.059  0.00  0.00    -0.448 OA
ATOM     20  C   UNL     1       2.432  -1.956  -2.809  0.00  0.00    +0.093 C 
ATOM     21  C   UNL     1       1.269  -2.178  -3.811  0.00  0.00    +0.008 C 
ATOM     22  C   UNL     1       1.161  -0.805  -4.524  0.00  0.00    +0.008 C 
ATOM     23  C   UNL     1       1.435   0.225  -3.405  0.00  0.00    +0.093 C 
ENDBRANCH   9  11
ENDBRANCH   3   7
BRANCH   5  24
ATOM     24  S   UNL     1       9.852   6.710   1.536  0.00  0.00    +0.059 S 
ATOM     25  O   UNL     1      10.285   5.803   0.532  0.00  0.00    -0.153 OA
ATOM     26  O   UNL     1      10.202   8.087   1.521  0.00  0.00    -0.153 OA
BRANCH  24  27
ATOM     27  N   UNL     1      10.383   6.103   2.983  0.00  0.00    -0.187 NA
ATOM     28  H   UNL     1      10.849   6.679   3.609  0.00  0.00    +0.148 HD
BRANCH  27  29
ATOM     29  C   UNL     1      10.149   4.696   3.317  0.00  0.00    +0.137 C 
BRANCH  29  30
ATOM     30  C   UNL     1      11.037   4.298   4.497  0.00  0.00    +0.134 C 
ATOM     31  C   UNL     1      10.899   2.786   4.788  0.00  0.00    +0.035 C 
ATOM     32  C   UNL     1      10.963   2.693   6.329  0.00  0.00    +0.031 C 
ATOM     33  C   UNL     1      11.132   4.158   6.787  0.00  0.00    +0.160 C 
ATOM     34  O   UNL     1      10.589   4.948   5.706  0.00  0.00    -0.375 OA
ENDBRANCH  29  30
ENDBRANCH  27  29
ENDBRANCH  24  27
ENDBRANCH   5  24
TORSDOF 6
