REMARK  Name = ZINC38891845
REMARK  11 active torsions:
REMARK  status: ('A' for Active; 'I' for Inactive)
REMARK    1  A    between atoms: C_1  and  C_2
REMARK    2  A    between atoms: C_2  and  C_3
REMARK    3  A    between atoms: C_3  and  C_5
REMARK    4  A    between atoms: C_3  and  N_15
REMARK    5  A    between atoms: C_8  and  S_11
REMARK    6  A    between atoms: S_11  and  C_14
REMARK    7  A    between atoms: C_16  and  C_18
REMARK    8  A    between atoms: N_23  and  C_25
REMARK    9  A    between atoms: C_25  and  C_26
REMARK   10  A    between atoms: C_28  and  C_31
REMARK   11  A    between atoms: C_34  and  C_37
REMARK                            x       y       z     vdW  Elec       q    Type
REMARK                         _______ _______ _______ _____ _____    ______ ____
ROOT
ATOM      1  C   UNL     1      -3.330   1.430   2.696  0.00  0.00    +0.058 C 
ATOM      2  C   UNL     1      -4.462   0.443   3.000  0.00  0.00    +0.009 C 
ATOM      3  C   UNL     1      -5.182   0.885   4.277  0.00  0.00    -0.018 C 
ATOM      4  C   UNL     1      -5.694   2.316   4.098  0.00  0.00    -0.078 C 
ATOM      5  N   UNL     1      -4.563   3.215   3.836  0.00  0.00    +0.386 N 
ATOM      6  C   UNL     1      -3.910   2.841   2.576  0.00  0.00    -0.065 C 
ATOM      7  H   UNL     1      -3.897   3.145   4.592  0.00  0.00    -0.081 HD
ENDROOT
BRANCH   1   9
ATOM      8  N   UNL     1      -2.082  -0.162   1.273  0.00  0.00    -0.308 N 
ATOM      9  C   UNL     1      -2.664   1.047   1.400  0.00  0.00    +0.215 C 
ATOM     10  O   UNL     1      -2.651   1.827   0.471  0.00  0.00    -0.276 OA
ATOM     11  H   UNL     1      -2.092  -0.785   2.016  0.00  0.00    +0.149 HD
BRANCH   8  12
ATOM     12  C   UNL     1      -1.433  -0.534   0.013  0.00  0.00    +0.103 C 
BRANCH  12  13
ATOM     13  C   UNL     1      -1.416  -2.035  -0.119  0.00  0.00    -0.027 A 
ATOM     14  C   UNL     1      -1.159  -2.823   0.987  0.00  0.00    +0.007 A 
ATOM     15  C   UNL     1      -1.143  -4.200   0.866  0.00  0.00    +0.027 A 
ATOM     16  C   UNL     1      -1.385  -4.789  -0.361  0.00  0.00    +0.088 A 
ATOM     17  C   UNL     1      -1.642  -4.000  -1.467  0.00  0.00    +0.027 A 
ATOM     18  C   UNL     1      -1.662  -2.624  -1.345  0.00  0.00    +0.007 A 
BRANCH  16  19
ATOM     19  S   UNL     1      -1.363  -6.544  -0.516  0.00  0.00    -0.006 S 
ATOM     20  O   UNL     1      -1.027  -6.784  -1.876  0.00  0.00    -0.170 OA
ATOM     21  O   UNL     1      -0.511  -6.989   0.530  0.00  0.00    -0.170 OA
ATOM     22  C   UNL     1      -3.072  -7.061  -0.194  0.00  0.00    +0.200 C 
ENDBRANCH  16  19
ENDBRANCH  12  13
BRANCH  12  24
ATOM     23  C   UNL     1      -0.019   1.526   0.010  0.00  0.00    +0.006 C 
ATOM     24  C   UNL     1       0.002  -0.004   0.002  0.00  0.00    +0.024 C 
ENDBRANCH  12  24
ENDBRANCH   8  12
ENDBRANCH   1   9
BRANCH   5  25
ATOM     25  C   UNL     1      -5.050   4.598   3.742  0.00  0.00    +0.022 C 
BRANCH  25  26
ATOM     26  C   UNL     1      -5.601   5.028   5.077  0.00  0.00    +0.211 A 
ATOM     27  N   UNL     1      -4.925   5.605   6.029  0.00  0.00    -0.193 NA
ATOM     28  C   UNL     1      -5.728   5.851   7.080  0.00  0.00    +0.202 A 
ATOM     29  N   UNL     1      -6.934   5.425   6.794  0.00  0.00    -0.056 NA
ATOM     30  O   UNL     1      -6.870   4.886   5.482  0.00  0.00    -0.340 OA
BRANCH  28  31
ATOM     31  C   UNL     1      -5.317   6.497   8.352  0.00  0.00    +0.022 A 
ATOM     32  C   UNL     1      -3.999   6.912   8.531  0.00  0.00    +0.012 A 
ATOM     33  C   UNL     1      -3.622   7.512   9.715  0.00  0.00    +0.004 A 
ATOM     34  C   UNL     1      -4.550   7.701  10.723  0.00  0.00    -0.050 A 
ATOM     35  C   UNL     1      -5.860   7.291  10.551  0.00  0.00    +0.004 A 
ATOM     36  C   UNL     1      -6.249   6.696   9.368  0.00  0.00    +0.012 A 
ATOM     37  C   UNL     1      -4.133   8.356  12.015  0.00  0.00    +0.044 C 
ENDBRANCH  28  31
ENDBRANCH  25  26
ENDBRANCH   5  25
TORSDOF 8
