REMARK  Name = ZINC26112060
REMARK  10 active torsions:
REMARK  status: ('A' for Active; 'I' for Inactive)
REMARK    1  A    between atoms: C_1  and  C_2
REMARK    2  A    between atoms: C_3  and  C_16
REMARK    3  A    between atoms: C_4  and  C_15
REMARK    4  A    between atoms: C_16  and  C_17
REMARK    5  A    between atoms: C_17  and  C_18
REMARK    6  A    between atoms: N_20  and  C_21
REMARK    7  A    between atoms: N_20  and  C_34
REMARK    8  A    between atoms: C_21  and  C_22
REMARK    9  A    between atoms: C_25  and  C_28
REMARK   10  A    between atoms: N_30  and  C_31
REMARK                            x       y       z     vdW  Elec       q    Type
REMARK                         _______ _______ _______ _____ _____    ______ ____
ROOT
ATOM      1  C   UNL     1      -0.531   1.693  -1.232  0.00  0.00    +0.216 C 
ATOM      2  O   UNL     1       0.280   1.515  -0.348  0.00  0.00    -0.276 OA
ATOM      3  N   UNL     1      -0.359   1.105  -2.433  0.00  0.00    -0.294 N 
ENDROOT
BRANCH   3   4
ATOM      4  C   UNL     1       0.699   0.107  -2.614  0.00  0.00    +0.077 C 
ATOM      5  C   UNL     1       1.319  -0.502  -1.356  0.00  0.00    +0.024 C 
ATOM      6  C   UNL     1       2.117   0.497  -2.195  0.00  0.00    +0.024 C 
ENDBRANCH   3   4
BRANCH   1   7
ATOM      7  C   UNL     1      -1.730   2.573  -0.990  0.00  0.00    +0.101 C 
BRANCH   7   8
ATOM      8  C   UNL     1      -1.763   2.995   0.481  0.00  0.00    +0.048 C 
BRANCH   8  11
ATOM      9  C   UNL     1      -4.310   1.821   1.269  0.00  0.00    +0.066 C 
ATOM     10  C   UNL     1      -4.186   3.313   1.103  0.00  0.00    +0.045 A 
ATOM     11  C   UNL     1      -2.962   3.875   0.724  0.00  0.00    -0.005 A 
ATOM     12  C   UNL     1      -2.865   5.223   0.582  0.00  0.00    +0.047 A 
ATOM     13  N   UNL     1      -3.966   5.996   0.803  0.00  0.00    -0.217 N 
ATOM     14  C   UNL     1      -5.142   5.409   1.172  0.00  0.00    +0.164 A 
ATOM     15  N   UNL     1      -5.229   4.087   1.313  0.00  0.00    -0.232 NA
ATOM     16  C   UNL     1      -6.088   6.444   1.333  0.00  0.00    +0.046 A 
ATOM     17  C   UNL     1      -7.443   6.466   1.694  0.00  0.00    +0.014 A 
ATOM     18  C   UNL     1      -8.105   7.654   1.766  0.00  0.00    +0.001 A 
ATOM     19  C   UNL     1      -7.454   8.854   1.484  0.00  0.00    +0.002 A 
ATOM     20  C   UNL     1      -6.141   8.874   1.130  0.00  0.00    +0.030 A 
ATOM     21  C   UNL     1      -5.421   7.665   1.045  0.00  0.00    +0.095 A 
ATOM     22  N   UNL     1      -4.161   7.381   0.732  0.00  0.00    -0.165 NA
ATOM     23  C   UNL     1      -1.557   5.855   0.181  0.00  0.00    +0.066 C 
ENDBRANCH   8  11
ENDBRANCH   7   8
ENDBRANCH   1   7
BRANCH   3  24
ATOM     24  C   UNL     1      -1.229   1.463  -3.555  0.00  0.00    +0.143 C 
BRANCH  24  25
ATOM     25  C   UNL     1      -0.540   2.488  -4.418  0.00  0.00    -0.030 A 
ATOM     26  C   UNL     1      -0.664   3.834  -4.121  0.00  0.00    +0.006 A 
ATOM     27  C   UNL     1      -0.031   4.777  -4.903  0.00  0.00    +0.013 A 
ATOM     28  C   UNL     1       0.727   4.372  -6.003  0.00  0.00    +0.037 A 
ATOM     29  C   UNL     1       0.843   3.014  -6.301  0.00  0.00    +0.013 A 
ATOM     30  C   UNL     1       0.209   2.080  -5.508  0.00  0.00    +0.006 A 
BRANCH  28  31
ATOM     31  C   UNL     1       1.403   5.378  -6.849  0.00  0.00    +0.244 C 
ATOM     32  O   UNL     1       2.063   5.023  -7.807  0.00  0.00    -0.270 OA
ATOM     33  N   UNL     1       1.290   6.690  -6.559  0.00  0.00    -0.308 N 
ATOM     34  H   UNL     1       0.693   7.011  -5.693  0.00  0.00    +0.149 HD
BRANCH  33  35
ATOM     35  C   UNL     1       1.960   7.686  -7.397  0.00  0.00    +0.073 C 
ATOM     36  C   UNL     1       2.688   8.831  -6.689  0.00  0.00    +0.024 C 
ATOM     37  C   UNL     1       1.373   9.099  -7.422  0.00  0.00    +0.024 C 
ENDBRANCH  33  35
ENDBRANCH  28  31
ENDBRANCH  24  25
ENDBRANCH   3  24
TORSDOF 8
