REMARK  Name = ZINC45513682
REMARK  6 active torsions:
REMARK  status: ('A' for Active; 'I' for Inactive)
REMARK    1  A    between atoms: C_1  and  C_2
REMARK    2  A    between atoms: C_3  and  C_16
REMARK    3  A    between atoms: C_4  and  C_15
REMARK    4  A    between atoms: C_9  and  C_11
REMARK    5  A    between atoms: C_16  and  C_17
REMARK    6  A    between atoms: C_17  and  C_18
REMARK                            x       y       z     vdW  Elec       q    Type
REMARK                         _______ _______ _______ _____ _____    ______ ____
ROOT
ATOM      1  C   UNL     1      -2.899   0.362   1.456  0.00  0.00    +0.101 C 
ENDROOT
BRANCH   1   2
ATOM      2  C   UNL     1      -4.217   1.092   1.467  0.00  0.00    +0.219 C 
ATOM      3  O   UNL     1      -4.797   1.312   0.425  0.00  0.00    -0.275 OA
ATOM      4  N   UNL     1      -4.751   1.501   2.635  0.00  0.00    -0.265 N 
ATOM      5  C   UNL     1      -5.963   2.173   2.646  0.00  0.00    +0.165 A 
ATOM      6  N   UNL     1      -6.636   2.650   3.670  0.00  0.00    -0.224 NA
ATOM      7  C   UNL     1      -7.808   3.284   3.533  0.00  0.00    +0.088 A 
ATOM      8  C   UNL     1      -8.665   3.867   4.585  0.00  0.00    +0.009 A 
ATOM      9  C   UNL     1      -8.282   3.795   5.929  0.00  0.00    +0.010 A 
ATOM     10  C   UNL     1      -9.086   4.339   6.887  0.00  0.00    +0.001 A 
ATOM     11  C   UNL     1     -10.281   4.965   6.544  0.00  0.00    +0.001 A 
ATOM     12  C   UNL     1     -10.680   5.051   5.244  0.00  0.00    +0.008 A 
ATOM     13  C   UNL     1      -9.875   4.501   4.231  0.00  0.00    -0.016 A 
ATOM     14  C   UNL     1     -10.269   4.580   2.880  0.00  0.00    +0.010 A 
ATOM     15  C   UNL     1      -9.482   4.045   1.909  0.00  0.00    +0.018 A 
ATOM     16  C   UNL     1      -8.289   3.416   2.217  0.00  0.00    +0.041 A 
ATOM     17  S   UNL     1      -7.012   2.621   1.270  0.00  0.00    -0.052 S 
ATOM     18  H   UNL     1      -4.287   1.325   3.469  0.00  0.00    +0.157 HD
ENDBRANCH   1   2
BRANCH   1  19
ATOM     19  C   UNL     1      -2.521   0.013   0.015  0.00  0.00    +0.048 C 
BRANCH  19  22
ATOM     20  C   UNL     1      -0.018   1.503   0.010  0.00  0.00    +0.066 C 
ATOM     21  C   UNL     1       0.002  -0.004   0.002  0.00  0.00    +0.047 A 
ATOM     22  C   UNL     1      -1.203  -0.717   0.004  0.00  0.00    -0.005 A 
ATOM     23  C   UNL     1      -1.170  -2.075  -0.004  0.00  0.00    +0.048 A 
ATOM     24  N   UNL     1       0.034  -2.706  -0.014  0.00  0.00    -0.200 N 
ATOM     25  C   UNL     1       1.192  -1.980  -0.015  0.00  0.00    +0.254 A 
ATOM     26  N   UNL     1       1.150  -0.642  -0.012  0.00  0.00    -0.216 NA
ATOM     27  N   UNL     1       2.199  -2.846  -0.025  0.00  0.00    -0.186 NA
ATOM     28  C   UNL     1       1.725  -4.084  -0.030  0.00  0.00    +0.257 A 
ATOM     29  N   UNL     1       0.413  -4.054  -0.023  0.00  0.00    -0.139 NA
ATOM     30  C   UNL     1      -2.450  -2.870  -0.002  0.00  0.00    +0.066 C 
BRANCH  28  31
ATOM     31  C   UNL     1       2.565  -5.336  -0.042  0.00  0.00    +0.454 C 
ATOM     32  F   UNL     1       3.884  -5.015   0.295  0.00  0.00    -0.163 F 
ATOM     33  F   UNL     1       2.055  -6.248   0.888  0.00  0.00    -0.163 F 
ATOM     34  F   UNL     1       2.535  -5.905  -1.319  0.00  0.00    -0.163 F 
ENDBRANCH  28  31
ENDBRANCH  19  22
ENDBRANCH   1  19
TORSDOF 4
