REMARK  Name = ZINC39914637
REMARK  12 active torsions:
REMARK  status: ('A' for Active; 'I' for Inactive)
REMARK    1  A    between atoms: C_1  and  C_2
REMARK    2  A    between atoms: C_2  and  C_3
REMARK    3  A    between atoms: C_3  and  C_4
REMARK    4  A    between atoms: C_4  and  C_5
REMARK    5  A    between atoms: C_5  and  O_6
REMARK    6  A    between atoms: O_6  and  C_7
REMARK    7  A    between atoms: C_11  and  C_13
REMARK    8  A    between atoms: C_16  and  C_30
REMARK    9  A    between atoms: N_23  and  C_24
REMARK   10  A    between atoms: C_24  and  C_25
REMARK   11  A    between atoms: C_33  and  C_37
REMARK   12  A    between atoms: C_35  and  O_36
REMARK                            x       y       z     vdW  Elec       q    Type
REMARK                         _______ _______ _______ _____ _____    ______ ____
ROOT
ATOM      1  C   UNL     1       3.174  -7.687   4.803  0.00  0.00    +0.142 C 
ATOM      2  C   UNL     1       4.331  -8.406   4.165  0.00  0.00    +0.035 A 
ATOM      3  C   UNL     1       5.071  -8.651   3.003  0.00  0.00    +0.102 A 
ATOM      4  N   UNL     1       6.034  -9.494   3.320  0.00  0.00    -0.173 NA
ATOM      5  N   UNL     1       5.976  -9.805   4.566  0.00  0.00    -0.272 N 
ATOM      6  H   UNL     1       6.585 -10.410   5.018  0.00  0.00    +0.189 HD
ATOM      7  C   UNL     1       4.929  -9.157   5.158  0.00  0.00    +0.126 A 
ATOM      8  C   UNL     1       4.195  -8.944   6.411  0.00  0.00    +0.266 C 
ATOM      9  O   UNL     1       4.472  -9.464   7.474  0.00  0.00    -0.268 OA
ATOM     10  N   UNL     1       3.172  -8.091   6.216  0.00  0.00    -0.278 N 
ENDROOT
BRANCH   3  11
ATOM     11  C   UNL     1       4.817  -8.070   1.661  0.00  0.00    +0.045 A 
ATOM     12  C   UNL     1       3.688  -7.286   1.440  0.00  0.00    +0.034 A 
ATOM     13  C   UNL     1       3.457  -6.748   0.190  0.00  0.00    +0.045 A 
ATOM     14  C   UNL     1       4.344  -6.985  -0.846  0.00  0.00    -0.029 A 
ATOM     15  C   UNL     1       5.468  -7.763  -0.637  0.00  0.00    +0.050 A 
ATOM     16  C   UNL     1       5.714  -8.303   0.615  0.00  0.00    +0.126 A 
ATOM     17  C   UNL     1       4.084  -6.394  -2.208  0.00  0.00    +0.045 C 
ATOM     18 CL   UNL     1       2.048  -5.771  -0.085  0.00  0.00    -0.083 Cl
BRANCH  16  19
ATOM     19  O   UNL     1       6.822  -9.062   0.823  0.00  0.00    -0.506 OA
ATOM     20  H   UNL     1       6.689 -10.006   0.656  0.00  0.00    +0.292 HD
ENDBRANCH  16  19
ENDBRANCH   3  11
BRANCH   1  25
ATOM     21  C   UNL     1       2.712  -4.082   3.767  0.00  0.00    +0.121 A 
ATOM     22  C   UNL     1       3.720  -3.458   4.487  0.00  0.00    +0.045 A 
ATOM     23  C   UNL     1       4.546  -4.204   5.306  0.00  0.00    +0.004 A 
ATOM     24  C   UNL     1       4.368  -5.572   5.407  0.00  0.00    +0.006 A 
ATOM     25  C   UNL     1       3.365  -6.196   4.691  0.00  0.00    -0.019 A 
ATOM     26  C   UNL     1       2.532  -5.454   3.875  0.00  0.00    +0.051 A 
BRANCH  21  27
ATOM     27  O   UNL     1       1.897  -3.351   2.962  0.00  0.00    -0.492 OA
BRANCH  27  28
ATOM     28  C   UNL     1       2.140  -1.944   2.900  0.00  0.00    +0.229 C 
BRANCH  28  29
ATOM     29  C   UNL     1       1.132  -1.294   1.950  0.00  0.00    +0.041 C 
BRANCH  29  30
ATOM     30  C   UNL     1       1.392   0.212   1.883  0.00  0.00    +0.003 C 
BRANCH  30  32
ATOM     31  C   UNL     1       0.644   2.369   0.867  0.00  0.00    +0.004 C 
ATOM     32  C   UNL     1       0.384   0.863   0.934  0.00  0.00    -0.003 C 
ENDBRANCH  30  32
ENDBRANCH  29  30
ENDBRANCH  28  29
ENDBRANCH  27  28
ENDBRANCH  21  27
ENDBRANCH   1  25
BRANCH  10  33
ATOM     33  C   UNL     1       2.221  -7.641   7.235  0.00  0.00    +0.183 C 
BRANCH  33  34
ATOM     34  C   UNL     1       1.042  -8.579   7.271  0.00  0.00    +0.122 A 
ATOM     35  C   UNL     1       0.935  -9.678   8.039  0.00  0.00    +0.046 A 
ATOM     36  C   UNL     1      -0.325 -10.254   7.756  0.00  0.00    +0.041 A 
ATOM     37  C   UNL     1      -0.912  -9.473   6.832  0.00  0.00    +0.195 A 
ATOM     38  O   UNL     1      -0.081  -8.457   6.546  0.00  0.00    -0.466 OA
ENDBRANCH  33  34
ENDBRANCH  10  33
TORSDOF 10
