REMARK  Name = ZINC42027415
REMARK  4 active torsions:
REMARK  status: ('A' for Active; 'I' for Inactive)
REMARK    1  A    between atoms: C_1  and  C_2
REMARK    2  A    between atoms: C_4  and  C_9
REMARK    3  A    between atoms: C_7  and  N_8
REMARK    4  A    between atoms: N_13  and  C_14
REMARK                            x       y       z     vdW  Elec       q    Type
REMARK                         _______ _______ _______ _____ _____    ______ ____
ROOT
ATOM      1  C   UNL     1      -0.300  -2.969  -2.466  0.00  0.00    +0.187 A 
ATOM      2  N   UNL     1      -0.529  -2.433  -3.647  0.00  0.00    -0.108 NA
ATOM      3  N   UNL     1      -0.012  -3.152  -4.577  0.00  0.00    -0.022 NA
ATOM      4  N   UNL     1       0.576  -4.184  -4.077  0.00  0.00    -0.039 NA
ATOM      5  N   UNL     1       0.419  -4.108  -2.681  0.00  0.00    -0.192 N 
ENDROOT
BRANCH   1   9
ATOM      6  C   UNL     1      -1.870   0.856   0.325  0.00  0.00    +0.045 C 
ATOM      7  C   UNL     1      -1.491  -0.597   0.189  0.00  0.00    -0.029 A 
ATOM      8  C   UNL     1      -1.086  -1.091  -1.032  0.00  0.00    +0.016 A 
ATOM      9  C   UNL     1      -0.735  -2.436  -1.157  0.00  0.00    +0.021 A 
ATOM     10  C   UNL     1      -0.795  -3.277  -0.044  0.00  0.00    +0.013 A 
ATOM     11  C   UNL     1      -1.200  -2.777   1.173  0.00  0.00    +0.023 A 
ATOM     12  C   UNL     1      -1.544  -1.435   1.297  0.00  0.00    +0.028 A 
BRANCH  12  13
ATOM     13  N   UNL     1      -1.948  -0.931   2.532  0.00  0.00    -0.358 N 
ATOM     14  H   UNL     1      -2.192   0.004   2.618  0.00  0.00    +0.142 HD
ATOM     15  H   UNL     1      -1.986  -1.515   3.305  0.00  0.00    +0.142 HD
ENDBRANCH  12  13
ENDBRANCH   1   9
BRANCH   5  16
ATOM     16  C   UNL     1       0.897  -5.009  -1.720  0.00  0.00    +0.083 A 
ATOM     17  C   UNL     1       1.759  -4.572  -0.723  0.00  0.00    +0.029 A 
ATOM     18  C   UNL     1       2.228  -5.462   0.223  0.00  0.00    +0.002 A 
ATOM     19  C   UNL     1       1.840  -6.789   0.179  0.00  0.00    +0.001 A 
ATOM     20  C   UNL     1       0.982  -7.229  -0.812  0.00  0.00    +0.017 A 
ATOM     21  C   UNL     1       0.504  -6.341  -1.758  0.00  0.00    +0.043 A 
ATOM     22 BR   UNL     1      -0.676  -6.942  -3.109  0.00  0.00    -0.048 Br
ENDBRANCH   5  16
TORSDOF 3
