REMARK  Name = ZINC39231290
REMARK  5 active torsions:
REMARK  status: ('A' for Active; 'I' for Inactive)
REMARK    1  A    between atoms: C_4  and  C_7
REMARK    2  A    between atoms: C_8  and  N_16
REMARK    3  A    between atoms: C_11  and  C_12
REMARK    4  A    between atoms: C_17  and  C_19
REMARK    5  A    between atoms: C_19  and  N_20
REMARK                            x       y       z     vdW  Elec       q    Type
REMARK                         _______ _______ _______ _____ _____    ______ ____
ROOT
ATOM      1  N   UNL     1       3.248  -1.625  -2.286  0.00  0.00    -0.286 N 
ATOM      2  C   UNL     1       3.672  -2.301  -3.371  0.00  0.00    +0.201 C 
ATOM      3  O   UNL     1       4.741  -2.875  -3.349  0.00  0.00    -0.278 OA
ATOM      4  H   UNL     1       2.361  -1.232  -2.276  0.00  0.00    +0.155 HD
ENDROOT
BRANCH   1   6
ATOM      5  C   UNL     1       3.711  -0.662  -0.052  0.00  0.00    +0.022 A 
ATOM      6  C   UNL     1       4.090  -1.488  -1.169  0.00  0.00    +0.049 A 
ATOM      7  C   UNL     1       5.282  -2.130  -1.111  0.00  0.00    +0.069 A 
ATOM      8  S   UNL     1       5.925  -1.625   0.474  0.00  0.00    -0.090 S 
ATOM      9  C   UNL     1       4.582  -0.574   0.996  0.00  0.00    +0.102 A 
BRANCH   5  13
ATOM     10  C   UNL     1       0.017   1.442  -0.026  0.00  0.00    +0.000 A 
ATOM     11  C   UNL     1       1.209   2.143  -0.045  0.00  0.00    +0.001 A 
ATOM     12  C   UNL     1       2.411   1.465  -0.054  0.00  0.00    +0.008 A 
ATOM     13  C   UNL     1       2.422   0.072  -0.043  0.00  0.00    -0.015 A 
ATOM     14  C   UNL     1       1.218  -0.630  -0.023  0.00  0.00    +0.008 A 
ATOM     15  C   UNL     1       0.022   0.059  -0.015  0.00  0.00    +0.001 A 
ENDBRANCH   5  13
BRANCH   9  16
ATOM     16  C   UNL     1       4.443   0.213   2.273  0.00  0.00    +0.424 C 
ATOM     17  F   UNL     1       3.816  -0.577   3.242  0.00  0.00    -0.165 F 
ATOM     18  F   UNL     1       5.711   0.591   2.729  0.00  0.00    -0.165 F 
ATOM     19  F   UNL     1       3.674   1.357   2.035  0.00  0.00    -0.165 F 
ENDBRANCH   9  16
ENDBRANCH   1   6
BRANCH   2  20
ATOM     20  C   UNL     1       2.820  -2.345  -4.613  0.00  0.00    +0.019 C 
BRANCH  20  21
ATOM     21  N   UNL     1       3.500  -3.139  -5.646  0.00  0.00    +0.386 N 
ATOM     22  C   UNL     1       3.615  -4.531  -5.194  0.00  0.00    -0.074 C 
ATOM     23  C   UNL     1       4.394  -5.344  -6.229  0.00  0.00    +0.030 C 
ATOM     24  C   UNL     1       3.655  -5.298  -7.569  0.00  0.00    +0.114 C 
ATOM     25  C   UNL     1       3.471  -3.840  -7.994  0.00  0.00    +0.030 C 
ATOM     26  C   UNL     1       2.727  -3.082  -6.892  0.00  0.00    -0.074 C 
ATOM     27  C   UNL     1       4.481  -6.037  -8.630  0.00  0.00    +0.127 C 
ATOM     28  C   UNL     1       4.607  -7.481  -8.175  0.00  0.00    +0.170 C 
ATOM     29  O   UNL     1       5.640  -8.103  -8.306  0.00  0.00    -0.292 OA
ATOM     30  C   UNL     1       3.409  -8.087  -7.567  0.00  0.00    +0.059 A 
ATOM     31  C   UNL     1       3.341  -9.463  -7.345  0.00  0.00    +0.015 A 
ATOM     32  C   UNL     1       2.213 -10.005  -6.767  0.00  0.00    +0.001 A 
ATOM     33  C   UNL     1       1.152  -9.187  -6.409  0.00  0.00    +0.004 A 
ATOM     34  C   UNL     1       1.208  -7.825  -6.627  0.00  0.00    +0.046 A 
ATOM     35  C   UNL     1       2.333  -7.259  -7.210  0.00  0.00    +0.132 A 
ATOM     36  O   UNL     1       2.380  -5.925  -7.435  0.00  0.00    -0.485 OA
ATOM     37  H   UNL     1       4.422  -2.763  -5.806  0.00  0.00    -0.081 HD
ENDBRANCH  20  21
ENDBRANCH   2  20
TORSDOF 5
