REMARK  Name = ZINC34970210
REMARK  7 active torsions:
REMARK  status: ('A' for Active; 'I' for Inactive)
REMARK    1  A    between atoms: C_4  and  C_7
REMARK    2  A    between atoms: C_7  and  C_8
REMARK    3  A    between atoms: C_8  and  C_10
REMARK    4  A    between atoms: C_8  and  N_19
REMARK    5  A    between atoms: N_12  and  C_13
REMARK    6  A    between atoms: C_13  and  C_14
REMARK    7  A    between atoms: N_22  and  C_23
REMARK                            x       y       z     vdW  Elec       q    Type
REMARK                         _______ _______ _______ _____ _____    ______ ____
ROOT
ATOM      1  C   UNL     1       4.182  -0.962   1.417  0.00  0.00    +0.165 C 
ENDROOT
BRANCH   1   2
ATOM      2  N   UNL     1       3.237  -1.869   2.074  0.00  0.00    -0.288 N 
ATOM      3  C   UNL     1       2.119  -1.379   2.644  0.00  0.00    +0.305 C 
ATOM      4  O   UNL     1       1.893  -0.184   2.613  0.00  0.00    -0.252 OA
ATOM      5  N   UNL     1       1.249  -2.213   3.248  0.00  0.00    -0.268 N 
ATOM      6  H   UNL     1       3.417  -2.821   2.099  0.00  0.00    +0.151 HD
ATOM      7  H   UNL     1       1.386  -3.172   3.202  0.00  0.00    +0.156 HD
BRANCH   5   8
ATOM      8  C   UNL     1       0.148  -1.695   3.942  0.00  0.00    +0.053 A 
ATOM      9  C   UNL     1       0.194  -0.406   4.455  0.00  0.00    +0.026 A 
ATOM     10  C   UNL     1      -0.893   0.103   5.139  0.00  0.00    +0.022 A 
ATOM     11  C   UNL     1      -2.027  -0.671   5.313  0.00  0.00    +0.042 A 
ATOM     12  C   UNL     1      -2.076  -1.956   4.802  0.00  0.00    +0.041 A 
ATOM     13  C   UNL     1      -0.994  -2.468   4.112  0.00  0.00    +0.064 A 
ATOM     14 CL   UNL     1      -1.058  -4.077   3.465  0.00  0.00    -0.082 Cl
ATOM     15 CL   UNL     1      -3.391  -0.028   6.173  0.00  0.00    -0.083 Cl
ENDBRANCH   5   8
ENDBRANCH   1   2
BRANCH   1  16
ATOM     16  C   UNL     1       5.556  -1.583   1.415  0.00  0.00    +0.234 C 
ATOM     17  O   UNL     1       5.728  -2.675   1.913  0.00  0.00    -0.274 OA
ATOM     18  N   UNL     1       6.592  -0.924   0.860  0.00  0.00    -0.307 N 
ATOM     19  H   UNL     1       6.454  -0.050   0.462  0.00  0.00    +0.149 HD
BRANCH  18  20
ATOM     20  C   UNL     1       7.927  -1.528   0.858  0.00  0.00    +0.178 C 
BRANCH  20  21
ATOM     21  C   UNL     1       8.899  -0.595   0.183  0.00  0.00    +0.122 A 
ATOM     22  C   UNL     1       9.625   0.360   0.791  0.00  0.00    +0.046 A 
ATOM     23  C   UNL     1      10.396   0.991  -0.212  0.00  0.00    +0.041 A 
ATOM     24  C   UNL     1      10.094   0.384  -1.374  0.00  0.00    +0.195 A 
ATOM     25  O   UNL     1       9.192  -0.580  -1.128  0.00  0.00    -0.466 OA
ENDBRANCH  20  21
ENDBRANCH  18  20
ENDBRANCH   1  16
BRANCH   1  26
ATOM     26  C   UNL     1       3.733  -0.713  -0.024  0.00  0.00    +0.067 C 
BRANCH  26  30
ATOM     27  C   UNL     1      -0.002   1.360  -0.016  0.00  0.00    +0.000 A 
ATOM     28  C   UNL     1       1.184   2.071  -0.017  0.00  0.00    +0.000 A 
ATOM     29  C   UNL     1       2.392   1.400  -0.019  0.00  0.00    +0.004 A 
ATOM     30  C   UNL     1       2.416   0.018  -0.020  0.00  0.00    -0.045 A 
ATOM     31  C   UNL     1       1.230  -0.693  -0.018  0.00  0.00    +0.004 A 
ATOM     32  C   UNL     1       0.021  -0.022  -0.017  0.00  0.00    +0.000 A 
ENDBRANCH  26  30
ENDBRANCH   1  26
TORSDOF 7
