REMARK  Name = ZINC63515159
REMARK  7 active torsions:
REMARK  status: ('A' for Active; 'I' for Inactive)
REMARK    1  A    between atoms: C_1  and  C_2
REMARK    2  A    between atoms: C_2  and  N_3
REMARK    3  A    between atoms: C_7  and  C_28
REMARK    4  A    between atoms: N_11  and  C_12
REMARK    5  A    between atoms: C_15  and  C_18
REMARK    6  A    between atoms: C_18  and  C_19
REMARK    7  A    between atoms: N_30  and  C_31
REMARK                            x       y       z     vdW  Elec       q    Type
REMARK                         _______ _______ _______ _____ _____    ______ ____
ROOT
ATOM      1  N   UNL     1       0.723  -0.477   1.184  0.00  0.00    -0.251 N 
ATOM      2  C   UNL     1       2.030  -0.670   1.094  0.00  0.00    +0.223 C 
ATOM      3  O   UNL     1       2.548  -0.293   0.064  0.00  0.00    -0.275 OA
ATOM      4  C   UNL     1       2.950  -1.287   2.091  0.00  0.00    +0.120 C 
ATOM      5  C   UNL     1       2.453  -1.119   3.528  0.00  0.00    +0.149 C 
ATOM      6  S   UNL     1       0.725  -1.695   3.596  0.00  0.00    -0.077 S 
ATOM      7  C   UNL     1      -0.020  -0.702   2.329  0.00  0.00    +0.164 C 
ATOM      8  N   UNL     1      -1.226  -0.203   2.470  0.00  0.00    -0.226 NA
ENDROOT
BRANCH   8   9
ATOM      9  C   UNL     1      -1.936  -0.444   3.615  0.00  0.00    +0.067 A 
ATOM     10  C   UNL     1      -1.977  -1.729   4.159  0.00  0.00    +0.028 A 
ATOM     11  C   UNL     1      -2.695  -1.964   5.313  0.00  0.00    +0.006 A 
ATOM     12  C   UNL     1      -3.374  -0.930   5.932  0.00  0.00    -0.044 A 
ATOM     13  C   UNL     1      -3.337   0.347   5.399  0.00  0.00    +0.006 A 
ATOM     14  C   UNL     1      -2.619   0.597   4.249  0.00  0.00    +0.028 A 
BRANCH  12  15
ATOM     15  C   UNL     1      -4.156  -1.194   7.192  0.00  0.00    +0.081 C 
BRANCH  15  16
ATOM     16  C   UNL     1      -3.250  -0.988   8.408  0.00  0.00    +0.178 C 
ATOM     17  N   UNL     1      -2.148  -1.958   8.385  0.00  0.00    -0.363 N 
ATOM     18  C   UNL     1      -2.242  -2.681   9.463  0.00  0.00    +0.060 A 
ATOM     19  C   UNL     1      -1.441  -3.794   9.992  0.00  0.00    +0.027 A 
ATOM     20  C   UNL     1      -1.787  -4.363  11.165  0.00  0.00    +0.002 A 
ATOM     21  C   UNL     1      -2.895  -3.936  11.918  0.00  0.00    +0.002 A 
ATOM     22  C   UNL     1      -3.695  -2.925  11.524  0.00  0.00    +0.027 A 
ATOM     23  C   UNL     1      -3.414  -2.228  10.261  0.00  0.00    +0.060 A 
ATOM     24  N   UNL     1      -4.000  -1.243   9.645  0.00  0.00    -0.363 N 
ATOM     25  H   UNL     1      -1.474  -2.044   7.693  0.00  0.00    +0.162 HD
ATOM     26  H   UNL     1      -4.788  -0.764   9.947  0.00  0.00    +0.162 HD
ENDBRANCH  15  16
ENDBRANCH  12  15
ENDBRANCH   8   9
BRANCH   5  27
ATOM     27  C   UNL     1       3.304  -1.942   4.461  0.00  0.00    +0.231 C 
ATOM     28  O   UNL     1       3.819  -2.966   4.067  0.00  0.00    -0.274 OA
ATOM     29  N   UNL     1       3.491  -1.540   5.734  0.00  0.00    -0.285 N 
ATOM     30  H   UNL     1       3.135  -0.687   6.030  0.00  0.00    +0.155 HD
BRANCH  29  31
ATOM     31  C   UNL     1       4.199  -2.351   6.627  0.00  0.00    +0.033 A 
ATOM     32  C   UNL     1       3.829  -2.401   7.965  0.00  0.00    +0.023 A 
ATOM     33  C   UNL     1       4.530  -3.203   8.844  0.00  0.00    +0.002 A 
ATOM     34  C   UNL     1       5.599  -3.956   8.393  0.00  0.00    +0.000 A 
ATOM     35  C   UNL     1       5.970  -3.907   7.062  0.00  0.00    +0.002 A 
ATOM     36  C   UNL     1       5.269  -3.112   6.177  0.00  0.00    +0.023 A 
ENDBRANCH  29  31
ENDBRANCH   5  27
BRANCH   1  38
ATOM     37  C   UNL     1       0.010   1.541   0.002  0.00  0.00    +0.025 C 
ATOM     38  C   UNL     1       0.019   0.011  -0.004  0.00  0.00    +0.112 C 
ENDBRANCH   1  38
TORSDOF 6
