REMARK  Name = ZINC06408526
REMARK  13 active torsions:
REMARK  status: ('A' for Active; 'I' for Inactive)
REMARK    1  A    between atoms: C_1  and  C_2
REMARK    2  A    between atoms: C_9  and  C_14
REMARK    3  A    between atoms: C_14  and  C_16
REMARK    4  A    between atoms: C_14  and  N_72
REMARK    5  A    between atoms: N_20  and  C_21
REMARK    6  A    between atoms: C_21  and  C_22
REMARK    7  A    between atoms: C_21  and  C_23
REMARK    8  A    between atoms: C_21  and  C_24
REMARK    9  A    between atoms: C_25  and  C_26
REMARK   10  A    between atoms: C_25  and  N_72
REMARK   11  A    between atoms: C_26  and  C_27
REMARK   12  A    between atoms: C_33  and  C_34
REMARK   13  A    between atoms: C_33  and  N_72
REMARK                            x       y       z     vdW  Elec       q    Type
REMARK                         _______ _______ _______ _____ _____    ______ ____
ROOT
ATOM      1  C   UNL     1       1.974   2.052   0.399  0.00  0.00    +0.039 C 
ENDROOT
BRANCH   1  10
ATOM      2  C   UNL     1      -5.306   3.374   1.328  0.00  0.00    +0.044 C 
ATOM      3  C   UNL     1      -3.901   3.865   1.096  0.00  0.00    -0.050 A 
ATOM      4  C   UNL     1      -3.660   5.226   0.963  0.00  0.00    +0.005 A 
ATOM      5  C   UNL     1      -2.381   5.698   0.760  0.00  0.00    +0.026 A 
ATOM      6  C   UNL     1      -1.321   4.802   0.673  0.00  0.00    +0.049 A 
ATOM      7  C   UNL     1      -1.569   3.423   0.804  0.00  0.00    -0.001 A 
ATOM      8  C   UNL     1      -2.874   2.967   1.019  0.00  0.00    +0.013 A 
ATOM      9  C   UNL     1      -0.446   2.488   0.716  0.00  0.00    +0.017 A 
ATOM     10  C   UNL     1       0.797   2.987   0.501  0.00  0.00    +0.011 A 
ATOM     11  C   UNL     1       0.991   4.379   0.372  0.00  0.00    +0.251 A 
ATOM     12  O   UNL     1       2.116   4.806   0.179  0.00  0.00    -0.268 OA
ATOM     13  N   UNL     1      -0.034   5.245   0.456  0.00  0.00    -0.322 N 
ATOM     14  H   UNL     1       0.135   6.196   0.363  0.00  0.00    +0.169 HD
ENDBRANCH   1  10
BRANCH   1  15
ATOM     15  C   UNL     1       2.580   2.156  -0.977  0.00  0.00    +0.143 A 
ATOM     16  N   UNL     1       3.371   3.106  -1.413  0.00  0.00    -0.115 NA
ATOM     17  N   UNL     1       3.676   2.838  -2.636  0.00  0.00    -0.023 NA
ATOM     18  N   UNL     1       3.100   1.743  -2.991  0.00  0.00    -0.043 NA
ATOM     19  N   UNL     1       2.420   1.289  -1.993  0.00  0.00    -0.225 N 
BRANCH  19  20
ATOM     20  C   UNL     1       1.620   0.061  -1.972  0.00  0.00    +0.059 C 
ATOM     21  C   UNL     1       0.188   0.393  -1.548  0.00  0.00    +0.036 C 
ATOM     22  C   UNL     1       1.607  -0.563  -3.369  0.00  0.00    +0.036 C 
ATOM     23  C   UNL     1       2.231  -0.928  -0.977  0.00  0.00    +0.036 C 
ENDBRANCH  19  20
ENDBRANCH   1  15
BRANCH   1  24
ATOM     24  N   UNL     1       2.990   2.444   1.399  0.00  0.00    +0.392 N 
ATOM     25  H   UNL     1       3.365   3.366   1.150  0.00  0.00    -0.080 HD
BRANCH  24  26
ATOM     26  C   UNL     1       2.373   2.523   2.740  0.00  0.00    -0.072 C 
BRANCH  26  27
ATOM     27  C   UNL     1       3.324   3.275   3.674  0.00  0.00    +0.016 C 
BRANCH  27  28
ATOM     28  C   UNL     1       2.728   3.332   5.057  0.00  0.00    -0.049 A 
ATOM     29  C   UNL     1       1.916   4.392   5.416  0.00  0.00    +0.003 A 
ATOM     30  C   UNL     1       1.365   4.443   6.683  0.00  0.00    +0.000 A 
ATOM     31  C   UNL     1       1.635   3.438   7.595  0.00  0.00    +0.000 A 
ATOM     32  C   UNL     1       2.451   2.381   7.237  0.00  0.00    +0.000 A 
ATOM     33  C   UNL     1       2.997   2.328   5.969  0.00  0.00    +0.003 A 
ENDBRANCH  27  28
ENDBRANCH  26  27
ENDBRANCH  24  26
BRANCH  24  34
ATOM     34  C   UNL     1       4.095   1.463   1.408  0.00  0.00    -0.042 C 
BRANCH  34  35
ATOM     35  C   UNL     1       5.083   1.842   0.335  0.00  0.00    -0.064 A 
ATOM     36  C   UNL     1       5.044   1.211  -0.894  0.00  0.00    +0.004 A 
ATOM     37  C   UNL     1       5.947   1.562  -1.880  0.00  0.00    +0.038 A 
ATOM     38  C   UNL     1       6.897   2.538  -1.633  0.00  0.00    +0.123 A 
ATOM     39  C   UNL     1       6.938   3.166  -0.399  0.00  0.00    +0.038 A 
ATOM     40  C   UNL     1       6.031   2.817   0.584  0.00  0.00    +0.004 A 
ATOM     41  F   UNL     1       7.783   2.879  -2.594  0.00  0.00    -0.205 F 
ENDBRANCH  34  35
ENDBRANCH  24  34
ENDBRANCH   1  24
TORSDOF 9
