REMARK  Name = ZINC66448349
REMARK  10 active torsions:
REMARK  status: ('A' for Active; 'I' for Inactive)
REMARK    1  A    between atoms: C_1  and  C_2
REMARK    2  A    between atoms: C_2  and  C_3
REMARK    3  A    between atoms: C_2  and  C_4
REMARK    4  A    between atoms: C_2  and  O_5
REMARK    5  A    between atoms: O_5  and  C_6
REMARK    6  A    between atoms: N_8  and  C_9
REMARK    7  A    between atoms: N_14  and  C_16
REMARK    8  A    between atoms: C_16  and  N_17
REMARK    9  A    between atoms: N_23  and  C_24
REMARK   10  A    between atoms: N_23  and  C_25
REMARK                            x       y       z     vdW  Elec       q    Type
REMARK                         _______ _______ _______ _____ _____    ______ ____
ROOT
ATOM      1  C   UNL     1       4.035  -0.071  -2.601  0.00  0.00    +0.090 C 
ATOM      2  C   UNL     1       4.079   1.308  -3.265  0.00  0.00    +0.025 C 
ATOM      3  C   UNL     1       5.538   1.706  -3.501  0.00  0.00    +0.017 C 
ATOM      4  C   UNL     1       6.218   0.642  -4.366  0.00  0.00    +0.086 C 
ATOM      5  N   UNL     1       6.151  -0.659  -3.687  0.00  0.00    -0.282 NA
ATOM      6  C   UNL     1       4.759  -1.084  -3.491  0.00  0.00    +0.108 C 
ENDROOT
BRANCH   1   9
ATOM      7  C   UNL     1       1.952  -0.085  -1.337  0.00  0.00    +0.401 C 
ATOM      8  O   UNL     1       2.488   0.619  -0.503  0.00  0.00    -0.226 OA
ATOM      9  N   UNL     1       2.641  -0.485  -2.424  0.00  0.00    -0.277 N 
ATOM     10  H   UNL     1       2.213  -1.047  -3.089  0.00  0.00    +0.152 HD
BRANCH   7  11
ATOM     11  O   UNL     1       0.671  -0.465  -1.174  0.00  0.00    -0.445 OA
BRANCH  11  13
ATOM     12  C   UNL     1      -0.019   1.526   0.010  0.00  0.00    +0.055 C 
ATOM     13  C   UNL     1       0.002  -0.004   0.002  0.00  0.00    +0.107 C 
ATOM     14  C   UNL     1       0.742  -0.511   1.242  0.00  0.00    +0.055 C 
ATOM     15  C   UNL     1      -1.433  -0.534   0.013  0.00  0.00    +0.055 C 
ENDBRANCH  11  13
ENDBRANCH   7  11
ENDBRANCH   1   9
BRANCH   5  16
ATOM     16  C   UNL     1       6.914  -1.676  -4.422  0.00  0.00    +0.232 C 
BRANCH  16  17
ATOM     17  N   UNL     1       8.336  -1.550  -4.095  0.00  0.00    -0.234 N 
ATOM     18  C   UNL     1       9.204  -0.998  -4.980  0.00  0.00    +0.146 A 
ATOM     19  S   UNL     1       8.909  -0.368  -6.544  0.00  0.00    -0.023 S 
ATOM     20  S   UNL     1      10.738  -1.106  -4.070  0.00  0.00    -0.026 S 
ATOM     21  C   UNL     1      10.090  -1.876  -2.595  0.00  0.00    +0.182 A 
ATOM     22  N   UNL     1       8.819  -1.985  -2.882  0.00  0.00    -0.146 NA
ATOM     23  N   UNL     1      10.761  -2.254  -1.441  0.00  0.00    -0.314 N 
ATOM     24  C   UNL     1      10.026  -2.878  -0.338  0.00  0.00    +0.131 C 
ATOM     25  C   UNL     1      12.204  -2.031  -1.326  0.00  0.00    +0.131 C 
ENDBRANCH  16  17
ENDBRANCH   5  16
TORSDOF 5
