REMARK  Name = ZINC01754198
REMARK  6 active torsions:
REMARK  status: ('A' for Active; 'I' for Inactive)
REMARK    1  A    between atoms: C_3  and  C_10
REMARK    2  A    between atoms: C_5  and  N_7
REMARK    3  A    between atoms: N_11  and  N_12
REMARK    4  A    between atoms: C_13  and  C_15
REMARK    5  A    between atoms: C_15  and  N_16
REMARK    6  A    between atoms: C_17  and  C_19
REMARK                            x       y       z     vdW  Elec       q    Type
REMARK                         _______ _______ _______ _____ _____    ______ ____
ROOT
ATOM      1  N   UNL     1      -1.222   7.354   0.051  0.00  0.00    -0.206 N 
ATOM      2  C   UNL     1      -2.398   8.012   0.065  0.00  0.00    +0.249 C 
ATOM      3  O   UNL     1      -3.440   7.391   0.071  0.00  0.00    -0.272 OA
ATOM      4  H   UNL     1      -0.388   7.850   0.045  0.00  0.00    +0.177 HD
ENDROOT
BRANCH   1   6
ATOM      5  C   UNL     1      -0.070   5.320   0.029  0.00  0.00    +0.138 C 
ATOM      6  N   UNL     1      -1.202   5.953   0.043  0.00  0.00    -0.188 NA
BRANCH   5   9
ATOM      7  C   UNL     1      -1.222   1.748   0.017  0.00  0.00    +0.003 A 
ATOM      8  C   UNL     1      -1.248   3.127   0.030  0.00  0.00    +0.009 A 
ATOM      9  C   UNL     1      -0.050   3.845   0.022  0.00  0.00    -0.003 A 
ATOM     10  C   UNL     1       1.167   3.160   0.007  0.00  0.00    +0.042 A 
ATOM     11  C   UNL     1       1.178   1.781   0.000  0.00  0.00    +0.127 A 
ATOM     12  C   UNL     1      -0.013   1.076   0.008  0.00  0.00    +0.033 A 
BRANCH  11  13
ATOM     13  N   UNL     1       2.467   1.053  -0.015  0.00  0.00    +0.056 N 
ATOM     14  O   UNL     1       2.479  -0.165  -0.022  0.00  0.00    -0.126 OA
ATOM     15  O   UNL     1       3.516   1.672  -0.022  0.00  0.00    -0.126 OA
ENDBRANCH  11  13
ENDBRANCH   5   9
ENDBRANCH   1   6
BRANCH   2  16
ATOM     16  C   UNL     1      -2.418   9.519   0.073  0.00  0.00    +0.202 C 
BRANCH  16  17
ATOM     17  N   UNL     1      -3.806   9.988   0.088  0.00  0.00    -0.303 N 
ATOM     18  C   UNL     1      -4.070  11.310   0.097  0.00  0.00    +0.246 C 
ATOM     19  O   UNL     1      -3.157  12.112   0.092  0.00  0.00    -0.270 OA
ATOM     20  H   UNL     1      -4.534   9.348   0.091  0.00  0.00    +0.150 HD
BRANCH  18  21
ATOM     21  C   UNL     1      -5.469  11.783   0.113  0.00  0.00    +0.055 A 
ATOM     22  C   UNL     1      -6.520  10.864   0.118  0.00  0.00    +0.016 A 
ATOM     23  C   UNL     1      -7.824  11.312   0.133  0.00  0.00    +0.021 A 
ATOM     24  C   UNL     1      -8.093  12.671   0.142  0.00  0.00    +0.042 A 
ATOM     25  C   UNL     1      -7.057  13.588   0.137  0.00  0.00    +0.040 A 
ATOM     26  C   UNL     1      -5.746  13.153   0.128  0.00  0.00    +0.054 A 
ATOM     27 CL   UNL     1      -4.447  14.304   0.129  0.00  0.00    -0.083 Cl
ATOM     28 CL   UNL     1      -9.738  13.226   0.161  0.00  0.00    -0.083 Cl
ENDBRANCH  18  21
ENDBRANCH  16  17
ENDBRANCH   2  16
TORSDOF 6
