REMARK  Name = ZINC12845871
REMARK  12 active torsions:
REMARK  status: ('A' for Active; 'I' for Inactive)
REMARK    1  A    between atoms: C_1  and  C_2
REMARK    2  A    between atoms: C_2  and  N_65
REMARK    3  A    between atoms: C_3  and  C_4
REMARK    4  A    between atoms: C_3  and  N_65
REMARK    5  A    between atoms: C_5  and  C_6
REMARK    6  A    between atoms: C_5  and  N_65
REMARK    7  A    between atoms: C_9  and  C_12
REMARK    8  A    between atoms: C_12  and  N_13
REMARK    9  A    between atoms: C_14  and  C_16
REMARK   10  A    between atoms: N_19  and  S_22
REMARK   11  A    between atoms: S_22  and  C_25
REMARK   12  A    between atoms: C_28  and  C_31
REMARK                            x       y       z     vdW  Elec       q    Type
REMARK                         _______ _______ _______ _____ _____    ______ ____
ROOT
ATOM      1  N   UNL     1      -2.910   1.761   5.861  0.00  0.00    -0.311 N 
ATOM      2  C   UNL     1      -3.492   1.994   7.054  0.00  0.00    +0.216 C 
ATOM      3  O   UNL     1      -4.436   2.751   7.130  0.00  0.00    -0.276 OA
ATOM      4  H   UNL     1      -2.155   1.155   5.800  0.00  0.00    +0.149 HD
ENDROOT
BRANCH   2   5
ATOM      5  C   UNL     1      -2.970   1.313   8.293  0.00  0.00    +0.077 C 
ATOM      6  C   UNL     1      -3.069  -0.204   8.121  0.00  0.00    +0.030 C 
ATOM      7  C   UNL     1      -2.505  -0.893   9.368  0.00  0.00    +0.110 C 
ATOM      8  N   UNL     1      -3.203  -0.372  10.552  0.00  0.00    -0.177 NA
ATOM      9  C   UNL     1      -3.246   1.081  10.764  0.00  0.00    +0.110 C 
ATOM     10  C   UNL     1      -3.801   1.748   9.502  0.00  0.00    +0.030 C 
BRANCH   8  11
ATOM     11  S   UNL     1      -3.926  -1.404  11.627  0.00  0.00    +0.061 S 
ATOM     12  O   UNL     1      -3.270  -2.657  11.491  0.00  0.00    -0.153 OA
ATOM     13  O   UNL     1      -3.999  -0.713  12.866  0.00  0.00    -0.153 OA
BRANCH  11  14
ATOM     14  C   UNL     1      -5.585  -1.642  11.084  0.00  0.00    +0.106 A 
ATOM     15  C   UNL     1      -6.586  -0.802  11.539  0.00  0.00    +0.030 A 
ATOM     16  C   UNL     1      -7.886  -0.980  11.115  0.00  0.00    +0.021 A 
ATOM     17  C   UNL     1      -8.193  -2.017  10.232  0.00  0.00    +0.052 A 
ATOM     18  C   UNL     1      -7.179  -2.865   9.781  0.00  0.00    +0.021 A 
ATOM     19  C   UNL     1      -5.882  -2.672  10.209  0.00  0.00    +0.030 A 
BRANCH  17  20
ATOM     20  C   UNL     1      -9.542  -2.211   9.791  0.00  0.00    +0.099 C 
ATOM     21  N   UNL     1     -10.612  -2.365   9.441  0.00  0.00    -0.191 NA
ENDBRANCH  17  20
ENDBRANCH  11  14
ENDBRANCH   8  11
ENDBRANCH   2   5
BRANCH   1  22
ATOM     22  C   UNL     1      -3.417   2.422   4.656  0.00  0.00    +0.139 C 
BRANCH  22  26
ATOM     23  C   UNL     1      -1.098   1.213   1.279  0.00  0.00    -0.064 A 
ATOM     24  C   UNL     1      -0.721   2.321   2.015  0.00  0.00    +0.002 A 
ATOM     25  C   UNL     1      -1.474   2.714   3.106  0.00  0.00    +0.005 A 
ATOM     26  C   UNL     1      -2.599   1.995   3.465  0.00  0.00    -0.030 A 
ATOM     27  C   UNL     1      -2.972   0.884   2.732  0.00  0.00    +0.005 A 
ATOM     28  C   UNL     1      -2.222   0.493   1.640  0.00  0.00    +0.002 A 
BRANCH  23  29
ATOM     29  C   UNL     1      -0.280   0.786   0.088  0.00  0.00    -0.043 C 
BRANCH  29  30
ATOM     30  N   UNL     1      -0.819   1.444  -1.121  0.00  0.00    +0.382 N 
ATOM     31  H   UNL     1      -1.830   1.275  -1.170  0.00  0.00    -0.081 HD
BRANCH  30  33
ATOM     32  C   UNL     1       0.922   3.196  -0.999  0.00  0.00    -0.017 C 
ATOM     33  C   UNL     1      -0.579   2.901  -1.052  0.00  0.00    -0.082 C 
ENDBRANCH  30  33
BRANCH  30  34
ATOM     34  C   UNL     1      -0.178   0.883  -2.329  0.00  0.00    -0.082 C 
ATOM     35  C   UNL     1      -0.991   1.303  -3.556  0.00  0.00    -0.017 C 
ENDBRANCH  30  34
ENDBRANCH  29  30
ENDBRANCH  23  29
ENDBRANCH  22  26
ENDBRANCH   1  22
TORSDOF 10
