REMARK  Name = ZINC01460154
REMARK  2 active torsions:
REMARK  status: ('A' for Active; 'I' for Inactive)
REMARK    1  A    between atoms: C_4  and  C_7
REMARK    2  A    between atoms: C_12  and  C_17
REMARK                            x       y       z     vdW  Elec       q    Type
REMARK                         _______ _______ _______ _____ _____    ______ ____
ROOT
ATOM      1  C   UNL     1       5.245   2.825  -0.041  0.00  0.00    +0.147 C 
ATOM      2  C   UNL     1       5.529   4.246   0.374  0.00  0.00    +0.039 C 
ATOM      3  C   UNL     1       4.540   5.167   0.370  0.00  0.00    +0.020 C 
ATOM      4  C   UNL     1       4.801   6.595   0.773  0.00  0.00    +0.060 C 
ATOM      5  C   UNL     1       6.245   6.969   0.431  0.00  0.00    +0.032 C 
ATOM      6  C   UNL     1       7.184   5.997   1.155  0.00  0.00    +0.088 C 
ATOM      7  C   UNL     1       6.836   4.589   0.755  0.00  0.00    +0.164 C 
ATOM      8  O   UNL     1       7.700   3.735   0.763  0.00  0.00    -0.292 OA
ATOM      9  N   UNL     1       3.274   4.800  -0.004  0.00  0.00    -0.292 N 
ATOM     10  C   UNL     1       2.919   3.470  -0.008  0.00  0.00    +0.166 C 
ATOM     11  N   UNL     1       1.585   3.124   0.003  0.00  0.00    -0.243 N 
ATOM     12  C   UNL     1       1.216   1.793   0.000  0.00  0.00    +0.295 A 
ATOM     13  N   UNL     1      -0.016   1.357   0.009  0.00  0.00    -0.195 NA
ATOM     14  C   UNL     1       0.002  -0.004   0.002  0.00  0.00    +0.111 A 
ATOM     15  C   UNL     1      -0.994  -0.982   0.007  0.00  0.00    +0.031 A 
ATOM     16  C   UNL     1      -0.644  -2.314  -0.003  0.00  0.00    +0.002 A 
ATOM     17  C   UNL     1       0.691  -2.688  -0.018  0.00  0.00    +0.004 A 
ATOM     18  C   UNL     1       1.686  -1.732  -0.023  0.00  0.00    +0.048 A 
ATOM     19  C   UNL     1       1.352  -0.387  -0.013  0.00  0.00    +0.157 A 
ATOM     20  O   UNL     1       2.073   0.757  -0.014  0.00  0.00    -0.424 OA
ATOM     21  H   UNL     1       2.629   5.476  -0.265  0.00  0.00    +0.154 HD
ATOM     22  H   UNL     1       0.904   3.815   0.013  0.00  0.00    +0.159 HD
ATOM     23  N   UNL     1       3.789   2.455  -0.014  0.00  0.00    -0.350 N 
ATOM     24  H   UNL     1       3.479   1.476  -0.002  0.00  0.00    +0.163 HD
ENDROOT
BRANCH   5  25
ATOM     25  C   UNL     1       6.525   8.377   0.888  0.00  0.00    -0.043 A 
ATOM     26  C   UNL     1       6.379   8.713   2.221  0.00  0.00    +0.007 A 
ATOM     27  C   UNL     1       6.641  10.003   2.642  0.00  0.00    +0.038 A 
ATOM     28  C   UNL     1       7.037  10.963   1.726  0.00  0.00    +0.123 A 
ATOM     29  C   UNL     1       7.177  10.627   0.390  0.00  0.00    +0.038 A 
ATOM     30  C   UNL     1       6.921   9.334  -0.028  0.00  0.00    +0.007 A 
ATOM     31  F   UNL     1       7.287  12.226   2.135  0.00  0.00    -0.205 F 
ENDBRANCH   5  25
BRANCH   1  35
ATOM     32  C   UNL     1       6.739   2.198  -3.994  0.00  0.00    +0.000 A 
ATOM     33  C   UNL     1       7.469   1.767  -2.903  0.00  0.00    +0.000 A 
ATOM     34  C   UNL     1       6.986   1.969  -1.623  0.00  0.00    +0.006 A 
ATOM     35  C   UNL     1       5.772   2.604  -1.436  0.00  0.00    -0.021 A 
ATOM     36  C   UNL     1       5.040   3.031  -2.527  0.00  0.00    +0.006 A 
ATOM     37  C   UNL     1       5.525   2.833  -3.806  0.00  0.00    +0.000 A 
ENDBRANCH   1  35
TORSDOF 2
