REMARK  Name = ZINC36055825
REMARK  11 active torsions:
REMARK  status: ('A' for Active; 'I' for Inactive)
REMARK    1  A    between atoms: C_1  and  N_2
REMARK    2  A    between atoms: C_6  and  C_7
REMARK    3  A    between atoms: C_7  and  C_9
REMARK    4  A    between atoms: C_7  and  N_19
REMARK    5  A    between atoms: C_11  and  O_17
REMARK    6  A    between atoms: C_13  and  O_15
REMARK    7  A    between atoms: O_15  and  C_16
REMARK    8  A    between atoms: O_17  and  C_18
REMARK    9  A    between atoms: C_20  and  C_22
REMARK   10  A    between atoms: C_26  and  C_31
REMARK   11  A    between atoms: C_31  and  C_32
REMARK                            x       y       z     vdW  Elec       q    Type
REMARK                         _______ _______ _______ _____ _____    ______ ____
ROOT
ATOM      1  N   UNL     1       1.024  -1.123   3.273  0.00  0.00    -0.300 N 
ATOM      2  C   UNL     1       2.315  -0.733   3.278  0.00  0.00    +0.235 C 
ATOM      3  O   UNL     1       2.652   0.254   2.660  0.00  0.00    -0.274 OA
ATOM      4  H   UNL     1       0.754  -1.913   3.768  0.00  0.00    +0.150 HD
ENDROOT
BRANCH   2   5
ATOM      5  C   UNL     1       3.338  -1.524   4.052  0.00  0.00    +0.169 C 
ATOM      6  C   UNL     1       3.715  -2.767   3.246  0.00  0.00    +0.101 C 
ATOM      7  S   UNL     1       5.114  -3.580   4.082  0.00  0.00    -0.145 S 
ATOM      8  C   UNL     1       6.389  -2.284   4.036  0.00  0.00    +0.136 C 
ATOM      9  C   UNL     1       5.758  -0.968   4.390  0.00  0.00    +0.227 C 
ATOM     10  O   UNL     1       6.501  -0.089   4.771  0.00  0.00    -0.275 OA
ATOM     11  N   UNL     1       4.476  -0.676   4.324  0.00  0.00    -0.302 N 
ATOM     12  H   UNL     1       4.262   0.256   4.485  0.00  0.00    +0.150 HD
BRANCH   8  13
ATOM     13  C   UNL     1       7.492  -2.614   5.044  0.00  0.00    +0.058 C 
BRANCH  13  14
ATOM     14  C   UNL     1       8.195  -3.879   4.624  0.00  0.00    -0.046 A 
ATOM     15  C   UNL     1       7.735  -5.105   5.067  0.00  0.00    +0.006 A 
ATOM     16  C   UNL     1       8.379  -6.265   4.681  0.00  0.00    +0.038 A 
ATOM     17  C   UNL     1       9.485  -6.200   3.851  0.00  0.00    +0.123 A 
ATOM     18  C   UNL     1       9.945  -4.971   3.408  0.00  0.00    +0.038 A 
ATOM     19  C   UNL     1       9.296  -3.812   3.791  0.00  0.00    +0.006 A 
ATOM     20  F   UNL     1      10.116  -7.333   3.474  0.00  0.00    -0.205 F 
ENDBRANCH  13  14
ENDBRANCH   8  13
ENDBRANCH   2   5
BRANCH   1  21
ATOM     21  C   UNL     1       0.030  -0.354   2.521  0.00  0.00    +0.170 C 
BRANCH  21  27
ATOM     22  C   UNL     1      -0.018   1.461   0.010  0.00  0.00    +0.150 C 
ATOM     23  N   UNL     1       0.002  -0.004   0.002  0.00  0.00    -0.336 N 
ATOM     24  C   UNL     1       0.009  -0.810  -1.104  0.00  0.00    +0.106 A 
ATOM     25  C   UNL     1       0.029  -2.081  -0.660  0.00  0.00    +0.130 A 
ATOM     26  N   UNL     1       0.034  -2.052   0.681  0.00  0.00    -0.238 NA
ATOM     27  C   UNL     1       0.023  -0.811   1.085  0.00  0.00    +0.134 A 
ENDBRANCH  21  27
BRANCH  21  28
ATOM     28  C   UNL     1      -1.334  -0.572   3.123  0.00  0.00    -0.013 A 
ATOM     29  C   UNL     1      -1.700  -1.829   3.566  0.00  0.00    +0.051 A 
ATOM     30  C   UNL     1      -2.956  -2.032   4.121  0.00  0.00    +0.124 A 
ATOM     31  C   UNL     1      -3.843  -0.972   4.231  0.00  0.00    +0.091 A 
ATOM     32  C   UNL     1      -3.473   0.288   3.787  0.00  0.00    +0.124 A 
ATOM     33  C   UNL     1      -2.215   0.487   3.237  0.00  0.00    +0.051 A 
BRANCH  32  34
ATOM     34  O   UNL     1      -4.341   1.328   3.893  0.00  0.00    -0.495 OA
ATOM     35  C   UNL     1      -5.617   1.052   4.474  0.00  0.00    +0.277 C 
ENDBRANCH  32  34
BRANCH  30  36
ATOM     36  O   UNL     1      -3.315  -3.268   4.556  0.00  0.00    -0.495 OA
ATOM     37  C   UNL     1      -4.623  -3.404   5.116  0.00  0.00    +0.277 C 
ENDBRANCH  30  36
ENDBRANCH  21  28
ENDBRANCH   1  21
TORSDOF 8
