REMARK  Name = ZINC13064708
REMARK  12 active torsions:
REMARK  status: ('A' for Active; 'I' for Inactive)
REMARK    1  A    between atoms: C_1  and  C_2
REMARK    2  A    between atoms: C_2  and  C_3
REMARK    3  A    between atoms: C_3  and  C_5
REMARK    4  A    between atoms: C_3  and  N_66
REMARK    5  A    between atoms: N_9  and  C_10
REMARK    6  A    between atoms: C_10  and  C_11
REMARK    7  A    between atoms: C_16  and  C_17
REMARK    8  A    between atoms: C_16  and  N_66
REMARK    9  A    between atoms: C_24  and  C_25
REMARK   10  A    between atoms: C_24  and  N_66
REMARK   11  A    between atoms: C_29  and  C_38
REMARK   12  A    between atoms: C_30  and  C_37
REMARK                            x       y       z     vdW  Elec       q    Type
REMARK                         _______ _______ _______ _____ _____    ______ ____
ROOT
ATOM      1  N   UNL     1      -6.519   4.418  -1.017  0.00  0.00    +0.392 N 
ATOM      2  H   UNL     1      -6.150   5.063  -1.725  0.00  0.00    -0.080 HD
ENDROOT
BRANCH   1   3
ATOM      3  C   UNL     1      -7.546   5.118  -0.218  0.00  0.00    +0.003 C 
BRANCH   3   4
ATOM      4  C   UNL     1      -7.802   4.382   1.072  0.00  0.00    +0.139 A 
ATOM      5  N   UNL     1      -6.928   4.128   2.016  0.00  0.00    -0.115 NA
ATOM      6  N   UNL     1      -7.531   3.483   2.954  0.00  0.00    -0.023 NA
ATOM      7  N   UNL     1      -8.767   3.317   2.633  0.00  0.00    -0.044 NA
ATOM      8  N   UNL     1      -8.974   3.863   1.482  0.00  0.00    -0.223 N 
BRANCH   8   9
ATOM      9  C   UNL     1     -10.246   3.905   0.756  0.00  0.00    +0.221 C 
BRANCH   9  10
ATOM     10  C   UNL     1     -10.531   2.550   0.162  0.00  0.00    +0.126 A 
ATOM     11  C   UNL     1     -11.305   1.597   0.711  0.00  0.00    +0.046 A 
ATOM     12  C   UNL     1     -11.296   0.499  -0.180  0.00  0.00    +0.041 A 
ATOM     13  C   UNL     1     -10.511   0.844  -1.216  0.00  0.00    +0.195 A 
ATOM     14  O   UNL     1     -10.050   2.088  -1.004  0.00  0.00    -0.466 OA
ENDBRANCH   9  10
ENDBRANCH   8   9
ENDBRANCH   3   4
BRANCH   3  16
ATOM     15  C   UNL     1      -6.943   7.330  -1.209  0.00  0.00    +0.002 C 
ATOM     16  C   UNL     1      -7.048   6.531   0.091  0.00  0.00    -0.011 C 
ENDBRANCH   3  16
ENDBRANCH   1   3
BRANCH   1  17
ATOM     17  C   UNL     1      -7.117   3.250  -1.697  0.00  0.00    -0.042 C 
BRANCH  17  18
ATOM     18  C   UNL     1      -7.933   3.737  -2.866  0.00  0.00    -0.064 A 
ATOM     19  C   UNL     1      -9.252   4.108  -2.681  0.00  0.00    +0.004 A 
ATOM     20  C   UNL     1     -10.000   4.560  -3.752  0.00  0.00    +0.038 A 
ATOM     21  C   UNL     1      -9.431   4.630  -5.012  0.00  0.00    +0.123 A 
ATOM     22  C   UNL     1      -8.112   4.253  -5.197  0.00  0.00    +0.038 A 
ATOM     23  C   UNL     1      -7.364   3.807  -4.124  0.00  0.00    +0.004 A 
ATOM     24  F   UNL     1     -10.163   5.067  -6.061  0.00  0.00    -0.205 F 
ENDBRANCH  17  18
ENDBRANCH   1  17
BRANCH   1  25
ATOM     25  C   UNL     1      -5.410   3.980  -0.143  0.00  0.00    -0.036 C 
BRANCH  25  26
ATOM     26  C   UNL     1      -4.194   3.726  -0.996  0.00  0.00    +0.001 A 
ATOM     27  C   UNL     1      -3.267   4.702  -1.159  0.00  0.00    +0.017 A 
ATOM     28  C   UNL     1      -2.099   4.424  -1.998  0.00  0.00    -0.001 A 
ATOM     29  C   UNL     1      -1.118   5.396  -2.217  0.00  0.00    +0.013 A 
ATOM     30  C   UNL     1      -0.041   5.106  -3.005  0.00  0.00    -0.047 A 
ATOM     31  C   UNL     1       0.088   3.854  -3.592  0.00  0.00    -0.046 A 
ATOM     32  C   UNL     1      -0.866   2.881  -3.390  0.00  0.00    +0.030 A 
ATOM     33  C   UNL     1      -1.975   3.155  -2.595  0.00  0.00    +0.049 A 
ATOM     34  N   UNL     1      -2.948   2.203  -2.381  0.00  0.00    -0.322 N 
ATOM     35  H   UNL     1      -2.858   1.328  -2.790  0.00  0.00    +0.169 HD
ATOM     36  C   UNL     1      -4.019   2.469  -1.613  0.00  0.00    +0.251 A 
ATOM     37  O   UNL     1      -4.859   1.602  -1.446  0.00  0.00    -0.268 OA
ATOM     38  C   UNL     1       1.285   3.557  -4.458  0.00  0.00    +0.044 C 
ATOM     39  C   UNL     1       1.016   6.154  -3.241  0.00  0.00    +0.044 C 
ENDBRANCH  25  26
ENDBRANCH   1  25
TORSDOF 9
