REMARK  Name = ZINC11762999
REMARK  7 active torsions:
REMARK  status: ('A' for Active; 'I' for Inactive)
REMARK    1  A    between atoms: C_1  and  C_2
REMARK    2  A    between atoms: C_5  and  C_8
REMARK    3  A    between atoms: C_8  and  C_34
REMARK    4  A    between atoms: N_11  and  C_15
REMARK    5  A    between atoms: C_15  and  C_16
REMARK    6  A    between atoms: C_27  and  C_28
REMARK    7  A    between atoms: C_27  and  N_62
REMARK                            x       y       z     vdW  Elec       q    Type
REMARK                         _______ _______ _______ _____ _____    ______ ____
ROOT
ATOM      1  C   UNL     1       4.414   6.650  -7.753  0.00  0.00    +0.237 C 
ATOM      2  O   UNL     1       5.376   6.172  -7.189  0.00  0.00    -0.274 OA
ATOM      3  N   UNL     1       3.227   6.721  -7.119  0.00  0.00    -0.263 N 
ATOM      4  C   UNL     1       3.105   6.246  -5.818  0.00  0.00    +0.165 A 
ATOM      5  N   UNL     1       4.023   5.700  -5.046  0.00  0.00    -0.229 NA
ATOM      6  C   UNL     1       3.754   5.291  -3.811  0.00  0.00    +0.050 A 
ATOM      7  C   UNL     1       2.474   5.468  -3.388  0.00  0.00    -0.002 A 
ATOM      8  S   UNL     1       1.702   6.222  -4.791  0.00  0.00    -0.059 S 
ATOM      9  C   UNL     1       1.906   5.100  -2.060  0.00  0.00    -0.033 C 
ATOM     10  C   UNL     1       4.221   4.741  -1.444  0.00  0.00    -0.072 C 
ATOM     11  C   UNL     1       4.772   4.655  -2.870  0.00  0.00    +0.038 C 
ATOM     12  H   UNL     1       2.458   7.103  -7.570  0.00  0.00    +0.157 HD
ATOM     13  N   UNL     1       2.859   4.172  -1.402  0.00  0.00    +0.386 N 
ATOM     14  H   UNL     1       2.856   3.277  -1.906  0.00  0.00    -0.081 HD
ENDROOT
BRANCH   1  15
ATOM     15  C   UNL     1       4.547   7.165  -9.164  0.00  0.00    +0.214 C 
BRANCH  15  19
ATOM     16  C   UNL     1       7.834   6.119 -10.540  0.00  0.00    +0.135 C 
ATOM     17  C   UNL     1       6.366   5.870 -10.256  0.00  0.00    +0.251 C 
ATOM     18  O   UNL     1       5.724   4.881 -10.538  0.00  0.00    -0.272 OA
ATOM     19  N   UNL     1       5.925   6.975  -9.625  0.00  0.00    -0.215 N 
ATOM     20  C   UNL     1       6.898   7.881  -9.476  0.00  0.00    +0.310 C 
ATOM     21  O   UNL     1       6.741   8.960  -8.940  0.00  0.00    -0.252 OA
ATOM     22  N   UNL     1       8.072   7.462  -9.983  0.00  0.00    -0.281 N 
ATOM     23  C   UNL     1       8.101   6.106 -12.047  0.00  0.00    +0.047 C 
ATOM     24  H   UNL     1       8.910   7.950  -9.985  0.00  0.00    +0.152 HD
BRANCH  16  29
ATOM     25  C   UNL     1      11.119   2.196  -7.854  0.00  0.00    +0.044 C 
ATOM     26  C   UNL     1      10.262   3.219  -8.554  0.00  0.00    -0.050 A 
ATOM     27  C   UNL     1      10.753   4.491  -8.784  0.00  0.00    +0.004 A 
ATOM     28  C   UNL     1       9.967   5.429  -9.427  0.00  0.00    +0.006 A 
ATOM     29  C   UNL     1       8.691   5.096  -9.840  0.00  0.00    -0.015 A 
ATOM     30  C   UNL     1       8.198   3.826  -9.605  0.00  0.00    +0.006 A 
ATOM     31  C   UNL     1       8.986   2.886  -8.967  0.00  0.00    +0.004 A 
ENDBRANCH  16  29
ENDBRANCH  15  19
ENDBRANCH   1  15
BRANCH  13  32
ATOM     32  C   UNL     1       2.451   3.937  -0.001  0.00  0.00    -0.043 C 
BRANCH  32  33
ATOM     33  C   UNL     1       1.156   3.165   0.008  0.00  0.00    -0.064 A 
ATOM     34  C   UNL     1       1.175   1.783   0.000  0.00  0.00    +0.002 A 
ATOM     35  C   UNL     1      -0.013   1.076   0.008  0.00  0.00    +0.000 A 
ATOM     36  C   UNL     1      -1.219   1.751   0.017  0.00  0.00    +0.000 A 
ATOM     37  C   UNL     1      -1.238   3.133   0.030  0.00  0.00    +0.000 A 
ATOM     38  C   UNL     1      -0.050   3.840   0.023  0.00  0.00    +0.002 A 
ENDBRANCH  32  33
ENDBRANCH  13  32
TORSDOF 5
