REMARK  Name = ZINC40019227
REMARK  16 active torsions:
REMARK  status: ('A' for Active; 'I' for Inactive)
REMARK    1  A    between atoms: C_1  and  C_2
REMARK    2  A    between atoms: C_2  and  C_3
REMARK    3  A    between atoms: C_3  and  C_4
REMARK    4  A    between atoms: C_4  and  N_5
REMARK    5  A    between atoms: N_5  and  C_6
REMARK    6  A    between atoms: N_5  and  C_10
REMARK    7  A    between atoms: C_6  and  C_7
REMARK    8  A    between atoms: C_7  and  C_8
REMARK    9  A    between atoms: C_8  and  C_9
REMARK   10  A    between atoms: C_10  and  C_11
REMARK   11  A    between atoms: C_11  and  C_12
REMARK   12  A    between atoms: C_12  and  N_13
REMARK   13  A    between atoms: C_14  and  C_30
REMARK   14  A    between atoms: C_16  and  C_21
REMARK   15  A    between atoms: C_21  and  C_23
REMARK   16  A    between atoms: C_33  and  C_35
REMARK                            x       y       z     vdW  Elec       q    Type
REMARK                         _______ _______ _______ _____ _____    ______ ____
ROOT
ATOM      1  N   UNL     1      -2.480  -6.237  -3.264  0.00  0.00    -0.281 N 
ATOM      2  C   UNL     1      -3.334  -6.705  -2.166  0.00  0.00    +0.180 C 
ATOM      3  C   UNL     1      -4.703  -6.930  -2.764  0.00  0.00    +0.079 C 
ATOM      4  C   UNL     1      -4.613  -6.613  -4.077  0.00  0.00    +0.249 C 
ATOM      5  C   UNL     1      -3.233  -6.179  -4.378  0.00  0.00    +0.288 C 
ATOM      6  O   UNL     1      -2.836  -5.825  -5.470  0.00  0.00    -0.266 OA
ATOM      7  O   UNL     1      -5.627  -6.679  -4.970  0.00  0.00    -0.282 OA
ENDROOT
BRANCH   2   8
ATOM      8  C   UNL     1      -2.794  -7.995  -1.604  0.00  0.00    +0.130 A 
ATOM      9  C   UNL     1      -2.815  -8.359  -0.309  0.00  0.00    +0.047 A 
ATOM     10  C   UNL     1      -2.209  -9.634  -0.232  0.00  0.00    +0.045 A 
ATOM     11  C   UNL     1      -1.854  -9.973  -1.484  0.00  0.00    +0.102 A 
ATOM     12  O   UNL     1      -2.216  -8.979  -2.312  0.00  0.00    -0.463 OA
ATOM     13  C   UNL     1      -1.171 -11.253  -1.890  0.00  0.00    +0.086 C 
ENDBRANCH   2   8
BRANCH   3  14
ATOM     14  C   UNL     1      -5.899  -7.400  -2.058  0.00  0.00    +0.195 C 
ATOM     15  O   UNL     1      -6.381  -8.483  -2.333  0.00  0.00    -0.287 OA
BRANCH  14  16
ATOM     16  C   UNL     1      -6.518  -6.560  -1.011  0.00  0.00    +0.022 A 
ATOM     17  C   UNL     1      -6.044  -5.266  -0.779  0.00  0.00    +0.013 A 
ATOM     18  C   UNL     1      -6.626  -4.487   0.198  0.00  0.00    +0.016 A 
ATOM     19  C   UNL     1      -7.678  -4.984   0.950  0.00  0.00    +0.018 A 
ATOM     20  C   UNL     1      -8.152  -6.266   0.725  0.00  0.00    +0.016 A 
ATOM     21  C   UNL     1      -7.583  -7.053  -0.254  0.00  0.00    +0.013 A 
ATOM     22 BR   UNL     1      -8.470  -3.909   2.288  0.00  0.00    -0.050 Br
ENDBRANCH  14  16
ENDBRANCH   3  14
BRANCH   1  23
ATOM     23  C   UNL     1      -1.060  -5.888  -3.164  0.00  0.00    +0.107 C 
BRANCH  23  24
ATOM     24  C   UNL     1      -0.923  -4.404  -2.817  0.00  0.00    +0.000 C 
BRANCH  24  25
ATOM     25  C   UNL     1       0.559  -4.040  -2.713  0.00  0.00    -0.077 C 
BRANCH  25  26
ATOM     26  N   UNL     1       0.691  -2.615  -2.381  0.00  0.00    +0.380 N 
ATOM     27  H   UNL     1       0.188  -2.064  -3.059  0.00  0.00    -0.082 HD
BRANCH  26  28
ATOM     28  C   UNL     1       0.136  -2.371  -1.043  0.00  0.00    -0.079 C 
BRANCH  28  29
ATOM     29  C   UNL     1       0.143  -0.869  -0.754  0.00  0.00    -0.019 C 
BRANCH  29  31
ATOM     30  C   UNL     1      -0.554   0.900   0.867  0.00  0.00    +0.004 C 
ATOM     31  C   UNL     1      -0.561  -0.602   0.578  0.00  0.00    -0.005 C 
ENDBRANCH  29  31
ENDBRANCH  28  29
ENDBRANCH  26  28
BRANCH  26  32
ATOM     32  C   UNL     1       2.111  -2.238  -2.397  0.00  0.00    -0.079 C 
BRANCH  32  33
ATOM     33  C   UNL     1       2.653  -2.356  -3.824  0.00  0.00    -0.019 C 
BRANCH  33  34
ATOM     34  C   UNL     1       4.090  -1.833  -3.868  0.00  0.00    -0.005 C 
ATOM     35  C   UNL     1       4.632  -1.950  -5.294  0.00  0.00    +0.004 C 
ENDBRANCH  33  34
ENDBRANCH  32  33
ENDBRANCH  26  32
ENDBRANCH  25  26
ENDBRANCH  24  25
ENDBRANCH  23  24
ENDBRANCH   1  23
TORSDOF 13
