REMARK  Name = ZINC65227893
REMARK  6 active torsions:
REMARK  status: ('A' for Active; 'I' for Inactive)
REMARK    1  A    between atoms: C_1  and  C_2
REMARK    2  A    between atoms: C_2  and  C_4
REMARK    3  A    between atoms: C_2  and  N_10
REMARK    4  A    between atoms: C_11  and  C_13
REMARK    5  A    between atoms: C_21  and  C_26
REMARK    6  A    between atoms: C_28  and  C_31
REMARK                            x       y       z     vdW  Elec       q    Type
REMARK                         _______ _______ _______ _____ _____    ______ ____
ROOT
ATOM      1  C   UNL     1       0.721  -1.126  -3.603  0.00  0.00    +0.092 C 
ATOM      2  C   UNL     1       1.306  -2.519  -3.362  0.00  0.00    +0.016 C 
ATOM      3  C   UNL     1       2.055  -2.983  -4.613  0.00  0.00    +0.020 C 
ATOM      4  C   UNL     1       1.076  -3.067  -5.788  0.00  0.00    +0.106 C 
ATOM      5  N   UNL     1       0.401  -1.770  -5.935  0.00  0.00    -0.315 N 
ATOM      6  C   UNL     1      -0.274  -1.188  -4.767  0.00  0.00    +0.119 C 
ATOM      7  C   UNL     1       0.401  -1.108  -7.153  0.00  0.00    +0.110 A 
ATOM      8  C   UNL     1      -0.581  -1.406  -8.109  0.00  0.00    +0.060 A 
ATOM      9  C   UNL     1      -0.562  -0.727  -9.328  0.00  0.00    +0.016 A 
ATOM     10  C   UNL     1       0.431   0.216  -9.542  0.00  0.00    +0.018 A 
ATOM     11  C   UNL     1       1.365   0.456  -8.553  0.00  0.00    +0.084 A 
ATOM     12  N   UNL     1       1.325  -0.194  -7.405  0.00  0.00    -0.349 N 
ATOM     13  H   UNL     1       1.993   0.001  -6.729  0.00  0.00    +0.167 HD
ENDROOT
BRANCH   8  14
ATOM     14  C   UNL     1      -1.621  -2.425  -7.829  0.00  0.00    +0.205 A 
ATOM     15  N   UNL     1      -2.539  -2.870  -8.705  0.00  0.00    -0.191 NA
ATOM     16  C   UNL     1      -3.300  -3.763  -8.139  0.00  0.00    +0.231 A 
ATOM     17  O   UNL     1      -2.896  -3.923  -6.872  0.00  0.00    -0.337 OA
ATOM     18  N   UNL     1      -1.795  -3.046  -6.688  0.00  0.00    -0.056 NA
BRANCH  16  19
ATOM     19  C   UNL     1      -4.442  -4.492  -8.798  0.00  0.00    +0.078 C 
ATOM     20  C   UNL     1      -5.643  -4.726  -7.865  0.00  0.00    +0.013 C 
ATOM     21  C   UNL     1      -5.766  -6.120  -8.503  0.00  0.00    +0.001 C 
ATOM     22  C   UNL     1      -4.266  -6.019  -8.824  0.00  0.00    +0.013 C 
ENDBRANCH  16  19
ENDBRANCH   8  14
BRANCH   1  24
ATOM     23  N   UNL     1       0.692  -0.526  -1.204  0.00  0.00    -0.308 N 
ATOM     24  C   UNL     1       0.011  -0.656  -2.360  0.00  0.00    +0.218 C 
ATOM     25  O   UNL     1      -1.173  -0.395  -2.399  0.00  0.00    -0.275 OA
ATOM     26  H   UNL     1       1.639  -0.734  -1.173  0.00  0.00    +0.149 HD
BRANCH  23  28
ATOM     27  C   UNL     1      -0.035   1.460   0.025  0.00  0.00    +0.033 C 
ATOM     28  C   UNL     1       0.002  -0.069   0.005  0.00  0.00    +0.100 C 
BRANCH  28  29
ATOM     29  C   UNL     1       0.737  -0.570   1.222  0.00  0.00    -0.027 A 
ATOM     30  C   UNL     1       2.119  -0.566   1.245  0.00  0.00    +0.005 A 
ATOM     31  C   UNL     1       2.793  -1.025   2.361  0.00  0.00    +0.000 A 
ATOM     32  C   UNL     1       2.084  -1.487   3.455  0.00  0.00    +0.000 A 
ATOM     33  C   UNL     1       0.702  -1.490   3.432  0.00  0.00    +0.000 A 
ATOM     34  C   UNL     1       0.028  -1.027   2.317  0.00  0.00    +0.005 A 
ENDBRANCH  28  29
ENDBRANCH  23  28
ENDBRANCH   1  24
TORSDOF 5
