REMARK  Name = ZINC36604792
REMARK  10 active torsions:
REMARK  status: ('A' for Active; 'I' for Inactive)
REMARK    1  A    between atoms: C_1  and  C_2
REMARK    2  A    between atoms: C_2  and  C_3
REMARK    3  A    between atoms: C_2  and  C_4
REMARK    4  A    between atoms: C_2  and  N_5
REMARK    5  A    between atoms: C_6  and  C_8
REMARK    6  A    between atoms: C_8  and  C_10
REMARK    7  A    between atoms: C_8  and  N_19
REMARK    8  A    between atoms: C_13  and  N_16
REMARK    9  A    between atoms: N_19  and  C_20
REMARK   10  A    between atoms: C_26  and  C_28
REMARK                            x       y       z     vdW  Elec       q    Type
REMARK                         _______ _______ _______ _____ _____    ______ ____
ROOT
ATOM      1  C   UNL     1       3.165  -0.010  -2.230  0.00  0.00    +0.197 C 
ENDROOT
BRANCH   1   2
ATOM      2  C   UNL     1       2.719   1.237  -2.950  0.00  0.00    -0.018 A 
ATOM      3  C   UNL     1       3.219   2.469  -2.572  0.00  0.00    +0.008 A 
ATOM      4  C   UNL     1       2.810   3.612  -3.233  0.00  0.00    +0.033 A 
ATOM      5  C   UNL     1       1.903   3.524  -4.272  0.00  0.00    +0.126 A 
ATOM      6  C   UNL     1       1.405   2.291  -4.651  0.00  0.00    +0.033 A 
ATOM      7  C   UNL     1       1.816   1.147  -3.993  0.00  0.00    +0.008 A 
BRANCH   5   8
ATOM      8  N   UNL     1       1.465   4.748  -4.979  0.00  0.00    +0.056 N 
ATOM      9  O   UNL     1       1.901   5.826  -4.647  0.00  0.00    -0.126 OA
ATOM     10  O   UNL     1       0.672   4.670  -5.888  0.00  0.00    -0.126 OA
ENDBRANCH   5   8
ENDBRANCH   1   2
BRANCH   1  12
ATOM     11  N   UNL     1       1.339   0.087  -0.564  0.00  0.00    -0.309 N 
ATOM     12  C   UNL     1       2.662   0.024  -0.810  0.00  0.00    +0.239 C 
ATOM     13  O   UNL     1       3.449  -0.005   0.113  0.00  0.00    -0.273 OA
ATOM     14  H   UNL     1       0.709   0.110  -1.302  0.00  0.00    +0.149 HD
BRANCH  11  16
ATOM     15  C   UNL     1       1.417   1.350   1.528  0.00  0.00    +0.031 C 
ATOM     16  C   UNL     1       0.850   0.120   0.817  0.00  0.00    +0.026 C 
ATOM     17  C   UNL     1       1.302  -1.146   1.548  0.00  0.00    +0.031 C 
ATOM     18  C   UNL     1      -0.678   0.190   0.816  0.00  0.00    +0.031 C 
ENDBRANCH  11  16
ENDBRANCH   1  12
BRANCH   1  19
ATOM     19  N   UNL     1       4.628  -0.077  -2.229  0.00  0.00    -0.255 N 
ATOM     20  C   UNL     1       5.253  -1.155  -1.714  0.00  0.00    +0.224 C 
ATOM     21  O   UNL     1       4.608  -2.030  -1.176  0.00  0.00    -0.275 OA
BRANCH  19  22
ATOM     22  C   UNL     1       5.377   0.977  -2.763  0.00  0.00    +0.037 A 
ATOM     23  C   UNL     1       6.177   1.752  -1.934  0.00  0.00    +0.023 A 
ATOM     24  C   UNL     1       6.915   2.792  -2.464  0.00  0.00    +0.002 A 
ATOM     25  C   UNL     1       6.859   3.062  -3.819  0.00  0.00    +0.000 A 
ATOM     26  C   UNL     1       6.064   2.291  -4.647  0.00  0.00    +0.002 A 
ATOM     27  C   UNL     1       5.327   1.247  -4.124  0.00  0.00    +0.023 A 
ENDBRANCH  19  22
BRANCH  20  28
ATOM     28  C   UNL     1       6.753  -1.271  -1.806  0.00  0.00    +0.076 C 
ATOM     29  C   UNL     1       7.140  -1.779  -3.196  0.00  0.00    +0.013 C 
ATOM     30  C   UNL     1       8.663  -1.897  -3.289  0.00  0.00    +0.001 C 
ATOM     31  C   UNL     1       9.164  -2.881  -2.229  0.00  0.00    +0.000 C 
ATOM     32  C   UNL     1       8.776  -2.373  -0.839  0.00  0.00    +0.001 C 
ATOM     33  C   UNL     1       7.253  -2.255  -0.746  0.00  0.00    +0.013 C 
ENDBRANCH  20  28
ENDBRANCH   1  19
TORSDOF 7
