REMARK  Name = ZINC51113291
REMARK  2 active torsions:
REMARK  status: ('A' for Active; 'I' for Inactive)
REMARK    1  A    between atoms: C_3  and  C_9
REMARK    2  A    between atoms: N_7  and  N_8
REMARK                            x       y       z     vdW  Elec       q    Type
REMARK                         _______ _______ _______ _____ _____    ______ ____
ROOT
ATOM      1  C   UNL     1       3.677   2.050  -0.022  0.00  0.00    +0.268 C 
ATOM      2  O   UNL     1       3.700   3.265  -0.017  0.00  0.00    -0.268 OA
ATOM      3  N   UNL     1       4.831   1.354  -0.037  0.00  0.00    -0.259 N 
ATOM      4  C   UNL     1       6.047   2.025  -0.046  0.00  0.00    +0.165 A 
ATOM      5  N   UNL     1       6.264   3.322  -0.035  0.00  0.00    -0.229 NA
ATOM      6  C   UNL     1       7.494   3.829  -0.045  0.00  0.00    +0.054 A 
ATOM      7  C   UNL     1       8.491   2.908  -0.067  0.00  0.00    +0.014 A 
ATOM      8  S   UNL     1       7.602   1.376  -0.064  0.00  0.00    -0.057 S 
ATOM      9  C   UNL     1       9.961   3.156  -0.084  0.00  0.00    +0.044 C 
ATOM     10  C   UNL     1      10.194   4.632  -0.444  0.00  0.00    +0.006 C 
ATOM     11  C   UNL     1       9.268   5.501   0.411  0.00  0.00    +0.006 C 
ATOM     12  C   UNL     1       7.815   5.317  -0.032  0.00  0.00    +0.056 C 
ATOM     13  H   UNL     1       4.812   0.384  -0.042  0.00  0.00    +0.157 HD
ENDROOT
BRANCH   1  16
ATOM     14  C   UNL     1      -0.017   1.378   0.010  0.00  0.00    +0.006 A 
ATOM     15  C   UNL     1       1.193   2.059   0.002  0.00  0.00    +0.033 A 
ATOM     16  C   UNL     1       2.381   1.334  -0.013  0.00  0.00    +0.128 A 
ATOM     17  N   UNL     1       2.362   0.005  -0.021  0.00  0.00    -0.226 NA
ATOM     18  C   UNL     1       1.228  -0.670  -0.013  0.00  0.00    +0.133 A 
ATOM     19  C   UNL     1       0.002  -0.004   0.002  0.00  0.00    +0.045 A 
ATOM     20  N   UNL     1       1.255  -2.059  -0.021  0.00  0.00    -0.268 N 
ATOM     21  H   UNL     1       0.424  -2.561  -0.016  0.00  0.00    +0.167 HD
BRANCH  20  22
ATOM     22  N   UNL     1       2.451  -2.719  -0.037  0.00  0.00    -0.255 NA
ATOM     23  H   UNL     1       2.312  -3.719  -0.041  0.00  0.00    +0.140 HD
ATOM     24  H   UNL     1       3.014  -2.429  -0.822  0.00  0.00    +0.140 HD
ENDBRANCH  20  22
ENDBRANCH   1  16
TORSDOF 2
