REMARK  Name = ZINC09059568
REMARK  12 active torsions:
REMARK  status: ('A' for Active; 'I' for Inactive)
REMARK    1  A    between atoms: C_1  and  C_2
REMARK    2  A    between atoms: C_3  and  C_8
REMARK    3  A    between atoms: C_8  and  S_9
REMARK    4  A    between atoms: S_9  and  C_10
REMARK    5  A    between atoms: C_10  and  C_11
REMARK    6  A    between atoms: C_11  and  N_12
REMARK    7  A    between atoms: N_12  and  C_13
REMARK    8  A    between atoms: C_13  and  C_34
REMARK    9  A    between atoms: C_15  and  C_26
REMARK   10  A    between atoms: N_17  and  C_20
REMARK   11  A    between atoms: C_29  and  O_32
REMARK   12  A    between atoms: O_32  and  C_33
REMARK                            x       y       z     vdW  Elec       q    Type
REMARK                         _______ _______ _______ _____ _____    ______ ____
ROOT
ATOM      1  C   UNL     1       3.787   1.275  -7.508  0.00  0.00    +0.015 C 
ATOM      2  C   UNL     1       3.817   1.679  -8.829  0.00  0.00    +0.083 C 
ATOM      3  C   UNL     1       5.009   2.022  -9.631  0.00  0.00    +0.103 C 
ATOM      4  N   UNL     1       4.588   2.349 -10.826  0.00  0.00    -0.171 NA
ATOM      5  N   UNL     1       3.197   2.252 -10.890  0.00  0.00    -0.156 N 
ATOM      6  C   UNL     1       2.707   1.846  -9.703  0.00  0.00    +0.274 C 
ATOM      7  O   UNL     1       1.533   1.659  -9.428  0.00  0.00    -0.268 OA
ATOM      8  C   UNL     1       5.075   1.067  -6.754  0.00  0.00    +0.061 C 
ENDROOT
BRANCH   5   9
ATOM      9  C   UNL     1       2.424   2.532 -12.023  0.00  0.00    +0.060 A 
ATOM     10  C   UNL     1       1.042   2.407 -11.971  0.00  0.00    +0.025 A 
ATOM     11  C   UNL     1       0.283   2.684 -13.091  0.00  0.00    +0.002 A 
ATOM     12  C   UNL     1       0.898   3.084 -14.264  0.00  0.00    +0.000 A 
ATOM     13  C   UNL     1       2.274   3.208 -14.319  0.00  0.00    +0.002 A 
ATOM     14  C   UNL     1       3.038   2.939 -13.200  0.00  0.00    +0.025 A 
ENDBRANCH   5   9
BRANCH   3  15
ATOM     15  C   UNL     1       6.416   2.000  -9.169  0.00  0.00    +0.003 A 
ATOM     16  C   UNL     1       7.013   0.793  -8.805  0.00  0.00    +0.013 A 
ATOM     17  C   UNL     1       8.324   0.776  -8.377  0.00  0.00    +0.046 A 
ATOM     18  C   UNL     1       9.048   1.958  -8.307  0.00  0.00    +0.120 A 
ATOM     19  C   UNL     1       8.457   3.162  -8.668  0.00  0.00    +0.046 A 
ATOM     20  C   UNL     1       7.148   3.185  -9.103  0.00  0.00    +0.013 A 
BRANCH  18  21
ATOM     21  O   UNL     1      10.339   1.938  -7.883  0.00  0.00    -0.495 OA
ATOM     22  C   UNL     1      11.026   3.191  -7.836  0.00  0.00    +0.277 C 
ENDBRANCH  18  21
ENDBRANCH   3  15
BRANCH   1  23
ATOM     23  N   UNL     1       2.604   1.067  -6.892  0.00  0.00    -0.346 N 
ATOM     24  H   UNL     1       1.775   1.201  -7.377  0.00  0.00    +0.146 HD
BRANCH  23  25
ATOM     25  C   UNL     1       2.572   0.639  -5.492  0.00  0.00    +0.112 C 
BRANCH  25  26
ATOM     26  C   UNL     1       1.119   0.476  -5.041  0.00  0.00    +0.088 C 
BRANCH  26  27
ATOM     27  S   UNL     1       1.080  -0.054  -3.306  0.00  0.00    -0.153 S 
BRANCH  27  28
ATOM     28  C   UNL     1      -0.689  -0.198  -2.932  0.00  0.00    +0.126 C 
BRANCH  28  31
ATOM     29  C   UNL     1      -0.947   1.680  -0.440  0.00  0.00    +0.065 C 
ATOM     30  C   UNL     1      -0.976   0.173  -0.432  0.00  0.00    +0.036 A 
ATOM     31  C   UNL     1      -0.865  -0.638  -1.501  0.00  0.00    +0.072 A 
ATOM     32  N   UNL     1      -0.940  -1.906  -1.070  0.00  0.00    -0.240 NA
ATOM     33  C   UNL     1      -1.092  -1.911   0.226  0.00  0.00    +0.197 A 
ATOM     34  N   UNL     1      -1.114  -0.634   0.665  0.00  0.00    -0.348 N 
ATOM     35  H   UNL     1      -1.211  -0.343   1.585  0.00  0.00    +0.166 HD
ENDBRANCH  28  31
ENDBRANCH  27  28
ENDBRANCH  26  27
ENDBRANCH  25  26
ENDBRANCH  23  25
ENDBRANCH   1  23
TORSDOF 9
