REMARK  Name = ZINC62129024
REMARK  11 active torsions:
REMARK  status: ('A' for Active; 'I' for Inactive)
REMARK    1  A    between atoms: C_1  and  C_2
REMARK    2  A    between atoms: C_2  and  C_3
REMARK    3  A    between atoms: C_2  and  C_4
REMARK    4  A    between atoms: N_8  and  C_9
REMARK    5  A    between atoms: C_9  and  C_10
REMARK    6  A    between atoms: C_16  and  C_18
REMARK    7  A    between atoms: C_18  and  C_19
REMARK    8  A    between atoms: C_22  and  S_25
REMARK    9  A    between atoms: S_25  and  C_26
REMARK   10  A    between atoms: C_26  and  C_27
REMARK   11  A    between atoms: C_26  and  C_28
REMARK                            x       y       z     vdW  Elec       q    Type
REMARK                         _______ _______ _______ _____ _____    ______ ____
ROOT
ATOM      1  C   UNL     1      -0.438  -5.012  -1.003  0.00  0.00    +0.012 C 
ATOM      2  C   UNL     1       0.545  -4.420   0.009  0.00  0.00    +0.024 C 
ATOM      3  C   UNL     1       1.307  -5.556   0.699  0.00  0.00    +0.108 C 
ATOM      4  N   UNL     1       1.933  -6.398  -0.330  0.00  0.00    -0.301 N 
ATOM      5  C   UNL     1       1.092  -6.945  -1.403  0.00  0.00    +0.108 C 
ATOM      6  C   UNL     1       0.333  -5.794  -2.070  0.00  0.00    +0.024 C 
ATOM      7  C   UNL     1       3.254  -6.664  -0.289  0.00  0.00    +0.220 C 
ATOM      8  O   UNL     1       3.938  -6.207   0.602  0.00  0.00    -0.275 OA
ENDROOT
BRANCH   1   9
ATOM      9  C   UNL     1      -1.226  -3.882  -1.670  0.00  0.00    +0.126 C 
BRANCH   9  14
ATOM     10  C   UNL     1      -3.278  -3.636  -0.240  0.00  0.00    +0.090 A 
ATOM     11  N   UNL     1      -3.718  -2.792   0.653  0.00  0.00    -0.349 N 
ATOM     12  C   UNL     1      -2.816  -1.814   0.819  0.00  0.00    +0.101 A 
ATOM     13  C   UNL     1      -1.778  -2.060  -0.003  0.00  0.00    +0.104 A 
ATOM     14  N   UNL     1      -2.068  -3.219  -0.671  0.00  0.00    -0.335 N 
ATOM     15  H   UNL     1      -4.563  -2.862   1.123  0.00  0.00    +0.166 HD
BRANCH  10  17
ATOM     16  C   UNL     1      -4.751  -5.502   0.467  0.00  0.00    +0.015 C 
ATOM     17  C   UNL     1      -3.999  -4.874  -0.708  0.00  0.00    +0.047 C 
ATOM     18  C   UNL     1      -4.994  -4.500  -1.809  0.00  0.00    +0.015 C 
ENDBRANCH  10  17
ENDBRANCH   9  14
ENDBRANCH   1   9
BRANCH   7  19
ATOM     19  C   UNL     1       3.881  -7.530  -1.351  0.00  0.00    +0.131 C 
BRANCH  19  20
ATOM     20  C   UNL     1       5.356  -7.671  -1.078  0.00  0.00    -0.039 A 
ATOM     21  C   UNL     1       6.247  -6.759  -1.614  0.00  0.00    +0.005 A 
ATOM     22  C   UNL     1       7.600  -6.885  -1.367  0.00  0.00    +0.015 A 
ATOM     23  C   UNL     1       8.065  -7.930  -0.577  0.00  0.00    +0.008 A 
ATOM     24  C   UNL     1       7.167  -8.844  -0.040  0.00  0.00    +0.015 A 
ATOM     25  C   UNL     1       5.815  -8.709  -0.287  0.00  0.00    +0.005 A 
BRANCH  23  26
ATOM     26  S   UNL     1       9.790  -8.095  -0.259  0.00  0.00    -0.122 S 
BRANCH  26  27
ATOM     27  C   UNL     1      10.085  -6.989   1.148  0.00  0.00    +0.045 C 
ATOM     28  C   UNL     1       9.392  -7.550   2.392  0.00  0.00    +0.019 C 
ATOM     29  C   UNL     1      11.589  -6.882   1.407  0.00  0.00    +0.019 C 
ENDBRANCH  26  27
ENDBRANCH  23  26
ENDBRANCH  19  20
ENDBRANCH   7  19
TORSDOF 7
