REMARK  Name = ZINC02398370
REMARK  3 active torsions:
REMARK  status: ('A' for Active; 'I' for Inactive)
REMARK    1  A    between atoms: C_4  and  C_7
REMARK    2  A    between atoms: C_10  and  C_26
REMARK    3  A    between atoms: C_18  and  C_20
REMARK                            x       y       z     vdW  Elec       q    Type
REMARK                         _______ _______ _______ _____ _____    ______ ____
ROOT
ATOM      1  C   UNL     1       3.711  -0.707  -0.038  0.00  0.00    +0.106 C 
ATOM      2  C   UNL     1       4.048  -1.192   1.377  0.00  0.00    +0.059 C 
ATOM      3  C   UNL     1       2.915  -2.081   1.904  0.00  0.00    +0.144 C 
ATOM      4  N   UNL     1       2.589  -3.081   0.888  0.00  0.00    -0.224 N 
ATOM      5  C   UNL     1       2.920  -2.975  -0.421  0.00  0.00    +0.216 A 
ATOM      6  N   UNL     1       2.481  -4.038  -1.040  0.00  0.00    -0.180 NA
ATOM      7  C   UNL     1       1.863  -4.843  -0.162  0.00  0.00    +0.243 A 
ATOM      8  N   UNL     1       1.908  -4.291   1.030  0.00  0.00    -0.131 NA
ATOM      9  N   UNL     1       1.268  -6.070  -0.466  0.00  0.00    -0.247 N 
ATOM     10  C   UNL     1       1.286  -6.533  -1.731  0.00  0.00    +0.286 C 
ATOM     11  O   UNL     1       1.822  -5.883  -2.610  0.00  0.00    -0.266 OA
ATOM     12  N   UNL     1       3.612  -1.879  -0.929  0.00  0.00    -0.307 N 
ATOM     13  H   UNL     1       0.841  -6.588   0.234  0.00  0.00    +0.158 HD
ATOM     14  H   UNL     1       4.006  -1.883  -1.815  0.00  0.00    +0.149 HD
ENDROOT
BRANCH   3  15
ATOM     15  C   UNL     1       3.359  -2.768   3.169  0.00  0.00    -0.005 A 
ATOM     16  C   UNL     1       4.461  -3.602   3.153  0.00  0.00    +0.007 A 
ATOM     17  C   UNL     1       4.868  -4.233   4.313  0.00  0.00    +0.000 A 
ATOM     18  C   UNL     1       4.174  -4.030   5.491  0.00  0.00    +0.001 A 
ATOM     19  C   UNL     1       3.072  -3.196   5.509  0.00  0.00    +0.020 A 
ATOM     20  C   UNL     1       2.667  -2.560   4.349  0.00  0.00    +0.046 A 
ATOM     21 CL   UNL     1       1.286  -1.508   4.372  0.00  0.00    -0.083 Cl
ENDBRANCH   3  15
BRANCH   1  25
ATOM     22  C   UNL     1      -0.017   1.378   0.010  0.00  0.00    +0.000 A 
ATOM     23  C   UNL     1       1.171   2.086   0.002  0.00  0.00    +0.000 A 
ATOM     24  C   UNL     1       2.377   1.411  -0.013  0.00  0.00    +0.005 A 
ATOM     25  C   UNL     1       2.396   0.029  -0.020  0.00  0.00    -0.027 A 
ATOM     26  C   UNL     1       1.208  -0.679  -0.012  0.00  0.00    +0.005 A 
ATOM     27  C   UNL     1       0.002  -0.004   0.002  0.00  0.00    +0.000 A 
ENDBRANCH   1  25
BRANCH  10  28
ATOM     28  C   UNL     1       0.662  -7.821  -2.050  0.00  0.00    +0.189 A 
ATOM     29  C   UNL     1       0.614  -8.406  -3.283  0.00  0.00    +0.054 A 
ATOM     30  C   UNL     1      -0.074  -9.619  -3.127  0.00  0.00    +0.042 A 
ATOM     31  C   UNL     1      -0.412  -9.720  -1.822  0.00  0.00    +0.196 A 
ATOM     32  O   UNL     1       0.038  -8.637  -1.176  0.00  0.00    -0.458 OA
ENDBRANCH  10  28
TORSDOF 3
