REMARK  Name = ZINC39637347
REMARK  8 active torsions:
REMARK  status: ('A' for Active; 'I' for Inactive)
REMARK    1  A    between atoms: C_1  and  C_2
REMARK    2  A    between atoms: C_7  and  N_12
REMARK    3  A    between atoms: C_9  and  C_11
REMARK    4  A    between atoms: C_13  and  C_15
REMARK    5  A    between atoms: C_26  and  C_28
REMARK    6  A    between atoms: C_32  and  N_34
REMARK    7  A    between atoms: N_34  and  C_35
REMARK    8  A    between atoms: N_34  and  C_36
REMARK                            x       y       z     vdW  Elec       q    Type
REMARK                         _______ _______ _______ _____ _____    ______ ____
ROOT
ATOM      1  C   UNL     1       0.659  -0.377   6.035  0.00  0.00    +0.100 C 
ATOM      2  C   UNL     1       0.433  -1.810   6.567  0.00  0.00    +0.121 C 
ATOM      3  N   UNL     1       0.546  -1.685   8.039  0.00  0.00    -0.296 N 
ATOM      4  C   UNL     1      -0.130  -0.403   8.353  0.00  0.00    +0.115 C 
ATOM      5  C   UNL     1       0.288   0.543   7.210  0.00  0.00    -0.004 C 
ATOM      6  C   UNL     1       1.495   1.377   7.629  0.00  0.00    -0.010 C 
ATOM      7  C   UNL     1       1.086   2.324   8.760  0.00  0.00    -0.082 C 
ATOM      8  N   UNL     1      -0.001   3.197   8.301  0.00  0.00    +0.379 N 
ATOM      9  C   UNL     1      -1.189   2.394   7.988  0.00  0.00    -0.082 C 
ATOM     10  C   UNL     1      -0.877   1.450   6.824  0.00  0.00    -0.010 C 
ATOM     11  C   UNL     1       1.130  -2.543   8.899  0.00  0.00    +0.247 C 
ATOM     12  O   UNL     1       1.758  -3.494   8.476  0.00  0.00    -0.270 OA
ATOM     13  H   UNL     1      -0.227   3.861   9.027  0.00  0.00    -0.086 HD
ATOM     14  H   UNL     1       0.295   3.695   7.475  0.00  0.00    -0.086 HD
ENDROOT
BRANCH  11  15
ATOM     15  C   UNL     1       1.007  -2.328  10.357  0.00  0.00    +0.039 A 
ATOM     16  C   UNL     1      -0.020  -1.527  10.862  0.00  0.00    +0.013 A 
ATOM     17  C   UNL     1      -0.133  -1.328  12.223  0.00  0.00    +0.003 A 
ATOM     18  C   UNL     1       0.768  -1.918  13.090  0.00  0.00    +0.023 A 
ATOM     19  C   UNL     1       1.793  -2.716  12.597  0.00  0.00    +0.030 A 
ATOM     20  C   UNL     1       1.912  -2.928  11.231  0.00  0.00    +0.036 A 
BRANCH  19  21
ATOM     21  N   UNL     1       2.701  -3.310  13.477  0.00  0.00    -0.336 N 
ATOM     22  C   UNL     1       2.661  -2.979  14.904  0.00  0.00    +0.129 C 
ATOM     23  C   UNL     1       3.693  -4.263  12.974  0.00  0.00    +0.129 C 
ENDBRANCH  19  21
ENDBRANCH  11  15
BRANCH   1  25
ATOM     24  N   UNL     1       0.096   0.839   3.956  0.00  0.00    -0.312 N 
ATOM     25  C   UNL     1      -0.238  -0.109   4.854  0.00  0.00    +0.218 C 
ATOM     26  O   UNL     1      -1.261  -0.745   4.712  0.00  0.00    -0.275 OA
ATOM     27  H   UNL     1       0.914   1.348   4.069  0.00  0.00    +0.149 HD
BRANCH  24  33
ATOM     28  C   UNL     1      -2.932   2.625   1.538  0.00  0.00    +0.008 C 
ATOM     29  C   UNL     1      -1.471   2.807   1.121  0.00  0.00    -0.009 C 
ATOM     30  C   UNL     1      -1.137   1.828  -0.007  0.00  0.00    +0.003 C 
ATOM     31  C   UNL     1      -1.353   0.394   0.482  0.00  0.00    +0.002 C 
ATOM     32  C   UNL     1      -0.443   0.121   1.681  0.00  0.00    +0.022 C 
ATOM     33  C   UNL     1      -0.776   1.100   2.808  0.00  0.00    +0.076 C 
ATOM     34  C   UNL     1      -0.560   2.534   2.319  0.00  0.00    +0.009 C 
ATOM     35  C   UNL     1      -0.894   3.513   3.447  0.00  0.00    +0.009 C 
ENDBRANCH  24  33
ENDBRANCH   1  25
TORSDOF 4
