REMARK  Name = ZINC28651953
REMARK  5 active torsions:
REMARK  status: ('A' for Active; 'I' for Inactive)
REMARK    1  A    between atoms: C_1  and  C_2
REMARK    2  A    between atoms: C_8  and  N_10
REMARK    3  A    between atoms: C_11  and  C_13
REMARK    4  A    between atoms: C_13  and  N_14
REMARK    5  A    between atoms: N_14  and  C_15
REMARK                            x       y       z     vdW  Elec       q    Type
REMARK                         _______ _______ _______ _____ _____    ______ ____
ROOT
ATOM      1  N   UNL     1       3.764  -2.032  -0.048  0.00  0.00    -0.335 N 
ATOM      2  H   UNL     1       2.859  -2.657  -0.042  0.00  0.00    +0.147 HD
ENDROOT
BRANCH   1   3
ATOM      3  C   UNL     1       3.652  -0.644  -0.039  0.00  0.00    +0.035 A 
ATOM      4  C   UNL     1       4.780   0.156  -0.047  0.00  0.00    +0.024 A 
ATOM      5  C   UNL     1       4.700   1.548  -0.037  0.00  0.00    +0.006 A 
ATOM      6  C   UNL     1       3.488   2.171  -0.020  0.00  0.00    -0.039 A 
ATOM      7  C   UNL     1       2.343   1.382  -0.014  0.00  0.00    -0.010 A 
ATOM      8  C   UNL     1       2.385  -0.023  -0.022  0.00  0.00    +0.003 A 
ATOM      9  C   UNL     1       1.166  -0.717  -0.013  0.00  0.00    +0.010 A 
ATOM     10  C   UNL     1       0.002  -0.004   0.002  0.00  0.00    +0.001 A 
ATOM     11  C   UNL     1      -0.017   1.392   0.010  0.00  0.00    +0.004 A 
ATOM     12  C   UNL     1       1.149   2.096   0.002  0.00  0.00    -0.039 A 
ATOM     13  C   UNL     1       1.500   3.564   0.007  0.00  0.00    +0.040 C 
ATOM     14  C   UNL     1       3.043   3.614  -0.008  0.00  0.00    +0.040 C 
ENDBRANCH   1   3
BRANCH   1  15
ATOM     15  C   UNL     1       5.088  -2.660  -0.066  0.00  0.00    +0.197 C 
BRANCH  15  17
ATOM     16  N   UNL     1       6.024  -4.949  -0.089  0.00  0.00    -0.311 N 
ATOM     17  C   UNL     1       4.933  -4.159  -0.073  0.00  0.00    +0.230 C 
ATOM     18  O   UNL     1       3.825  -4.654  -0.064  0.00  0.00    -0.274 OA
ATOM     19  H   UNL     1       7.028  -4.500  -0.097  0.00  0.00    +0.149 HD
BRANCH  16  26
ATOM     20  C   UNL     1       7.277  -6.542  -2.159  0.00  0.00    +0.009 C 
ATOM     21  C   UNL     1       7.115  -7.045  -0.723  0.00  0.00    +0.006 C 
ATOM     22  C   UNL     1       6.957  -8.567  -0.730  0.00  0.00    +0.005 C 
ATOM     23  C   UNL     1       6.795  -9.069   0.706  0.00  0.00    +0.000 C 
ATOM     24  C   UNL     1       5.553  -8.431   1.332  0.00  0.00    +0.002 C 
ATOM     25  C   UNL     1       5.711  -6.910   1.340  0.00  0.00    +0.022 C 
ATOM     26  C   UNL     1       5.873  -6.407  -0.096  0.00  0.00    +0.076 C 
ENDBRANCH  16  26
ENDBRANCH  15  17
ENDBRANCH   1  15
TORSDOF 4
