REMARK  Name = ZINC36159765
REMARK  10 active torsions:
REMARK  status: ('A' for Active; 'I' for Inactive)
REMARK    1  A    between atoms: C_1  and  C_2
REMARK    2  A    between atoms: C_7  and  O_8
REMARK    3  A    between atoms: O_8  and  C_9
REMARK    4  A    between atoms: C_9  and  C_10
REMARK    5  A    between atoms: C_10  and  C_12
REMARK    6  A    between atoms: C_10  and  O_32
REMARK    7  A    between atoms: C_12  and  N_13
REMARK    8  A    between atoms: N_13  and  C_14
REMARK    9  A    between atoms: N_13  and  C_29
REMARK   10  A    between atoms: C_14  and  C_15
REMARK                            x       y       z     vdW  Elec       q    Type
REMARK                         _______ _______ _______ _____ _____    ______ ____
ROOT
ATOM      1  N   UNL     1      -0.210   0.241   7.155  0.00  0.00    +0.388 N 
ATOM      2  H   UNL     1      -1.039   0.817   7.156  0.00  0.00    -0.081 HD
ENDROOT
BRANCH   1   3
ATOM      3  C   UNL     1       0.981   1.098   7.217  0.00  0.00    -0.068 C 
ATOM      4  C   UNL     1       0.760   2.607   7.342  0.00  0.00    -0.017 C 
ATOM      5  C   UNL     1       1.256   2.013   6.022  0.00  0.00    -0.017 C 
ENDBRANCH   1   3
BRANCH   1   6
ATOM      6  C   UNL     1      -0.172  -0.562   5.926  0.00  0.00    -0.043 C 
BRANCH   6   7
ATOM      7  C   UNL     1      -1.481  -1.343   5.786  0.00  0.00    +0.135 C 
BRANCH   7   8
ATOM      8  O   UNL     1      -2.576  -0.428   5.713  0.00  0.00    -0.390 OA
ATOM      9  H   UNL     1      -2.528   0.183   4.965  0.00  0.00    +0.210 HD
ENDBRANCH   7   8
BRANCH   7  10
ATOM     10  C   UNL     1      -1.436  -2.189   4.512  0.00  0.00    +0.258 C 
BRANCH  10  11
ATOM     11  O   UNL     1      -2.606  -3.006   4.441  0.00  0.00    -0.489 OA
BRANCH  11  18
ATOM     12  C   UNL     1      -4.913  -4.630   4.283  0.00  0.00    +0.047 C 
ATOM     13  C   UNL     1      -3.834  -4.644   3.230  0.00  0.00    -0.009 A 
ATOM     14  C   UNL     1      -3.954  -5.471   2.129  0.00  0.00    +0.007 A 
ATOM     15  C   UNL     1      -2.965  -5.485   1.163  0.00  0.00    +0.000 A 
ATOM     16  C   UNL     1      -1.854  -4.672   1.296  0.00  0.00    +0.004 A 
ATOM     17  C   UNL     1      -1.730  -3.844   2.394  0.00  0.00    +0.046 A 
ATOM     18  C   UNL     1      -2.724  -3.824   3.363  0.00  0.00    +0.124 A 
ENDBRANCH  11  18
ENDBRANCH  10  11
ENDBRANCH   7  10
ENDBRANCH   6   7
ENDBRANCH   1   6
BRANCH   1  19
ATOM     19  C   UNL     1      -0.233  -0.651   8.322  0.00  0.00    -0.003 C 
BRANCH  19  20
ATOM     20  C   UNL     1      -0.396   0.168   9.577  0.00  0.00    +0.094 A 
ATOM     21  N   UNL     1      -0.436  -0.459  10.781  0.00  0.00    -0.312 N 
ATOM     22  H   UNL     1      -0.359  -1.426  10.816  0.00  0.00    +0.170 HD
ATOM     23  C   UNL     1      -0.581   0.233  11.927  0.00  0.00    +0.260 A 
ATOM     24  O   UNL     1      -0.615  -0.343  13.000  0.00  0.00    -0.267 OA
ATOM     25  C   UNL     1      -0.692   1.660  11.860  0.00  0.00    +0.075 A 
ATOM     26  C   UNL     1      -0.855   2.610  12.971  0.00  0.00    -0.023 A 
ATOM     27  C   UNL     1      -0.938   3.912  12.649  0.00  0.00    -0.004 A 
ATOM     28  S   UNL     1      -0.804   3.957  10.877  0.00  0.00    -0.073 S 
ATOM     29  C   UNL     1      -0.640   2.218  10.576  0.00  0.00    +0.116 A 
ATOM     30  N   UNL     1      -0.490   1.468   9.487  0.00  0.00    -0.229 NA
ATOM     31  C   UNL     1      -1.107   4.787  13.862  0.00  0.00    +0.043 C 
ATOM     32  C   UNL     1      -1.553   3.819  14.980  0.00  0.00    +0.010 C 
ATOM     33  C   UNL     1      -0.956   2.483  14.493  0.00  0.00    +0.037 C 
ENDBRANCH  19  20
ENDBRANCH   1  19
TORSDOF 9
