REMARK  Name = ZINC08586271
REMARK  13 active torsions:
REMARK  status: ('A' for Active; 'I' for Inactive)
REMARK    1  A    between atoms: C_1  and  C_2
REMARK    2  A    between atoms: C_2  and  C_3
REMARK    3  A    between atoms: C_3  and  C_5
REMARK    4  A    between atoms: C_3  and  N_67
REMARK    5  A    between atoms: N_9  and  C_10
REMARK    6  A    between atoms: C_10  and  C_11
REMARK    7  A    between atoms: C_16  and  C_17
REMARK    8  A    between atoms: C_16  and  N_67
REMARK    9  A    between atoms: C_21  and  C_29
REMARK   10  A    between atoms: C_23  and  C_28
REMARK   11  A    between atoms: C_26  and  O_27
REMARK   12  A    between atoms: C_30  and  C_31
REMARK   13  A    between atoms: C_30  and  N_67
REMARK                            x       y       z     vdW  Elec       q    Type
REMARK                         _______ _______ _______ _____ _____    ______ ____
ROOT
ATOM      1  N   UNL     1       0.327   1.271   0.610  0.00  0.00    +0.391 N 
ATOM      2  H   UNL     1       0.094   1.618   1.548  0.00  0.00    -0.080 HD
ENDROOT
BRANCH   1   3
ATOM      3  C   UNL     1       0.107  -0.190   0.570  0.00  0.00    +0.003 C 
BRANCH   3   4
ATOM      4  C   UNL     1       1.076  -0.859   1.510  0.00  0.00    +0.139 A 
ATOM      5  N   UNL     1       1.385  -0.470   2.722  0.00  0.00    -0.115 NA
ATOM      6  N   UNL     1       2.245  -1.302   3.200  0.00  0.00    -0.023 NA
ATOM      7  N   UNL     1       2.499  -2.207   2.321  0.00  0.00    -0.044 NA
ATOM      8  N   UNL     1       1.797  -1.969   1.264  0.00  0.00    -0.223 N 
BRANCH   8   9
ATOM      9  C   UNL     1       1.788  -2.757   0.030  0.00  0.00    +0.221 C 
BRANCH   9  10
ATOM     10  C   UNL     1       2.838  -2.229  -0.912  0.00  0.00    +0.126 A 
ATOM     11  C   UNL     1       4.119  -2.637  -0.972  0.00  0.00    +0.046 A 
ATOM     12  C   UNL     1       4.743  -1.880  -1.990  0.00  0.00    +0.041 A 
ATOM     13  C   UNL     1       3.807  -1.054  -2.491  0.00  0.00    +0.195 A 
ATOM     14  O   UNL     1       2.654  -1.274  -1.838  0.00  0.00    -0.466 OA
ENDBRANCH   9  10
ENDBRANCH   8   9
ENDBRANCH   3   4
BRANCH   3  16
ATOM     15  C   UNL     1      -1.575  -1.995   0.963  0.00  0.00    +0.002 C 
ATOM     16  C   UNL     1      -1.326  -0.487   1.018  0.00  0.00    -0.011 C 
ENDBRANCH   3  16
ENDBRANCH   1   3
BRANCH   1  17
ATOM     17  C   UNL     1      -0.544   1.941  -0.379  0.00  0.00    -0.037 C 
BRANCH  17  18
ATOM     18  C   UNL     1      -0.597   3.412  -0.058  0.00  0.00    -0.002 A 
ATOM     19  C   UNL     1      -0.008   4.315  -0.893  0.00  0.00    +0.017 A 
ATOM     20  C   UNL     1      -0.085   5.682  -0.559  0.00  0.00    +0.001 A 
ATOM     21  C   UNL     1       0.494   6.665  -1.376  0.00  0.00    +0.013 A 
ATOM     22  C   UNL     1       0.403   7.976  -1.019  0.00  0.00    -0.050 A 
ATOM     23  C   UNL     1      -0.258   8.355   0.147  0.00  0.00    +0.008 A 
ATOM     24  C   UNL     1      -0.830   7.427   0.963  0.00  0.00    -0.024 A 
ATOM     25  C   UNL     1      -0.757   6.064   0.627  0.00  0.00    +0.078 A 
ATOM     26  N   UNL     1      -1.312   5.131   1.409  0.00  0.00    -0.213 NA
ATOM     27  C   UNL     1      -1.247   3.854   1.100  0.00  0.00    +0.214 A 
ATOM     28  C   UNL     1      -1.541   7.859   2.219  0.00  0.00    +0.046 C 
ATOM     29  C   UNL     1       1.025   9.032  -1.897  0.00  0.00    +0.044 C 
BRANCH  27  30
ATOM     30  O   UNL     1      -1.824   2.944   1.923  0.00  0.00    -0.492 OA
ATOM     31  H   UNL     1      -1.235   2.609   2.613  0.00  0.00    +0.294 HD
ENDBRANCH  27  30
ENDBRANCH  17  18
ENDBRANCH   1  17
BRANCH   1  32
ATOM     32  C   UNL     1       1.744   1.577   0.324  0.00  0.00    -0.045 C 
BRANCH  32  33
ATOM     33  C   UNL     1       2.078   2.949   0.913  0.00  0.00    +0.102 C 
ATOM     34  C   UNL     1       3.552   3.312   0.630  0.00  0.00    +0.032 C 
ATOM     35  C   UNL     1       4.011   4.044   1.910  0.00  0.00    +0.030 C 
ATOM     36  C   UNL     1       2.760   4.036   2.816  0.00  0.00    +0.160 C 
ATOM     37  O   UNL     1       1.976   2.915   2.353  0.00  0.00    -0.378 OA
ENDBRANCH  32  33
ENDBRANCH   1  32
TORSDOF 10
