REMARK  Name = ZINC66730482
REMARK  9 active torsions:
REMARK  status: ('A' for Active; 'I' for Inactive)
REMARK    1  A    between atoms: C_1  and  C_2
REMARK    2  A    between atoms: C_5  and  C_8
REMARK    3  A    between atoms: N_6  and  C_7
REMARK    4  A    between atoms: C_8  and  O_10
REMARK    5  A    between atoms: O_10  and  C_11
REMARK    6  A    between atoms: C_14  and  N_17
REMARK    7  A    between atoms: C_18  and  O_20
REMARK    8  A    between atoms: O_20  and  C_21
REMARK    9  A    between atoms: C_21  and  C_22
REMARK                            x       y       z     vdW  Elec       q    Type
REMARK                         _______ _______ _______ _____ _____    ______ ____
ROOT
ATOM      1  C   UNL     1       0.077  -4.319   3.697  0.00  0.00    +0.177 C 
ATOM      2  C   UNL     1       1.526  -4.723   3.974  0.00  0.00    +0.046 C 
ATOM      3  C   UNL     1       1.547  -5.997   4.822  0.00  0.00    +0.026 C 
ATOM      4  C   UNL     1       0.827  -5.739   6.147  0.00  0.00    +0.076 C 
ATOM      5  C   UNL     1      -0.622  -5.334   5.870  0.00  0.00    +0.026 C 
ATOM      6  C   UNL     1      -0.643  -4.061   5.023  0.00  0.00    +0.046 C 
ENDROOT
BRANCH   4   7
ATOM      7  N   UNL     1       0.847  -6.958   6.959  0.00  0.00    -0.278 N 
ATOM      8  C   UNL     1       0.750  -6.877   8.301  0.00  0.00    +0.401 C 
ATOM      9  O   UNL     1       0.645  -5.791   8.837  0.00  0.00    -0.226 OA
ATOM     10  H   UNL     1       0.931  -7.825   6.531  0.00  0.00    +0.152 HD
BRANCH   8  11
ATOM     11  O   UNL     1       0.768  -7.997   9.047  0.00  0.00    -0.441 OA
BRANCH  11  12
ATOM     12  C   UNL     1       0.661  -7.836  10.462  0.00  0.00    +0.346 C 
BRANCH  12  13
ATOM     13  C   UNL     1       0.700  -9.209  11.136  0.00  0.00    +0.424 C 
ATOM     14  F   UNL     1       1.908  -9.845  10.830  0.00  0.00    -0.167 F 
ATOM     15  F   UNL     1       0.595  -9.051  12.523  0.00  0.00    -0.167 F 
ATOM     16  F   UNL     1      -0.367  -9.987  10.673  0.00  0.00    -0.167 F 
ENDBRANCH  12  13
ENDBRANCH  11  12
ENDBRANCH   8  11
ENDBRANCH   4   7
BRANCH   1  17
ATOM     17  O   UNL     1       0.057  -3.129   2.906  0.00  0.00    -0.457 OA
BRANCH  17  18
ATOM     18  C   UNL     1       0.054  -3.285   1.566  0.00  0.00    +0.356 C 
ATOM     19  O   UNL     1       0.067  -4.402   1.084  0.00  0.00    -0.243 OA
BRANCH  18  24
ATOM     20  C   UNL     1      -0.018   1.503   0.010  0.00  0.00    +0.063 C 
ATOM     21  C   UNL     1       0.002  -0.004   0.002  0.00  0.00    +0.016 A 
ATOM     22  C   UNL     1       0.008  -0.785  -1.105  0.00  0.00    +0.023 A 
ATOM     23  C   UNL     1       0.029  -2.119  -0.688  0.00  0.00    +0.035 A 
ATOM     24  C   UNL     1       0.034  -2.110   0.692  0.00  0.00    +0.127 A 
ATOM     25  N   UNL     1       0.023  -0.794   1.096  0.00  0.00    -0.342 N 
ATOM     26  C   UNL     1       0.029  -0.328   2.485  0.00  0.00    +0.149 C 
ENDBRANCH  18  24
ENDBRANCH  17  18
ENDBRANCH   1  17
TORSDOF 7
