REMARK  Name = ZINC45929791
REMARK  9 active torsions:
REMARK  status: ('A' for Active; 'I' for Inactive)
REMARK    1  A    between atoms: C_1  and  C_2
REMARK    2  A    between atoms: C_2  and  N_3
REMARK    3  A    between atoms: N_14  and  N_15
REMARK    4  A    between atoms: C_16  and  C_18
REMARK    5  A    between atoms: C_18  and  C_21
REMARK    6  A    between atoms: C_24  and  C_27
REMARK    7  A    between atoms: C_27  and  C_28
REMARK    8  A    between atoms: C_27  and  C_29
REMARK    9  A    between atoms: C_27  and  C_30
REMARK                            x       y       z     vdW  Elec       q    Type
REMARK                         _______ _______ _______ _____ _____    ______ ____
ROOT
ATOM      1  N   UNL     1      -4.684  -1.539   2.445  0.00  0.00    -0.234 N 
ATOM      2  C   UNL     1      -3.868  -0.889   3.298  0.00  0.00    +0.240 C 
ATOM      3  O   UNL     1      -2.803  -0.458   2.909  0.00  0.00    -0.273 OA
ATOM      4  H   UNL     1      -5.501  -1.947   2.771  0.00  0.00    +0.173 HD
ENDROOT
BRANCH   1  16
ATOM      5  N   UNL     1      -4.827  -2.356  -1.097  0.00  0.00    -0.280 N 
ATOM      6  C   UNL     1      -5.611  -3.004  -1.990  0.00  0.00    +0.263 A 
ATOM      7  O   UNL     1      -5.304  -3.075  -3.165  0.00  0.00    -0.267 OA
ATOM      8  C   UNL     1      -6.847  -3.619  -1.486  0.00  0.00    +0.065 A 
ATOM      9  C   UNL     1      -7.722  -4.308  -2.325  0.00  0.00    +0.015 A 
ATOM     10  C   UNL     1      -8.859  -4.862  -1.804  0.00  0.00    +0.001 A 
ATOM     11  C   UNL     1      -9.150  -4.744  -0.451  0.00  0.00    +0.002 A 
ATOM     12  C   UNL     1      -8.310  -4.073   0.393  0.00  0.00    +0.028 A 
ATOM     13  C   UNL     1      -7.140  -3.497  -0.109  0.00  0.00    +0.080 A 
ATOM     14  N   UNL     1      -6.280  -2.824   0.691  0.00  0.00    -0.214 NA
ATOM     15  C   UNL     1      -5.181  -2.290   0.218  0.00  0.00    +0.216 A 
ATOM     16  N   UNL     1      -4.351  -1.627   1.087  0.00  0.00    -0.234 N 
ATOM     17  H   UNL     1      -3.533  -1.220   0.760  0.00  0.00    +0.173 HD
BRANCH   5  19
ATOM     18  C   UNL     1      -2.436  -2.734  -1.450  0.00  0.00    +0.027 C 
ATOM     19  C   UNL     1      -3.583  -1.726  -1.547  0.00  0.00    +0.125 C 
ENDBRANCH   5  19
ENDBRANCH   1  16
BRANCH   2  20
ATOM     20  C   UNL     1      -4.279  -0.696   4.735  0.00  0.00    +0.073 C 
ATOM     21  C   UNL     1      -4.307   0.735   5.276  0.00  0.00    +0.022 C 
ATOM     22  C   UNL     1      -5.618  -0.005   5.000  0.00  0.00    +0.022 C 
BRANCH  20  23
ATOM     23  C   UNL     1      -3.861  -1.790   5.683  0.00  0.00    -0.032 A 
ATOM     24  C   UNL     1      -4.818  -2.586   6.285  0.00  0.00    +0.005 A 
ATOM     25  C   UNL     1      -4.435  -3.590   7.154  0.00  0.00    +0.004 A 
ATOM     26  C   UNL     1      -3.095  -3.799   7.421  0.00  0.00    -0.042 A 
ATOM     27  C   UNL     1      -2.138  -3.004   6.819  0.00  0.00    +0.004 A 
ATOM     28  C   UNL     1      -2.521  -2.003   5.946  0.00  0.00    +0.005 A 
BRANCH  26  29
ATOM     29  C   UNL     1      -2.677  -4.892   8.370  0.00  0.00    -0.013 C 
ATOM     30  C   UNL     1      -3.163  -6.242   7.838  0.00  0.00    +0.015 C 
ATOM     31  C   UNL     1      -1.152  -4.910   8.489  0.00  0.00    +0.015 C 
ATOM     32  C   UNL     1      -3.293  -4.636   9.747  0.00  0.00    +0.015 C 
ENDBRANCH  26  29
ENDBRANCH  20  23
ENDBRANCH   2  20
TORSDOF 5
