REMARK  Name = ZINC22757290
REMARK  12 active torsions:
REMARK  status: ('A' for Active; 'I' for Inactive)
REMARK    1  A    between atoms: C_1  and  C_2
REMARK    2  A    between atoms: C_5  and  C_7
REMARK    3  A    between atoms: C_8  and  C_9
REMARK    4  A    between atoms: N_14  and  C_16
REMARK    5  A    between atoms: C_16  and  N_17
REMARK    6  A    between atoms: N_17  and  C_18
REMARK    7  A    between atoms: N_17  and  C_19
REMARK    8  A    between atoms: C_19  and  C_20
REMARK    9  A    between atoms: C_21  and  C_34
REMARK   10  A    between atoms: N_23  and  C_26
REMARK   11  A    between atoms: C_24  and  C_25
REMARK   12  A    between atoms: C_26  and  C_27
REMARK                            x       y       z     vdW  Elec       q    Type
REMARK                         _______ _______ _______ _____ _____    ______ ____
ROOT
ATOM      1  N   UNL     1      -8.858   2.869   6.087  0.00  0.00    +0.394 N 
ATOM      2  C   UNL     1      -9.860   2.087   5.351  0.00  0.00    -0.093 C 
ATOM      3  H   UNL     1      -7.988   2.220   6.266  0.00  0.00    -0.079 HD
ENDROOT
BRANCH   1   4
ATOM      4  C   UNL     1      -8.406   4.022   5.297  0.00  0.00    +0.072 C 
BRANCH   4  10
ATOM      5  C   UNL     1      -6.038   2.896   2.818  0.00  0.00    +0.153 A 
ATOM      6  N   UNL     1      -7.220   2.868   2.098  0.00  0.00    -0.318 N 
ATOM      7  H   UNL     1      -7.215   2.550   1.045  0.00  0.00    +0.169 HD
ATOM      8  C   UNL     1      -8.217   3.272   2.909  0.00  0.00    +0.174 A 
ATOM      9  S   UNL     1      -9.870   3.410   2.485  0.00  0.00    -0.012 S 
ATOM     10  N   UNL     1      -7.681   3.550   4.115  0.00  0.00    -0.257 N 
ATOM     11  N   UNL     1      -6.304   3.299   4.034  0.00  0.00    -0.153 NA
BRANCH   5  13
ATOM     12  C   UNL     1      -3.634   2.601   3.115  0.00  0.00    +0.050 C 
ATOM     13  C   UNL     1      -4.714   2.530   2.307  0.00  0.00    +0.051 C 
BRANCH  12  18
ATOM     14  C   UNL     1      -0.013   1.086   0.008  0.00  0.00    +0.086 C 
ATOM     15  C   UNL     1      -0.718   1.572   1.248  0.00  0.00    +0.103 A 
ATOM     16  C   UNL     1      -0.131   1.835   2.434  0.00  0.00    +0.045 A 
ATOM     17  C   UNL     1      -1.143   2.262   3.312  0.00  0.00    +0.049 A 
ATOM     18  C   UNL     1      -2.312   2.236   2.605  0.00  0.00    +0.128 A 
ATOM     19  O   UNL     1      -2.034   1.820   1.353  0.00  0.00    -0.461 OA
ENDBRANCH  12  18
ENDBRANCH   5  13
ENDBRANCH   4  10
ENDBRANCH   1   4
BRANCH   1  20
ATOM     20  C   UNL     1      -9.379   3.296   7.392  0.00  0.00    -0.037 C 
BRANCH  20  21
ATOM     21  C   UNL     1      -9.602   2.088   8.264  0.00  0.00    -0.021 A 
ATOM     22  C   UNL     1      -8.667   1.516   9.134  0.00  0.00    +0.062 A 
ATOM     23  N   UNL     1      -9.226   0.486   9.716  0.00  0.00    -0.176 NA
ATOM     24  N   UNL     1     -10.536   0.369   9.234  0.00  0.00    -0.264 N 
ATOM     25  C   UNL     1     -10.744   1.367   8.349  0.00  0.00    +0.038 A 
ATOM     26  C   UNL     1     -12.018   1.629   7.589  0.00  0.00    +0.065 C 
ATOM     27  C   UNL     1      -7.258   2.003   9.361  0.00  0.00    +0.068 C 
BRANCH  24  28
ATOM     28  C   UNL     1     -11.510  -0.652   9.627  0.00  0.00    +0.180 C 
BRANCH  28  29
ATOM     29  C   UNL     1     -12.304  -0.160  10.810  0.00  0.00    -0.008 A 
ATOM     30  C   UNL     1     -13.569   0.364  10.623  0.00  0.00    +0.007 A 
ATOM     31  C   UNL     1     -14.297   0.815  11.708  0.00  0.00    +0.000 A 
ATOM     32  C   UNL     1     -13.761   0.742  12.980  0.00  0.00    +0.001 A 
ATOM     33  C   UNL     1     -12.496   0.217  13.168  0.00  0.00    +0.020 A 
ATOM     34  C   UNL     1     -11.769  -0.239  12.083  0.00  0.00    +0.046 A 
ATOM     35 CL   UNL     1     -10.183  -0.904  12.318  0.00  0.00    -0.083 Cl
ENDBRANCH  28  29
ENDBRANCH  24  28
ENDBRANCH  20  21
ENDBRANCH   1  20
TORSDOF 8
