REMARK  Name = ZINC49118610
REMARK  8 active torsions:
REMARK  status: ('A' for Active; 'I' for Inactive)
REMARK    1  A    between atoms: C_1  and  C_2
REMARK    2  A    between atoms: C_2  and  C_3
REMARK    3  A    between atoms: C_9  and  N_11
REMARK    4  A    between atoms: N_11  and  C_12
REMARK    5  A    between atoms: C_15  and  S_19
REMARK    6  A    between atoms: C_17  and  N_18
REMARK    7  A    between atoms: S_19  and  N_22
REMARK    8  A    between atoms: N_22  and  C_23
REMARK                            x       y       z     vdW  Elec       q    Type
REMARK                         _______ _______ _______ _____ _____    ______ ____
ROOT
ATOM      1  C   UNL     1       1.454  -3.675   0.543  0.00  0.00    +0.048 A 
ATOM      2  C   UNL     1       0.560  -4.573  -0.019  0.00  0.00    +0.027 A 
ATOM      3  C   UNL     1       0.396  -5.827   0.539  0.00  0.00    +0.030 A 
ATOM      4  C   UNL     1       1.121  -6.189   1.660  0.00  0.00    +0.107 A 
ATOM      5  C   UNL     1       2.014  -5.300   2.228  0.00  0.00    +0.053 A 
ATOM      6  C   UNL     1       2.189  -4.042   1.671  0.00  0.00    +0.048 A 
ENDROOT
BRANCH   6   7
ATOM      7  N   UNL     1       3.097  -3.142   2.241  0.00  0.00    -0.356 N 
ATOM      8  H   UNL     1       3.216  -2.261   1.852  0.00  0.00    +0.142 HD
ATOM      9  H   UNL     1       3.608  -3.398   3.025  0.00  0.00    +0.142 HD
ENDBRANCH   6   7
BRANCH   4  10
ATOM     10  S   UNL     1       0.905  -7.789   2.366  0.00  0.00    +0.058 S 
ATOM     11  O   UNL     1       1.296  -7.687   3.729  0.00  0.00    -0.153 OA
ATOM     12  O   UNL     1      -0.386  -8.235   1.975  0.00  0.00    -0.153 OA
BRANCH  10  13
ATOM     13  N   UNL     1       1.996  -8.798   1.635  0.00  0.00    -0.193 NA
ATOM     14  C   UNL     1       3.433  -8.583   1.823  0.00  0.00    +0.127 C 
ATOM     15  H   UNL     1       1.684  -9.532   1.083  0.00  0.00    +0.148 HD
ENDBRANCH  10  13
ENDBRANCH   4  10
BRANCH   1  16
ATOM     16  N   UNL     1       1.622  -2.405  -0.021  0.00  0.00    -0.339 N 
ATOM     17  H   UNL     1       2.251  -1.779   0.371  0.00  0.00    +0.146 HD
BRANCH  16  23
ATOM     18  C   UNL     1       0.718  -0.497  -1.257  0.00  0.00    +0.009 C 
ATOM     19  C   UNL     1      -0.089  -0.097  -2.493  0.00  0.00    +0.005 C 
ATOM     20  C   UNL     1       0.627  -0.590  -3.752  0.00  0.00    +0.000 C 
ATOM     21  C   UNL     1       0.758  -2.114  -3.700  0.00  0.00    +0.002 C 
ATOM     22  C   UNL     1       1.565  -2.514  -2.464  0.00  0.00    +0.022 C 
ATOM     23  C   UNL     1       0.849  -2.021  -1.205  0.00  0.00    +0.074 C 
BRANCH  18  25
ATOM     24  C   UNL     1      -0.019   1.526   0.010  0.00  0.00    +0.004 C 
ATOM     25  C   UNL     1       0.002  -0.004   0.002  0.00  0.00    +0.002 C 
ENDBRANCH  18  25
ENDBRANCH  16  23
ENDBRANCH   1  16
TORSDOF 6
