REMARK  Name = ZINC41549432
REMARK  6 active torsions:
REMARK  status: ('A' for Active; 'I' for Inactive)
REMARK    1  A    between atoms: C_1  and  C_2
REMARK    2  A    between atoms: C_2  and  C_4
REMARK    3  A    between atoms: C_2  and  N_11
REMARK    4  A    between atoms: C_12  and  N_16
REMARK    5  A    between atoms: C_17  and  C_19
REMARK    6  A    between atoms: C_19  and  C_31
REMARK                            x       y       z     vdW  Elec       q    Type
REMARK                         _______ _______ _______ _____ _____    ______ ____
ROOT
ATOM      1  N   UNL     1      -1.103  -1.794   2.196  0.00  0.00    -0.267 N 
ATOM      2  C   UNL     1      -1.485  -2.581   3.221  0.00  0.00    +0.271 C 
ATOM      3  O   UNL     1      -0.699  -2.849   4.105  0.00  0.00    -0.270 OA
ATOM      4  H   UNL     1      -1.731  -1.580   1.488  0.00  0.00    +0.156 HD
ENDROOT
BRANCH   2   5
ATOM      5  C   UNL     1      -2.888  -3.129   3.268  0.00  0.00    +0.258 C 
ATOM      6  C   UNL     1      -2.906  -4.393   4.090  0.00  0.00    +0.270 C 
ATOM      7  O   UNL     1      -2.081  -4.563   4.963  0.00  0.00    -0.271 OA
ATOM      8  N   UNL     1      -3.843  -5.334   3.851  0.00  0.00    -0.279 N 
ATOM      9  C   UNL     1      -4.707  -5.177   2.758  0.00  0.00    +0.077 A 
ATOM     10  C   UNL     1      -5.817  -5.993   2.614  0.00  0.00    +0.047 A 
ATOM     11  C   UNL     1      -6.667  -5.817   1.537  0.00  0.00    +0.043 A 
ATOM     12  C   UNL     1      -6.411  -4.827   0.604  0.00  0.00    +0.024 A 
ATOM     13  C   UNL     1      -5.301  -4.012   0.740  0.00  0.00    +0.049 A 
ATOM     14  C   UNL     1      -4.443  -4.188   1.812  0.00  0.00    +0.144 A 
ATOM     15  O   UNL     1      -3.332  -3.413   1.939  0.00  0.00    -0.465 OA
ATOM     16 CL   UNL     1      -8.057  -6.840   1.354  0.00  0.00    -0.083 Cl
ATOM     17  C   UNL     1      -3.817  -2.095   3.905  0.00  0.00    +0.076 C 
ATOM     18  H   UNL     1      -3.919  -6.110   4.428  0.00  0.00    +0.155 HD
ENDBRANCH   2   5
BRANCH   1  20
ATOM     19  N   UNL     1       0.711  -0.489   1.189  0.00  0.00    -0.243 N 
ATOM     20  C   UNL     1       0.196  -1.287   2.152  0.00  0.00    +0.124 A 
ATOM     21  C   UNL     1       1.175  -1.505   3.072  0.00  0.00    +0.065 A 
ATOM     22  C   UNL     1       2.317  -0.818   2.652  0.00  0.00    +0.136 A 
ATOM     23  N   UNL     1       2.043  -0.214   1.524  0.00  0.00    -0.177 NA
BRANCH  19  25
ATOM     24  C   UNL     1      -0.019   1.526   0.010  0.00  0.00    +0.038 C 
ATOM     25  C   UNL     1       0.002  -0.004   0.002  0.00  0.00    +0.136 C 
BRANCH  25  26
ATOM     26  C   UNL     1       0.707  -0.490  -1.238  0.00  0.00    -0.023 A 
ATOM     27  C   UNL     1       2.026  -0.141  -1.464  0.00  0.00    +0.007 A 
ATOM     28  C   UNL     1       2.673  -0.587  -2.601  0.00  0.00    +0.020 A 
ATOM     29  C   UNL     1       2.002  -1.382  -3.513  0.00  0.00    +0.041 A 
ATOM     30  C   UNL     1       0.682  -1.730  -3.286  0.00  0.00    +0.020 A 
ATOM     31  C   UNL     1       0.037  -1.289  -2.146  0.00  0.00    +0.007 A 
ATOM     32 CL   UNL     1       2.814  -1.941  -4.941  0.00  0.00    -0.084 Cl
ENDBRANCH  25  26
ENDBRANCH  19  25
ENDBRANCH   1  20
TORSDOF 4
