REMARK  Name = ZINC04061368
REMARK  8 active torsions:
REMARK  status: ('A' for Active; 'I' for Inactive)
REMARK    1  A    between atoms: C_1  and  C_2
REMARK    2  A    between atoms: C_6  and  C_8
REMARK    3  A    between atoms: C_8  and  S_9
REMARK    4  A    between atoms: S_9  and  C_10
REMARK    5  A    between atoms: C_13  and  C_22
REMARK    6  A    between atoms: N_14  and  C_15
REMARK    7  A    between atoms: C_19  and  C_21
REMARK    8  A    between atoms: C_22  and  C_23
REMARK                            x       y       z     vdW  Elec       q    Type
REMARK                         _______ _______ _______ _____ _____    ______ ____
ROOT
ATOM      1  C   UNL     1      -0.116   7.695  -1.375  0.00  0.00    +0.196 A 
ATOM      2  N   UNL     1      -0.112   8.286  -0.203  0.00  0.00    -0.122 NA
ATOM      3  N   UNL     1      -0.131   9.562  -0.356  0.00  0.00    -0.133 NA
ATOM      4  C   UNL     1      -0.148   9.862  -1.624  0.00  0.00    +0.144 A 
ATOM      5  N   UNL     1      -0.133   8.683  -2.321  0.00  0.00    -0.274 N 
ENDROOT
BRANCH   5   6
ATOM      6  C   UNL     1      -0.137   8.522  -3.715  0.00  0.00    +0.050 A 
ATOM      7  C   UNL     1      -1.234   8.934  -4.459  0.00  0.00    +0.026 A 
ATOM      8  C   UNL     1      -1.235   8.774  -5.831  0.00  0.00    +0.002 A 
ATOM      9  C   UNL     1      -0.144   8.206  -6.463  0.00  0.00    +0.003 A 
ATOM     10  C   UNL     1       0.950   7.796  -5.724  0.00  0.00    -0.048 A 
ATOM     11  C   UNL     1       0.959   7.957  -4.353  0.00  0.00    +0.029 A 
ATOM     12  C   UNL     1       2.137   7.178  -6.417  0.00  0.00    +0.044 C 
ENDBRANCH   5   6
BRANCH   1  13
ATOM     13  S   UNL     1      -0.095   5.958  -1.674  0.00  0.00    -0.081 S 
BRANCH  13  14
ATOM     14  C   UNL     1      -0.070   5.347   0.030  0.00  0.00    +0.112 C 
BRANCH  14  20
ATOM     15  C   UNL     1      -2.514   0.980   0.019  0.00  0.00    +0.044 C 
ATOM     16  C   UNL     1      -1.219   1.751   0.017  0.00  0.00    -0.050 A 
ATOM     17  C   UNL     1      -0.013   1.076   0.008  0.00  0.00    +0.003 A 
ATOM     18  C   UNL     1       1.175   1.783   0.000  0.00  0.00    +0.001 A 
ATOM     19  C   UNL     1       1.156   3.166   0.008  0.00  0.00    +0.004 A 
ATOM     20  C   UNL     1      -0.050   3.840   0.022  0.00  0.00    -0.037 A 
ATOM     21  C   UNL     1      -1.238   3.133   0.030  0.00  0.00    +0.007 A 
ENDBRANCH  14  20
ENDBRANCH  13  14
ENDBRANCH   1  13
BRANCH   4  22
ATOM     22  C   UNL     1      -0.173  11.248  -2.214  0.00  0.00    +0.130 C 
BRANCH  22  23
ATOM     23  C   UNL     1       1.239  11.730  -2.425  0.00  0.00    +0.033 A 
ATOM     24  C   UNL     1       1.834  11.580  -3.627  0.00  0.00    +0.091 A 
ATOM     25  C   UNL     1       3.162  12.040  -3.801  0.00  0.00    +0.254 A 
ATOM     26  O   UNL     1       3.720  11.916  -4.876  0.00  0.00    -0.268 OA
ATOM     27  N   UNL     1       3.802  12.619  -2.765  0.00  0.00    -0.275 N 
ATOM     28  H   UNL     1       4.740  12.947  -2.880  0.00  0.00    +0.173 HD
ATOM     29  C   UNL     1       3.185  12.756  -1.577  0.00  0.00    +0.327 A 
ATOM     30  O   UNL     1       3.775  13.279  -0.651  0.00  0.00    -0.247 OA
ATOM     31  N   UNL     1       1.922  12.328  -1.400  0.00  0.00    -0.311 N 
ATOM     32  H   UNL     1       1.478  12.447  -0.512  0.00  0.00    +0.170 HD
ENDBRANCH  22  23
ENDBRANCH   4  22
TORSDOF 6
