REMARK  Name = ZINC36972348
REMARK  5 active torsions:
REMARK  status: ('A' for Active; 'I' for Inactive)
REMARK    1  A    between atoms: C_1  and  N_2
REMARK    2  A    between atoms: C_6  and  C_7
REMARK    3  A    between atoms: C_10  and  N_13
REMARK    4  A    between atoms: N_13  and  C_14
REMARK    5  A    between atoms: C_14  and  C_15
REMARK                            x       y       z     vdW  Elec       q    Type
REMARK                         _______ _______ _______ _____ _____    ______ ____
ROOT
ATOM      1  C   UNL     1      -0.187  -0.435   2.504  0.00  0.00    +0.019 A 
ATOM      2  C   UNL     1      -0.087   0.912   2.857  0.00  0.00    +0.013 A 
ATOM      3  C   UNL     1      -0.195   1.286   4.179  0.00  0.00    +0.023 A 
ATOM      4  C   UNL     1      -0.404   0.324   5.160  0.00  0.00    +0.027 A 
ATOM      5  C   UNL     1      -0.504  -1.019   4.811  0.00  0.00    +0.023 A 
ATOM      6  C   UNL     1      -0.403  -1.398   3.491  0.00  0.00    +0.013 A 
ENDROOT
BRANCH   1  12
ATOM      7  C   UNL     1       0.410  -3.309   1.412  0.00  0.00    +0.152 C 
ATOM      8  N   UNL     1       0.190  -2.099   0.618  0.00  0.00    -0.317 N 
ATOM      9  C   UNL     1       0.197  -1.994  -0.740  0.00  0.00    +0.225 A 
ATOM     10  N   UNL     1      -0.040  -0.745  -1.038  0.00  0.00    -0.138 NA
ATOM     11  N   UNL     1      -0.197  -0.057   0.037  0.00  0.00    -0.129 NA
ATOM     12  C   UNL     1      -0.071  -0.839   1.086  0.00  0.00    +0.164 A 
ENDBRANCH   1  12
BRANCH   4  13
ATOM     13  N   UNL     1      -0.513   0.705   6.498  0.00  0.00    -0.337 N 
ATOM     14  H   UNL     1      -0.443   1.641   6.742  0.00  0.00    +0.147 HD
BRANCH  13  15
ATOM     15  C   UNL     1      -0.734  -0.308   7.533  0.00  0.00    +0.176 C 
BRANCH  15  16
ATOM     16  C   UNL     1      -0.814   0.361   8.881  0.00  0.00    +0.123 A 
ATOM     17  C   UNL     1      -1.936   0.817   9.467  0.00  0.00    +0.047 A 
ATOM     18  C   UNL     1      -1.554   1.366  10.713  0.00  0.00    +0.057 A 
ATOM     19  C   UNL     1      -0.220   1.212  10.814  0.00  0.00    +0.170 A 
ATOM     20  O   UNL     1       0.221   0.597   9.704  0.00  0.00    -0.452 OA
ATOM     21 BR   UNL     1       0.849   1.760  12.274  0.00  0.00    -0.008 Br
ENDBRANCH  15  16
ENDBRANCH  13  15
ENDBRANCH   4  13
TORSDOF 4
