REMARK  Name = ZINC36582330
REMARK  18 active torsions:
REMARK  status: ('A' for Active; 'I' for Inactive)
REMARK    1  A    between atoms: C_1  and  C_2
REMARK    2  A    between atoms: C_2  and  C_3
REMARK    3  A    between atoms: C_3  and  C_4
REMARK    4  A    between atoms: C_4  and  C_5
REMARK    5  A    between atoms: C_5  and  C_6
REMARK    6  A    between atoms: C_7  and  C_8
REMARK    7  A    between atoms: N_10  and  C_11
REMARK    8  A    between atoms: N_10  and  C_34
REMARK    9  A    between atoms: C_11  and  C_13
REMARK   10  A    between atoms: C_11  and  C_20
REMARK   11  A    between atoms: C_16  and  C_19
REMARK   12  A    between atoms: N_22  and  C_23
REMARK   13  A    between atoms: C_23  and  S_24
REMARK   14  A    between atoms: S_24  and  C_27
REMARK   15  A    between atoms: C_30  and  C_33
REMARK   16  A    between atoms: C_34  and  C_35
REMARK   17  A    between atoms: C_34  and  C_36
REMARK   18  A    between atoms: C_34  and  C_37
REMARK                            x       y       z     vdW  Elec       q    Type
REMARK                         _______ _______ _______ _____ _____    ______ ____
ROOT
ATOM      1  C   UNL     1      -5.797  -4.139   4.090  0.00  0.00    +0.193 C 
ENDROOT
BRANCH   1   2
ATOM      2  C   UNL     1      -7.175  -4.734   4.226  0.00  0.00    -0.018 A 
ATOM      3  C   UNL     1      -7.341  -6.107   4.201  0.00  0.00    +0.006 A 
ATOM      4  C   UNL     1      -8.605  -6.652   4.326  0.00  0.00    +0.004 A 
ATOM      5  C   UNL     1      -9.703  -5.826   4.477  0.00  0.00    -0.050 A 
ATOM      6  C   UNL     1      -9.537  -4.454   4.503  0.00  0.00    +0.004 A 
ATOM      7  C   UNL     1      -8.272  -3.908   4.382  0.00  0.00    +0.006 A 
ATOM      8  C   UNL     1     -11.081  -6.421   4.612  0.00  0.00    +0.044 C 
ENDBRANCH   1   2
BRANCH   1   9
ATOM      9  C   UNL     1      -5.163  -4.025   5.452  0.00  0.00    +0.239 C 
ATOM     10  O   UNL     1      -4.065  -4.500   5.652  0.00  0.00    -0.273 OA
ATOM     11  N   UNL     1      -5.815  -3.395   6.449  0.00  0.00    -0.294 N 
ATOM     12  H   UNL     1      -6.693  -3.014   6.290  0.00  0.00    +0.150 HD
BRANCH  11  13
ATOM     13  C   UNL     1      -5.198  -3.283   7.773  0.00  0.00    +0.278 C 
BRANCH  13  14
ATOM     14  S   UNL     1      -4.342  -1.690   7.909  0.00  0.00    +0.013 S 
ATOM     15  O   UNL     1      -3.791  -1.540   9.211  0.00  0.00    -0.168 OA
ATOM     16  O   UNL     1      -3.545  -1.462   6.755  0.00  0.00    -0.168 OA
BRANCH  14  17
ATOM     17  C   UNL     1      -5.619  -0.480   7.819  0.00  0.00    +0.090 A 
ATOM     18  C   UNL     1      -6.005   0.028   6.593  0.00  0.00    +0.027 A 
ATOM     19  C   UNL     1      -7.007   0.977   6.522  0.00  0.00    +0.005 A 
ATOM     20  C   UNL     1      -7.624   1.418   7.678  0.00  0.00    -0.050 A 
ATOM     21  C   UNL     1      -7.239   0.909   8.904  0.00  0.00    +0.005 A 
ATOM     22  C   UNL     1      -6.240  -0.043   8.975  0.00  0.00    +0.027 A 
ATOM     23  C   UNL     1      -8.716   2.454   7.601  0.00  0.00    +0.044 C 
ENDBRANCH  14  17
ENDBRANCH  13  14
ENDBRANCH  11  13
ENDBRANCH   1   9
BRANCH   1  26
ATOM     24  C   UNL     1      -4.564  -6.203   3.693  0.00  0.00    +0.240 C 
ATOM     25  O   UNL     1      -4.787  -6.526   4.845  0.00  0.00    -0.271 OA
ATOM     26  N   UNL     1      -4.974  -5.003   3.239  0.00  0.00    -0.277 N 
BRANCH  26  27
ATOM     27  C   UNL     1      -4.598  -4.561   1.894  0.00  0.00    +0.030 C 
ATOM     28  C   UNL     1      -5.216  -5.501   0.857  0.00  0.00    +0.031 C 
ATOM     29  C   UNL     1      -5.111  -3.138   1.663  0.00  0.00    +0.031 C 
ATOM     30  C   UNL     1      -3.074  -4.582   1.758  0.00  0.00    +0.031 C 
ENDBRANCH  26  27
BRANCH  24  32
ATOM     31  C   UNL     1      -3.571  -8.361   3.196  0.00  0.00    -0.022 C 
ATOM     32  C   UNL     1      -3.846  -7.123   2.797  0.00  0.00    +0.063 C 
BRANCH  31  33
ATOM     33  C   UNL     1      -4.297  -8.950   4.378  0.00  0.00    +0.027 C 
BRANCH  33  34
ATOM     34  C   UNL     1      -4.796 -10.352   4.023  0.00  0.00    +0.004 C 
BRANCH  34  35
ATOM     35  C   UNL     1      -5.532 -10.951   5.223  0.00  0.00    +0.000 C 
BRANCH  35  37
ATOM     36  C   UNL     1      -6.768 -12.951   6.068  0.00  0.00    +0.004 C 
ATOM     37  C   UNL     1      -6.031 -12.353   4.868  0.00  0.00    -0.003 C 
ENDBRANCH  35  37
ENDBRANCH  34  35
ENDBRANCH  33  34
ENDBRANCH  31  33
ENDBRANCH  24  32
ENDBRANCH   1  26
TORSDOF 12
