REMARK  Name = ZINC38092956
REMARK  6 active torsions:
REMARK  status: ('A' for Active; 'I' for Inactive)
REMARK    1  A    between atoms: C_1  and  C_2
REMARK    2  A    between atoms: C_2  and  C_4
REMARK    3  A    between atoms: C_2  and  N_10
REMARK    4  A    between atoms: C_4  and  C_5
REMARK    5  A    between atoms: N_10  and  C_11
REMARK    6  A    between atoms: C_11  and  C_12
REMARK                            x       y       z     vdW  Elec       q    Type
REMARK                         _______ _______ _______ _____ _____    ______ ____
ROOT
ATOM      1  C   UNL     1      -1.898  -0.590   1.383  0.00  0.00    +0.158 C 
ENDROOT
BRANCH   1   2
ATOM      2  C   UNL     1      -3.311  -1.115   1.354  0.00  0.00    +0.147 A 
ATOM      3  N   UNL     1      -4.299  -0.243   1.245  0.00  0.00    -0.192 NA
ATOM      4  C   UNL     1      -5.561  -0.667   1.215  0.00  0.00    +0.288 A 
ATOM      5  O   UNL     1      -6.586   0.212   1.103  0.00  0.00    -0.265 OA
ATOM      6  C   UNL     1      -5.799  -2.025   1.301  0.00  0.00    +0.104 A 
ATOM      7  C   UNL     1      -4.735  -2.947   1.418  0.00  0.00    +0.085 A 
ATOM      8  N   UNL     1      -3.492  -2.407   1.433  0.00  0.00    -0.230 NA
ATOM      9  C   UNL     1      -5.116  -4.298   1.497  0.00  0.00    +0.036 A 
ATOM     10  C   UNL     1      -6.419  -4.638   1.459  0.00  0.00    +0.048 A 
ATOM     11  S   UNL     1      -7.239  -3.059   1.307  0.00  0.00    -0.090 S 
ENDBRANCH   1   2
BRANCH   1  12
ATOM     12  N   UNL     1      -1.376  -0.512   0.012  0.00  0.00    -0.306 NA
ATOM     13  H   UNL     1      -1.974   0.053  -0.571  0.00  0.00    +0.123 HD
BRANCH  12  15
ATOM     14  C   UNL     1      -0.019   1.526   0.010  0.00  0.00    +0.024 C 
ATOM     15  C   UNL     1       0.002  -0.004   0.002  0.00  0.00    +0.058 C 
BRANCH  15  16
ATOM     16  C   UNL     1       0.718  -0.497  -1.257  0.00  0.00    +0.092 C 
BRANCH  16  17
ATOM     17  C   UNL     1       0.847  -1.998  -1.206  0.00  0.00    +0.106 A 
ATOM     18  C   UNL     1      -0.044  -2.881  -1.691  0.00  0.00    +0.044 A 
ATOM     19  C   UNL     1       0.474  -4.171  -1.430  0.00  0.00    +0.041 A 
ATOM     20  C   UNL     1       1.650  -3.998  -0.801  0.00  0.00    +0.195 A 
ATOM     21  O   UNL     1       1.874  -2.680  -0.673  0.00  0.00    -0.468 OA
ENDBRANCH  16  17
ENDBRANCH  15  16
ENDBRANCH  12  15
ENDBRANCH   1  12
TORSDOF 5
