REMARK  Name = ZINC15629602
REMARK  8 active torsions:
REMARK  status: ('A' for Active; 'I' for Inactive)
REMARK    1  A    between atoms: C_1  and  C_2
REMARK    2  A    between atoms: C_5  and  N_11
REMARK    3  A    between atoms: C_7  and  N_8
REMARK    4  A    between atoms: C_12  and  C_14
REMARK    5  A    between atoms: C_14  and  C_15
REMARK    6  A    between atoms: C_15  and  S_16
REMARK    7  A    between atoms: S_16  and  C_17
REMARK    8  A    between atoms: C_17  and  C_18
REMARK                            x       y       z     vdW  Elec       q    Type
REMARK                         _______ _______ _______ _____ _____    ______ ____
ROOT
ATOM      1  S   UNL     1       1.155  -8.239  -3.585  0.00  0.00    -0.153 S 
ENDROOT
BRANCH   1   2
ATOM      2  C   UNL     1       0.729  -6.499  -3.299  0.00  0.00    +0.079 C 
BRANCH   2   3
ATOM      3  C   UNL     1       0.800  -6.196  -1.801  0.00  0.00    +0.107 C 
BRANCH   3   5
ATOM      4  N   UNL     1       0.442  -4.255  -0.310  0.00  0.00    -0.285 N 
ATOM      5  C   UNL     1       0.446  -4.750  -1.564  0.00  0.00    +0.218 C 
ATOM      6  O   UNL     1       0.165  -4.033  -2.501  0.00  0.00    -0.275 OA
ATOM      7  H   UNL     1       0.601  -4.843   0.444  0.00  0.00    +0.155 HD
BRANCH   4  12
ATOM      8  C   UNL     1      -0.508   1.272   0.552  0.00  0.00    +0.046 C 
ATOM      9  C   UNL     1      -0.256  -0.196   0.323  0.00  0.00    -0.020 A 
ATOM     10  C   UNL     1      -0.900  -0.854  -0.710  0.00  0.00    +0.007 A 
ATOM     11  C   UNL     1      -0.670  -2.199  -0.922  0.00  0.00    +0.024 A 
ATOM     12  C   UNL     1       0.207  -2.892  -0.098  0.00  0.00    +0.036 A 
ATOM     13  C   UNL     1       0.852  -2.228   0.938  0.00  0.00    +0.056 A 
ATOM     14  C   UNL     1       0.622  -0.881   1.142  0.00  0.00    +0.131 A 
BRANCH  14  15
ATOM     15  N   UNL     1       1.313  -0.172   2.242  0.00  0.00    +0.057 N 
ATOM     16  O   UNL     1       1.692   0.965   2.084  0.00  0.00    -0.126 OA
ATOM     17  O   UNL     1       1.499  -0.730   3.298  0.00  0.00    -0.126 OA
ENDBRANCH  14  15
ENDBRANCH   4  12
ENDBRANCH   3   5
ENDBRANCH   2   3
ENDBRANCH   1   2
BRANCH   1  18
ATOM     18  C   UNL     1       1.026  -8.432  -5.384  0.00  0.00    +0.143 C 
BRANCH  18  19
ATOM     19  C   UNL     1       1.359  -9.853  -5.762  0.00  0.00    +0.121 A 
ATOM     20  N   UNL     1       1.330 -10.220  -7.069  0.00  0.00    -0.310 N 
ATOM     21  H   UNL     1       1.095  -9.562  -7.742  0.00  0.00    +0.170 HD
ATOM     22  C   UNL     1       1.621 -11.477  -7.450  0.00  0.00    +0.260 A 
ATOM     23  O   UNL     1       1.592 -11.791  -8.627  0.00  0.00    -0.267 OA
ATOM     24  C   UNL     1       1.967 -12.442  -6.447  0.00  0.00    +0.075 A 
ATOM     25  C   UNL     1       2.316 -13.851  -6.625  0.00  0.00    -0.023 A 
ATOM     26  C   UNL     1       2.605 -14.555  -5.510  0.00  0.00    -0.004 A 
ATOM     27  S   UNL     1       2.433 -13.398  -4.178  0.00  0.00    -0.073 S 
ATOM     28  C   UNL     1       1.970 -11.970  -5.125  0.00  0.00    +0.116 A 
ATOM     29  N   UNL     1       1.676 -10.708  -4.826  0.00  0.00    -0.226 NA
ATOM     30  C   UNL     1       2.987 -16.001  -5.423  0.00  0.00    +0.043 C 
ATOM     31  C   UNL     1       2.642 -16.674  -6.760  0.00  0.00    +0.005 C 
ATOM     32  C   UNL     1       3.176 -15.802  -7.900  0.00  0.00    +0.005 C 
ATOM     33  C   UNL     1       2.356 -14.515  -7.998  0.00  0.00    +0.037 C 
ENDBRANCH  18  19
ENDBRANCH   1  18
TORSDOF 7
