REMARK  Name = ZINC09562027
REMARK  16 active torsions:
REMARK  status: ('A' for Active; 'I' for Inactive)
REMARK    1  A    between atoms: C_1  and  C_2
REMARK    2  A    between atoms: C_2  and  C_3
REMARK    3  A    between atoms: C_2  and  C_4
REMARK    4  A    between atoms: C_4  and  C_5
REMARK    5  A    between atoms: C_5  and  N_6
REMARK    6  A    between atoms: C_10  and  C_12
REMARK    7  A    between atoms: C_12  and  S_13
REMARK    8  A    between atoms: S_13  and  C_14
REMARK    9  A    between atoms: C_17  and  S_19
REMARK   10  A    between atoms: S_19  and  C_20
REMARK   11  A    between atoms: C_20  and  C_21
REMARK   12  A    between atoms: N_26  and  C_27
REMARK   13  A    between atoms: C_27  and  C_28
REMARK   14  A    between atoms: C_28  and  C_29
REMARK   15  A    between atoms: C_29  and  C_30
REMARK   16  A    between atoms: C_29  and  C_31
REMARK                            x       y       z     vdW  Elec       q    Type
REMARK                         _______ _______ _______ _____ _____    ______ ____
ROOT
ATOM      1  C   UNL     1       1.119   2.043   0.002  0.00  0.00    +0.160 A 
ATOM      2  N   UNL     1      -0.017   1.371   0.010  0.00  0.00    -0.134 NA
ATOM      3  N   UNL     1       0.002  -0.004   0.002  0.00  0.00    -0.134 NA
ATOM      4  C   UNL     1       1.155  -0.645  -0.012  0.00  0.00    +0.160 A 
ATOM      5  S   UNL     1       2.313   0.715  -0.016  0.00  0.00    -0.033 S 
ENDROOT
BRANCH   1   6
ATOM      6  S   UNL     1       1.385   3.785   0.009  0.00  0.00    -0.088 S 
BRANCH   6   7
ATOM      7  C   UNL     1      -0.288   4.485   0.030  0.00  0.00    +0.172 C 
BRANCH   7  12
ATOM      8  N   UNL     1      -2.381   8.813   0.074  0.00  0.00    -0.299 N 
ATOM      9  C   UNL     1      -1.254   8.074   0.059  0.00  0.00    +0.306 C 
ATOM     10  O   UNL     1      -0.169   8.621   0.051  0.00  0.00    -0.252 OA
ATOM     11  N   UNL     1      -1.330   6.728   0.052  0.00  0.00    -0.240 N 
ATOM     12  C   UNL     1      -0.203   5.990   0.037  0.00  0.00    +0.231 C 
ATOM     13  O   UNL     1       0.880   6.536   0.029  0.00  0.00    -0.274 OA
ATOM     14  H   UNL     1      -3.247   8.376   0.080  0.00  0.00    +0.150 HD
ATOM     15  H   UNL     1      -2.196   6.292   0.059  0.00  0.00    +0.159 HD
BRANCH   8  16
ATOM     16  C   UNL     1      -2.298  10.275   0.081  0.00  0.00    +0.106 C 
BRANCH  16  17
ATOM     17  C   UNL     1      -3.709  10.866   0.099  0.00  0.00    +0.022 C 
BRANCH  17  19
ATOM     18  C   UNL     1      -2.999  12.875  -1.205  0.00  0.00    +0.007 C 
ATOM     19  C   UNL     1      -3.623  12.393   0.106  0.00  0.00    -0.016 C 
ATOM     20  C   UNL     1      -5.028  12.983   0.249  0.00  0.00    +0.007 C 
ENDBRANCH  17  19
ENDBRANCH  16  17
ENDBRANCH   8  16
ENDBRANCH   7  12
ENDBRANCH   6   7
ENDBRANCH   1   6
BRANCH   4  21
ATOM     21  S   UNL     1       1.469  -2.378  -0.025  0.00  0.00    -0.088 S 
BRANCH  21  22
ATOM     22  C   UNL     1      -0.185  -3.124  -0.013  0.00  0.00    +0.172 C 
BRANCH  22  23
ATOM     23  C   UNL     1      -0.059  -4.626  -0.023  0.00  0.00    +0.231 C 
ATOM     24  O   UNL     1       1.038  -5.142  -0.036  0.00  0.00    -0.274 OA
ATOM     25  N   UNL     1      -1.165  -5.395  -0.016  0.00  0.00    -0.240 N 
ATOM     26  C   UNL     1      -1.053  -6.738  -0.025  0.00  0.00    +0.306 C 
ATOM     27  O   UNL     1       0.047  -7.255  -0.039  0.00  0.00    -0.252 OA
ATOM     28  N   UNL     1      -2.160  -7.507  -0.018  0.00  0.00    -0.299 N 
ATOM     29  H   UNL     1      -2.043  -4.982  -0.005  0.00  0.00    +0.159 HD
ATOM     30  H   UNL     1      -3.037  -7.094  -0.007  0.00  0.00    +0.150 HD
BRANCH  28  31
ATOM     31  C   UNL     1      -2.037  -8.967  -0.028  0.00  0.00    +0.106 C 
BRANCH  31  32
ATOM     32  C   UNL     1      -3.432  -9.595  -0.018  0.00  0.00    +0.022 C 
BRANCH  32  33
ATOM     33  C   UNL     1      -3.304 -11.120  -0.028  0.00  0.00    -0.016 C 
ATOM     34  C   UNL     1      -4.692 -11.749   0.108  0.00  0.00    +0.007 C 
ATOM     35  C   UNL     1      -2.667 -11.570  -1.344  0.00  0.00    +0.007 C 
ENDBRANCH  32  33
ENDBRANCH  31  32
ENDBRANCH  28  31
ENDBRANCH  22  23
ENDBRANCH  21  22
ENDBRANCH   4  21
TORSDOF 12
