REMARK  Name = ZINC01490299
REMARK  6 active torsions:
REMARK  status: ('A' for Active; 'I' for Inactive)
REMARK    1  A    between atoms: C_1  and  C_2
REMARK    2  A    between atoms: C_2  and  C_3
REMARK    3  A    between atoms: C_2  and  C_4
REMARK    4  A    between atoms: C_7  and  C_10
REMARK    5  A    between atoms: C_10  and  N_11
REMARK    6  A    between atoms: N_24  and  C_25
REMARK                            x       y       z     vdW  Elec       q    Type
REMARK                         _______ _______ _______ _____ _____    ______ ____
ROOT
ATOM      1  N   UNL     1      -6.026  -1.365  -0.965  0.00  0.00    -0.342 N 
ATOM      2  C   UNL     1      -6.720  -0.450  -0.226  0.00  0.00    +0.087 A 
ATOM      3  C   UNL     1      -7.474   0.308  -1.042  0.00  0.00    +0.028 A 
ATOM      4  C   UNL     1      -7.257  -0.137  -2.367  0.00  0.00    +0.012 A 
ATOM      5  C   UNL     1      -6.335  -1.191  -2.297  0.00  0.00    +0.050 A 
ATOM      6  C   UNL     1      -5.920  -1.835  -3.466  0.00  0.00    +0.028 A 
ATOM      7  C   UNL     1      -6.385  -1.466  -4.687  0.00  0.00    +0.028 A 
ATOM      8  C   UNL     1      -7.307  -0.416  -4.824  0.00  0.00    +0.053 A 
ATOM      9  C   UNL     1      -7.766   0.264  -3.672  0.00  0.00    +0.047 A 
ATOM     10  C   UNL     1      -8.690   1.315  -3.833  0.00  0.00    +0.130 A 
ATOM     11  N   UNL     1      -9.100   1.613  -5.059  0.00  0.00    -0.201 NA
ATOM     12  C   UNL     1      -8.655   0.942  -6.117  0.00  0.00    +0.195 A 
ATOM     13  N   UNL     1      -7.776  -0.038  -6.022  0.00  0.00    -0.327 N 
ATOM     14  N   UNL     1      -9.119   1.298  -7.372  0.00  0.00    -0.312 N 
ATOM     15  N   UNL     1      -9.158   2.019  -2.741  0.00  0.00    -0.343 N 
ATOM     16  H   UNL     1      -9.691   2.074  -7.475  0.00  0.00    +0.149 HD
ATOM     17  H   UNL     1      -8.630   2.061  -1.928  0.00  0.00    +0.144 HD
ATOM     18  H   UNL     1     -10.015   2.471  -2.786  0.00  0.00    +0.144 HD
ATOM     19  H   UNL     1      -7.477  -0.496  -6.823  0.00  0.00    +0.169 HD
ENDROOT
BRANCH  14  20
ATOM     20  C   UNL     1      -8.747   0.501  -8.544  0.00  0.00    +0.073 C 
ATOM     21  C   UNL     1      -8.223   1.252  -9.770  0.00  0.00    +0.024 C 
ATOM     22  C   UNL     1      -9.621   0.631  -9.793  0.00  0.00    +0.024 C 
ENDBRANCH  14  20
BRANCH   1  23
ATOM     23  C   UNL     1      -5.098  -2.365  -0.430  0.00  0.00    +0.157 C 
BRANCH  23  27
ATOM     24  C   UNL     1      -1.110  -0.843  -0.595  0.00  0.00    -0.045 A 
ATOM     25  C   UNL     1      -1.888  -0.624   0.527  0.00  0.00    +0.004 A 
ATOM     26  C   UNL     1      -3.178  -1.116   0.581  0.00  0.00    +0.005 A 
ATOM     27  C   UNL     1      -3.692  -1.827  -0.488  0.00  0.00    -0.028 A 
ATOM     28  C   UNL     1      -2.914  -2.045  -1.611  0.00  0.00    +0.005 A 
ATOM     29  C   UNL     1      -1.625  -1.549  -1.665  0.00  0.00    +0.004 A 
BRANCH  24  31
ATOM     30  C   UNL     1       0.268   1.217  -0.508  0.00  0.00    +0.012 C 
ATOM     31  C   UNL     1       0.297  -0.306  -0.653  0.00  0.00    +0.013 C 
ATOM     32  C   UNL     1       1.121  -0.911   0.485  0.00  0.00    +0.012 C 
ENDBRANCH  24  31
ENDBRANCH  23  27
ENDBRANCH   1  23
TORSDOF 4
