REMARK  Name = ZINC63387329
REMARK  5 active torsions:
REMARK  status: ('A' for Active; 'I' for Inactive)
REMARK    1  A    between atoms: C_4  and  C_7
REMARK    2  A    between atoms: C_7  and  N_8
REMARK    3  A    between atoms: C_14  and  C_16
REMARK    4  A    between atoms: C_16  and  C_17
REMARK    5  A    between atoms: C_17  and  N_18
REMARK                            x       y       z     vdW  Elec       q    Type
REMARK                         _______ _______ _______ _____ _____    ______ ____
ROOT
ATOM      1  N   UNL     1      10.092  -2.454   5.455  0.00  0.00    -0.299 N 
ATOM      2  C   UNL     1      11.184  -2.263   6.222  0.00  0.00    +0.302 C 
ATOM      3  O   UNL     1      11.356  -1.197   6.780  0.00  0.00    -0.253 OA
ATOM      4  N   UNL     1      12.085  -3.255   6.370  0.00  0.00    -0.283 N 
ATOM      5  C   UNL     1      11.933  -4.494   5.600  0.00  0.00    +0.114 C 
ATOM      6  C   UNL     1      11.848  -5.690   6.565  0.00  0.00    +0.052 C 
ATOM      7  C   UNL     1      12.941  -5.500   7.587  0.00  0.00    -0.035 C 
ATOM      8  C   UNL     1      13.904  -6.312   8.004  0.00  0.00    +0.001 A 
ATOM      9  C   UNL     1      14.191  -7.725   7.705  0.00  0.00    +0.030 A 
ATOM     10  C   UNL     1      15.294  -8.252   8.302  0.00  0.00    +0.042 A 
ATOM     11  C   UNL     1      16.130  -7.522   9.156  0.00  0.00    +0.022 A 
ATOM     12  C   UNL     1      15.936  -6.222   9.492  0.00  0.00    +0.027 A 
ATOM     13  C   UNL     1      14.803  -5.562   8.932  0.00  0.00    +0.043 A 
ATOM     14  N   UNL     1      14.372  -4.346   9.099  0.00  0.00    -0.376 N 
ATOM     15  C   UNL     1      13.122  -4.194   8.353  0.00  0.00    +0.124 C 
ATOM     16  C   UNL     1      13.213  -3.080   7.298  0.00  0.00    +0.138 C 
ATOM     17 CL   UNL     1      15.685  -9.914   7.990  0.00  0.00    -0.084 Cl
ATOM     18  H   UNL     1       9.991  -3.276   4.951  0.00  0.00    +0.150 HD
ATOM     19  H   UNL     1      14.804  -3.658   9.628  0.00  0.00    +0.160 HD
ENDROOT
BRANCH   1  20
ATOM     20  C   UNL     1       9.059  -1.418   5.382  0.00  0.00    +0.115 C 
BRANCH  20  21
ATOM     21  C   UNL     1       7.937  -1.881   4.450  0.00  0.00    +0.114 C 
BRANCH  21  28
ATOM     22  N   UNL     1       4.142  -0.960   1.355  0.00  0.00    -0.295 NA
ATOM     23  C   UNL     1       4.450   0.302   2.041  0.00  0.00    +0.103 C 
ATOM     24  C   UNL     1       4.733   0.021   3.520  0.00  0.00    +0.123 C 
ATOM     25  N   UNL     1       5.782  -1.006   3.608  0.00  0.00    -0.299 N 
ATOM     26  C   UNL     1       5.609  -2.246   2.836  0.00  0.00    +0.123 C 
ATOM     27  C   UNL     1       5.291  -1.875   1.384  0.00  0.00    +0.103 C 
ATOM     28  C   UNL     1       6.874  -0.816   4.375  0.00  0.00    +0.217 C 
ATOM     29  O   UNL     1       7.001   0.213   5.005  0.00  0.00    -0.276 OA
BRANCH  22  30
ATOM     30  C   UNL     1       3.697  -0.716  -0.023  0.00  0.00    +0.119 C 
BRANCH  30  34
ATOM     31  C   UNL     1      -0.031   1.369   0.030  0.00  0.00    +0.000 A 
ATOM     32  C   UNL     1       1.157   2.076   0.019  0.00  0.00    +0.000 A 
ATOM     33  C   UNL     1       2.363   1.402   0.002  0.00  0.00    +0.005 A 
ATOM     34  C   UNL     1       2.382   0.019  -0.004  0.00  0.00    -0.033 A 
ATOM     35  C   UNL     1       1.195  -0.688   0.008  0.00  0.00    +0.005 A 
ATOM     36  C   UNL     1      -0.012  -0.013   0.024  0.00  0.00    +0.000 A 
ENDBRANCH  30  34
ENDBRANCH  22  30
ENDBRANCH  21  28
ENDBRANCH  20  21
ENDBRANCH   1  20
TORSDOF 5
