REMARK  Name = ZINC35810193
REMARK  6 active torsions:
REMARK  status: ('A' for Active; 'I' for Inactive)
REMARK    1  A    between atoms: N_11  and  C_12
REMARK    2  A    between atoms: N_11  and  C_19
REMARK    3  A    between atoms: C_12  and  C_13
REMARK    4  A    between atoms: C_19  and  N_20
REMARK    5  A    between atoms: N_29  and  C_30
REMARK    6  A    between atoms: C_30  and  C_31
REMARK                            x       y       z     vdW  Elec       q    Type
REMARK                         _______ _______ _______ _____ _____    ______ ____
ROOT
ATOM      1  C   UNL     1       3.008  -4.535   0.060  0.00  0.00    +0.236 C 
ENDROOT
BRANCH   1   2
ATOM      2  N   UNL     1       2.777  -5.081  -1.280  0.00  0.00    -0.297 N 
ATOM      3  C   UNL     1       1.704  -4.799  -2.108  0.00  0.00    +0.069 A 
ATOM      4  C   UNL     1       0.584  -3.991  -1.989  0.00  0.00    +0.028 A 
ATOM      5  C   UNL     1      -0.328  -3.924  -3.022  0.00  0.00    +0.002 A 
ATOM      6  C   UNL     1      -0.132  -4.660  -4.181  0.00  0.00    +0.002 A 
ATOM      7  C   UNL     1       0.975  -5.468  -4.317  0.00  0.00    +0.028 A 
ATOM      8  C   UNL     1       1.908  -5.547  -3.280  0.00  0.00    +0.066 A 
ATOM      9  N   UNL     1       3.068  -6.236  -3.118  0.00  0.00    -0.327 N 
ATOM     10  C   UNL     1       3.584  -5.959  -1.946  0.00  0.00    +0.176 A 
ATOM     11  N   UNL     1       4.763  -6.479  -1.457  0.00  0.00    -0.314 N 
ATOM     12  H   UNL     1       5.077  -6.225  -0.575  0.00  0.00    +0.149 HD
ATOM     13  H   UNL     1       3.457  -6.837  -3.772  0.00  0.00    +0.169 HD
BRANCH  11  14
ATOM     14  C   UNL     1       5.543  -7.416  -2.269  0.00  0.00    +0.135 C 
BRANCH  14  15
ATOM     15  C   UNL     1       6.796  -7.838  -1.499  0.00  0.00    +0.135 C 
ATOM     16  C   UNL     1       7.685  -8.730  -2.393  0.00  0.00    +0.035 C 
ATOM     17  C   UNL     1       8.196  -9.798  -1.389  0.00  0.00    +0.031 C 
ATOM     18  C   UNL     1       6.968  -9.936  -0.455  0.00  0.00    +0.160 C 
ATOM     19  O   UNL     1       6.424  -8.609  -0.350  0.00  0.00    -0.375 OA
ENDBRANCH  14  15
ENDBRANCH  11  14
ENDBRANCH   1   2
BRANCH   1  30
ATOM     20  C   UNL     1       0.540   1.621  -0.241  0.00  0.00    +0.002 A 
ATOM     21  C   UNL     1       1.778   2.215  -0.438  0.00  0.00    +0.002 A 
ATOM     22  C   UNL     1       2.922   1.450  -0.476  0.00  0.00    +0.030 A 
ATOM     23  C   UNL     1       2.836   0.065  -0.314  0.00  0.00    +0.091 A 
ATOM     24  C   UNL     1       1.580  -0.531  -0.114  0.00  0.00    +0.067 A 
ATOM     25  C   UNL     1       0.438   0.255  -0.080  0.00  0.00    +0.028 A 
ATOM     26  N   UNL     1       1.814  -1.890   0.011  0.00  0.00    -0.326 N 
ATOM     27  H   UNL     1       1.146  -2.578   0.158  0.00  0.00    +0.169 HD
ATOM     28  C   UNL     1       3.161  -2.082  -0.111  0.00  0.00    +0.198 A 
ATOM     29  N   UNL     1       3.759  -0.933  -0.302  0.00  0.00    -0.214 NA
ATOM     30  N   UNL     1       3.796  -3.304  -0.043  0.00  0.00    -0.281 N 
BRANCH  30  31
ATOM     31  C   UNL     1       5.259  -3.372  -0.075  0.00  0.00    +0.141 C 
BRANCH  31  32
ATOM     32  C   UNL     1       5.804  -3.297   1.353  0.00  0.00    +0.136 C 
ATOM     33  C   UNL     1       7.353  -3.332   1.339  0.00  0.00    +0.035 C 
ATOM     34  C   UNL     1       7.675  -2.620   2.682  0.00  0.00    +0.031 C 
ATOM     35  C   UNL     1       6.535  -1.585   2.786  0.00  0.00    +0.160 C 
ATOM     36  O   UNL     1       5.460  -2.038   1.952  0.00  0.00    -0.375 OA
ENDBRANCH  31  32
ENDBRANCH  30  31
ENDBRANCH   1  30
TORSDOF 6
