REMARK  Name = ZINC15631001
REMARK  6 active torsions:
REMARK  status: ('A' for Active; 'I' for Inactive)
REMARK    1  A    between atoms: C_3  and  N_9
REMARK    2  A    between atoms: C_10  and  C_12
REMARK    3  A    between atoms: C_12  and  C_13
REMARK    4  A    between atoms: C_13  and  S_14
REMARK    5  A    between atoms: S_14  and  C_15
REMARK    6  A    between atoms: C_15  and  C_16
REMARK                            x       y       z     vdW  Elec       q    Type
REMARK                         _______ _______ _______ _____ _____    ______ ____
ROOT
ATOM      1  S   UNL     1       0.001  -0.003   0.040  0.00  0.00    -0.153 S 
ENDROOT
BRANCH   1   2
ATOM      2  C   UNL     1      -0.023   1.811   0.036  0.00  0.00    +0.079 C 
BRANCH   2   3
ATOM      3  C   UNL     1       1.412   2.340   0.019  0.00  0.00    +0.107 C 
BRANCH   3   5
ATOM      4  N   UNL     1       2.550   4.536   0.002  0.00  0.00    -0.284 N 
ATOM      5  C   UNL     1       1.392   3.847   0.016  0.00  0.00    +0.218 C 
ATOM      6  O   UNL     1       0.334   4.439   0.025  0.00  0.00    -0.275 OA
ATOM      7  H   UNL     1       3.396   4.064   0.060  0.00  0.00    +0.155 HD
BRANCH   4  10
ATOM      8  C   UNL     1       1.501   8.037   0.411  0.00  0.00    +0.022 A 
ATOM      9  C   UNL     1       1.516   6.659   0.509  0.00  0.00    +0.026 A 
ATOM     10  C   UNL     1       2.533   5.933  -0.096  0.00  0.00    +0.052 A 
ATOM     11  C   UNL     1       3.536   6.594  -0.794  0.00  0.00    +0.064 A 
ATOM     12  C   UNL     1       3.513   7.972  -0.893  0.00  0.00    +0.041 A 
ATOM     13  C   UNL     1       2.498   8.694  -0.289  0.00  0.00    +0.042 A 
ATOM     14 CL   UNL     1       2.476  10.425  -0.409  0.00  0.00    -0.083 Cl
ATOM     15 CL   UNL     1       4.813   5.690  -1.546  0.00  0.00    -0.082 Cl
ENDBRANCH   4  10
ENDBRANCH   3   5
ENDBRANCH   2   3
ENDBRANCH   1   2
BRANCH   1  16
ATOM     16  C   UNL     1      -1.753  -0.465   0.059  0.00  0.00    +0.143 C 
BRANCH  16  17
ATOM     17  C   UNL     1      -1.877  -1.967   0.064  0.00  0.00    +0.121 A 
ATOM     18  N   UNL     1      -3.111  -2.534   0.079  0.00  0.00    -0.310 N 
ATOM     19  H   UNL     1      -3.896  -1.964   0.086  0.00  0.00    +0.170 HD
ATOM     20  C   UNL     1      -3.267  -3.871   0.083  0.00  0.00    +0.260 A 
ATOM     21  O   UNL     1      -4.381  -4.366   0.097  0.00  0.00    -0.267 OA
ATOM     22  C   UNL     1      -2.099  -4.701   0.073  0.00  0.00    +0.075 A 
ATOM     23  C   UNL     1      -2.032  -6.170   0.076  0.00  0.00    -0.023 A 
ATOM     24  C   UNL     1      -0.806  -6.722   0.063  0.00  0.00    -0.004 A 
ATOM     25  S   UNL     1       0.318  -5.344   0.048  0.00  0.00    -0.073 S 
ATOM     26  C   UNL     1      -0.871  -4.028   0.058  0.00  0.00    +0.116 A 
ATOM     27  N   UNL     1      -0.795  -2.699   0.049  0.00  0.00    -0.226 NA
ATOM     28  C   UNL     1      -0.860  -8.226   0.063  0.00  0.00    +0.043 C 
ATOM     29  C   UNL     1      -2.308  -8.562  -0.356  0.00  0.00    +0.010 C 
ATOM     30  C   UNL     1      -3.067  -7.299   0.097  0.00  0.00    +0.037 C 
ENDBRANCH  16  17
ENDBRANCH   1  16
TORSDOF 6
