REMARK  Name = ZINC41364775
REMARK  3 active torsions:
REMARK  status: ('A' for Active; 'I' for Inactive)
REMARK    1  A    between atoms: C_6  and  N_7
REMARK    2  A    between atoms: N_12  and  S_16
REMARK    3  A    between atoms: S_16  and  C_19
REMARK                            x       y       z     vdW  Elec       q    Type
REMARK                         _______ _______ _______ _____ _____    ______ ____
ROOT
ATOM      1  C   UNL     1      -0.031   1.357  -0.130  0.00  0.00    +0.023 A 
ATOM      2  C   UNL     1       1.147   2.074  -0.091  0.00  0.00    +0.007 A 
ATOM      3  C   UNL     1       2.367   1.418  -0.058  0.00  0.00    -0.025 A 
ATOM      4  C   UNL     1       2.401   0.031  -0.063  0.00  0.00    +0.056 A 
ATOM      5  C   UNL     1       1.217  -0.695  -0.105  0.00  0.00    +0.048 A 
ATOM      6  C   UNL     1      -0.001  -0.033  -0.138  0.00  0.00    +0.032 A 
ATOM      7  N   UNL     1       3.619  -0.657  -0.022  0.00  0.00    -0.202 N 
ATOM      8  C   UNL     1       4.862   0.084  -0.277  0.00  0.00    +0.132 C 
ATOM      9  C   UNL     1       4.794   1.399   0.512  0.00  0.00    +0.025 C 
ATOM     10  C   UNL     1       3.631   2.235  -0.022  0.00  0.00    +0.038 C 
ENDROOT
BRANCH   6  11
ATOM     11  N   UNL     1      -1.193  -0.759  -0.179  0.00  0.00    -0.330 N 
ATOM     12  C   UNL     1      -1.303  -2.225  -0.185  0.00  0.00    +0.105 C 
ATOM     13  C   UNL     1      -2.805  -2.572  -0.262  0.00  0.00    +0.020 C 
ATOM     14  C   UNL     1      -3.428  -1.285  -0.865  0.00  0.00    +0.020 C 
ATOM     15  C   UNL     1      -2.550  -0.183  -0.216  0.00  0.00    +0.105 C 
ENDBRANCH   6  11
BRANCH   7  16
ATOM     16  S   UNL     1       3.659  -2.279   0.309  0.00  0.00    +0.081 S 
ATOM     17  O   UNL     1       5.000  -2.589   0.660  0.00  0.00    -0.149 OA
ATOM     18  O   UNL     1       2.564  -2.544   1.175  0.00  0.00    -0.149 OA
BRANCH  16  19
ATOM     19  C   UNL     1       3.325  -3.127  -1.199  0.00  0.00    +0.147 A 
ATOM     20  C   UNL     1       4.194  -3.561  -2.144  0.00  0.00    +0.038 A 
ATOM     21  C   UNL     1       3.700  -4.211  -3.261  0.00  0.00    +0.030 A 
ATOM     22  C   UNL     1       2.361  -4.394  -3.376  0.00  0.00    +0.080 A 
ATOM     23  S   UNL     1       1.755  -3.643  -1.875  0.00  0.00    -0.057 S 
ATOM     24 CL   UNL     1       1.469  -5.164  -4.651  0.00  0.00    -0.076 Cl
ENDBRANCH  16  19
ENDBRANCH   7  16
TORSDOF 3
