REMARK  Name = ZINC63686285
REMARK  4 active torsions:
REMARK  status: ('A' for Active; 'I' for Inactive)
REMARK    1  A    between atoms: C_6  and  C_7
REMARK    2  A    between atoms: N_9  and  C_10
REMARK    3  A    between atoms: C_10  and  C_11
REMARK    4  A    between atoms: C_11  and  C_12
REMARK                            x       y       z     vdW  Elec       q    Type
REMARK                         _______ _______ _______ _____ _____    ______ ____
ROOT
ATOM      1  C   UNL     1      -1.265  -0.760   0.023  0.00  0.00    +0.244 C 
ATOM      2  O   UNL     1      -1.248  -1.976   0.017  0.00  0.00    -0.270 OA
ATOM      3  N   UNL     1      -2.441  -0.103   0.050  0.00  0.00    -0.311 N 
ATOM      4  H   UNL     1      -2.455   0.867   0.056  0.00  0.00    +0.149 HD
ENDROOT
BRANCH   1  10
ATOM      5  C   UNL     1      -0.017   1.393   0.010  0.00  0.00    +0.015 A 
ATOM      6  C   UNL     1       1.167   2.097   0.002  0.00  0.00    +0.026 A 
ATOM      7  C   UNL     1       2.382   1.421  -0.026  0.00  0.00    +0.052 A 
ATOM      8  C   UNL     1       2.409   0.028  -0.051  0.00  0.00    +0.051 A 
ATOM      9  C   UNL     1       1.223  -0.685  -0.025  0.00  0.00    +0.038 A 
ATOM     10  C   UNL     1       0.002  -0.004   0.002  0.00  0.00    +0.039 A 
ATOM     11  N   UNL     1       3.740  -0.412  -0.131  0.00  0.00    -0.324 N 
ATOM     12  C   UNL     1       4.554   0.792  -0.273  0.00  0.00    +0.158 C 
ATOM     13  N   UNL     1       3.700   1.933   0.007  0.00  0.00    -0.310 N 
ATOM     14  C   UNL     1       3.961   3.317   0.341  0.00  0.00    +0.107 C 
ATOM     15  C   UNL     1       4.150   3.462   1.864  0.00  0.00    +0.019 C 
ATOM     16  C   UNL     1       5.358   2.671   2.255  0.00  0.00    +0.002 C 
ATOM     17  C   UNL     1       5.256   1.178   2.063  0.00  0.00    +0.003 C 
ATOM     18  C   UNL     1       5.746   0.776   0.711  0.00  0.00    +0.042 C 
ATOM     19  H   UNL     1       4.055  -1.329  -0.098  0.00  0.00    +0.148 HD
ENDBRANCH   1  10
BRANCH   3  20
ATOM     20  C   UNL     1      -3.699  -0.853   0.071  0.00  0.00    +0.109 C 
BRANCH  20  21
ATOM     21  C   UNL     1      -4.876   0.124   0.100  0.00  0.00    +0.052 C 
BRANCH  21  22
ATOM     22  C   UNL     1      -6.170  -0.648   0.122  0.00  0.00    -0.040 C 
ATOM     23  C   UNL     1      -6.898  -0.984   1.211  0.00  0.00    +0.000 A 
ATOM     24  C   UNL     1      -6.709  -0.742   2.646  0.00  0.00    +0.030 A 
ATOM     25  C   UNL     1      -7.630  -1.215   3.518  0.00  0.00    +0.042 A 
ATOM     26  C   UNL     1      -8.757  -1.929   3.084  0.00  0.00    +0.022 A 
ATOM     27  C   UNL     1      -8.998  -2.190   1.783  0.00  0.00    +0.027 A 
ATOM     28  C   UNL     1      -8.095  -1.740   0.780  0.00  0.00    +0.043 A 
ATOM     29  N   UNL     1      -8.108  -1.865  -0.525  0.00  0.00    -0.380 N 
ATOM     30  C   UNL     1      -6.921  -1.197  -1.071  0.00  0.00    +0.144 C 
ATOM     31 CL   UNL     1      -7.410  -0.931   5.216  0.00  0.00    -0.084 Cl
ATOM     32  H   UNL     1      -8.790  -2.321  -1.044  0.00  0.00    +0.160 HD
ENDBRANCH  21  22
ENDBRANCH  20  21
ENDBRANCH   3  20
TORSDOF 4
