REMARK  Name = ZINC37380296
REMARK  5 active torsions:
REMARK  status: ('A' for Active; 'I' for Inactive)
REMARK    1  A    between atoms: C_4  and  O_17
REMARK    2  A    between atoms: C_5  and  C_7
REMARK    3  A    between atoms: C_7  and  C_9
REMARK    4  A    between atoms: C_7  and  N_16
REMARK    5  A    between atoms: O_17  and  C_18
REMARK                            x       y       z     vdW  Elec       q    Type
REMARK                         _______ _______ _______ _____ _____    ______ ____
ROOT
ATOM      1  C   UNL     1       1.227  -2.187  -0.022  0.00  0.00    -0.008 C 
ENDROOT
BRANCH   1   2
ATOM      2  C   UNL     1       1.494  -2.693   1.372  0.00  0.00    -0.035 A 
ATOM      3  C   UNL     1       1.273  -1.881   2.469  0.00  0.00    +0.026 A 
ATOM      4  C   UNL     1       1.524  -2.369   3.709  0.00  0.00    +0.056 A 
ATOM      5  S   UNL     1       2.091  -4.023   3.348  0.00  0.00    -0.074 S 
ATOM      6  C   UNL     1       1.950  -3.955   1.570  0.00  0.00    +0.058 A 
ATOM      7 BR   UNL     1       2.338  -5.295   0.293  0.00  0.00    -0.042 Br
ATOM      8 BR   UNL     1       1.325  -1.517   5.386  0.00  0.00    -0.043 Br
ENDBRANCH   1   2
BRANCH   1  13
ATOM      9  C   UNL     1      -0.187   1.311   0.137  0.00  0.00    +0.000 A 
ATOM     10  C   UNL     1       0.959   2.080   0.040  0.00  0.00    +0.004 A 
ATOM     11  C   UNL     1       2.193   1.471  -0.078  0.00  0.00    +0.046 A 
ATOM     12  C   UNL     1       2.283   0.086  -0.098  0.00  0.00    +0.129 A 
ATOM     13  C   UNL     1       1.133  -0.683   0.000  0.00  0.00    -0.016 A 
ATOM     14  C   UNL     1      -0.100  -0.069   0.117  0.00  0.00    +0.006 A 
BRANCH  12  15
ATOM     15  O   UNL     1       3.496  -0.515  -0.215  0.00  0.00    -0.434 OA
BRANCH  15  16
ATOM     16  C   UNL     1       4.637   0.340  -0.312  0.00  0.00    +0.541 C 
ATOM     17  F   UNL     1       4.513   1.157  -1.441  0.00  0.00    -0.166 F 
ATOM     18  F   UNL     1       4.721   1.137   0.834  0.00  0.00    -0.166 F 
ENDBRANCH  15  16
ENDBRANCH  12  15
ENDBRANCH   1  13
BRANCH   1  19
ATOM     19  N   UNL     1      -0.038  -2.749  -0.513  0.00  0.00    +0.385 N 
ATOM     20  H   UNL     1       0.025  -3.756  -0.528  0.00  0.00    -0.089 HD
ATOM     21  H   UNL     1      -0.791  -2.468   0.097  0.00  0.00    -0.089 HD
ATOM     22  H   UNL     1      -0.217  -2.410  -1.446  0.00  0.00    -0.089 HD
ENDBRANCH   1  19
TORSDOF 5
