REMARK  Name = ZINC36366824
REMARK  5 active torsions:
REMARK  status: ('A' for Active; 'I' for Inactive)
REMARK    1  A    between atoms: C_1  and  C_2
REMARK    2  A    between atoms: C_2  and  N_3
REMARK    3  A    between atoms: C_4  and  C_24
REMARK    4  A    between atoms: C_6  and  C_8
REMARK    5  A    between atoms: C_11  and  C_16
REMARK                            x       y       z     vdW  Elec       q    Type
REMARK                         _______ _______ _______ _____ _____    ______ ____
ROOT
ATOM      1  C   UNL     1      -4.455  -1.641  -1.568  0.00  0.00    +0.152 A 
ATOM      2  N   UNL     1      -5.640  -2.074  -1.221  0.00  0.00    -0.154 NA
ATOM      3  N   UNL     1      -6.587  -2.419  -2.176  0.00  0.00    -0.185 N 
ATOM      4  C   UNL     1      -7.888  -2.894  -2.254  0.00  0.00    +0.189 A 
ATOM      5  N   UNL     1      -8.198  -3.007  -3.525  0.00  0.00    -0.126 NA
ATOM      6  N   UNL     1      -7.200  -2.643  -4.253  0.00  0.00    -0.120 NA
ATOM      7  C   UNL     1      -6.212  -2.283  -3.490  0.00  0.00    +0.219 A 
ATOM      8  S   UNL     1      -4.551  -1.669  -3.351  0.00  0.00    -0.025 S 
ENDROOT
BRANCH   4   9
ATOM      9  C   UNL     1      -8.768  -3.215  -1.111  0.00  0.00    +0.058 A 
ATOM     10  C   UNL     1      -8.311  -3.042   0.196  0.00  0.00    +0.034 A 
ATOM     11  C   UNL     1      -9.139  -3.344   1.259  0.00  0.00    +0.042 A 
ATOM     12  C   UNL     1     -10.420  -3.818   1.032  0.00  0.00    +0.023 A 
ATOM     13  C   UNL     1     -10.880  -3.992  -0.261  0.00  0.00    +0.040 A 
ATOM     14  C   UNL     1     -10.065  -3.688  -1.335  0.00  0.00    +0.134 A 
ATOM     15  F   UNL     1     -10.518  -3.853  -2.597  0.00  0.00    -0.205 F 
ATOM     16 CL   UNL     1      -8.571  -3.130   2.886  0.00  0.00    -0.084 Cl
ENDBRANCH   4   9
BRANCH   1  20
ATOM     17  N   UNL     1      -1.372  -0.511   0.012  0.00  0.00    -0.268 N 
ATOM     18  C   UNL     1      -2.107  -0.786   1.112  0.00  0.00    +0.037 A 
ATOM     19  C   UNL     1      -3.316  -1.230   0.706  0.00  0.00    +0.055 A 
ATOM     20  C   UNL     1      -3.326  -1.228  -0.704  0.00  0.00    +0.120 A 
ATOM     21  N   UNL     1      -2.154  -0.789  -1.116  0.00  0.00    -0.169 NA
ATOM     22  C   UNL     1      -1.657  -0.626   2.541  0.00  0.00    +0.065 C 
BRANCH  17  24
ATOM     23  C   UNL     1      -0.019   1.526   0.010  0.00  0.00    +0.029 C 
ATOM     24  C   UNL     1       0.002  -0.004   0.002  0.00  0.00    +0.140 C 
ENDBRANCH  17  24
ENDBRANCH   1  20
TORSDOF 3
