REMARK  Name = ZINC63833102
REMARK  7 active torsions:
REMARK  status: ('A' for Active; 'I' for Inactive)
REMARK    1  A    between atoms: C_6  and  C_7
REMARK    2  A    between atoms: C_11  and  C_13
REMARK    3  A    between atoms: C_13  and  N_14
REMARK    4  A    between atoms: C_15  and  C_17
REMARK    5  A    between atoms: C_17  and  S_18
REMARK    6  A    between atoms: S_18  and  C_19
REMARK    7  A    between atoms: C_23  and  N_26
REMARK                            x       y       z     vdW  Elec       q    Type
REMARK                         _______ _______ _______ _____ _____    ______ ____
ROOT
ATOM      1  N   UNL     1      -0.856  -4.344   1.164  0.00  0.00    -0.314 N 
ATOM      2  C   UNL     1      -0.356  -5.103   2.159  0.00  0.00    +0.223 C 
ATOM      3  O   UNL     1       0.150  -4.577   3.128  0.00  0.00    -0.275 OA
ATOM      4  H   UNL     1      -1.260  -4.765   0.389  0.00  0.00    +0.149 HD
ENDROOT
BRANCH   1   5
ATOM      5  C   UNL     1      -0.790  -2.884   1.253  0.00  0.00    +0.119 C 
BRANCH   5  10
ATOM      6  C   UNL     1      -1.260  -0.760   0.011  0.00  0.00    +0.080 C 
ATOM      7  N   UNL     1      -2.470  -0.272   0.019  0.00  0.00    -0.153 NA
ATOM      8  N   UNL     1      -3.439  -1.270   0.026  0.00  0.00    -0.161 NA
ATOM      9  C   UNL     1      -2.927  -2.457   0.021  0.00  0.00    +0.119 C 
ATOM     10  C   UNL     1      -1.423  -2.267   0.004  0.00  0.00    +0.100 C 
BRANCH   6  16
ATOM     11  C   UNL     1      -0.017   1.395   0.010  0.00  0.00    +0.012 A 
ATOM     12  C   UNL     1       1.169   2.097   0.002  0.00  0.00    +0.039 A 
ATOM     13  C   UNL     1       2.379   1.420  -0.013  0.00  0.00    +0.123 A 
ATOM     14  C   UNL     1       2.405   0.033  -0.022  0.00  0.00    +0.039 A 
ATOM     15  C   UNL     1       1.226  -0.681  -0.014  0.00  0.00    +0.012 A 
ATOM     16  C   UNL     1       0.002  -0.004   0.002  0.00  0.00    -0.001 A 
ATOM     17  F   UNL     1       3.538   2.114  -0.021  0.00  0.00    -0.205 F 
ENDBRANCH   6  16
ENDBRANCH   5  10
ENDBRANCH   1   5
BRANCH   2  18
ATOM     18  C   UNL     1      -0.424  -6.606   2.067  0.00  0.00    +0.167 C 
BRANCH  18  19
ATOM     19  S   UNL     1       0.327  -7.337   3.548  0.00  0.00    -0.121 S 
BRANCH  19  20
ATOM     20  C   UNL     1       0.167  -9.124   3.285  0.00  0.00    +0.187 C 
ATOM     21  N   UNL     1      -1.258  -9.516   3.043  0.00  0.00    -0.232 NA
ATOM     22  N   UNL     1      -1.312 -10.797   2.350  0.00  0.00    -0.229 NA
ATOM     23  C   UNL     1      -0.418 -10.820   1.159  0.00  0.00    +0.195 C 
ATOM     24  S   UNL     1       0.900  -9.636   1.670  0.00  0.00    -0.095 S 
ATOM     25  H   UNL     1      -1.745  -8.802   2.522  0.00  0.00    +0.143 HD
ATOM     26  H   UNL     1      -1.097 -11.558   2.978  0.00  0.00    +0.143 HD
BRANCH  23  27
ATOM     27  N   UNL     1       0.136 -12.163   0.940  0.00  0.00    -0.306 NA
ATOM     28  H   UNL     1       0.742 -12.178   0.133  0.00  0.00    +0.120 HD
ATOM     29  H   UNL     1       0.621 -12.492   1.762  0.00  0.00    +0.120 HD
ENDBRANCH  23  27
ENDBRANCH  19  20
ENDBRANCH  18  19
ENDBRANCH   2  18
TORSDOF 7
