REMARK  Name = ZINC59001181
REMARK  6 active torsions:
REMARK  status: ('A' for Active; 'I' for Inactive)
REMARK    1  A    between atoms: C_8  and  C_10
REMARK    2  A    between atoms: C_13  and  C_16
REMARK    3  A    between atoms: C_21  and  C_23
REMARK    4  A    between atoms: C_23  and  N_24
REMARK    5  A    between atoms: N_24  and  C_25
REMARK    6  A    between atoms: C_30  and  N_31
REMARK                            x       y       z     vdW  Elec       q    Type
REMARK                         _______ _______ _______ _____ _____    ______ ____
ROOT
ATOM      1  C   UNL     1       3.839  -3.435   1.028  0.00  0.00    +0.104 C 
ATOM      2  N   UNL     1       3.381  -4.624   0.823  0.00  0.00    -0.178 NA
ATOM      3  N   UNL     1       4.364  -5.573   0.552  0.00  0.00    -0.181 N 
ATOM      4  C   UNL     1       5.681  -4.917   0.582  0.00  0.00    +0.173 C 
ATOM      5  C   UNL     1       5.346  -3.446   0.900  0.00  0.00    +0.093 C 
ATOM      6  C   UNL     1       4.145  -6.880   0.305  0.00  0.00    +0.252 C 
ATOM      7  O   UNL     1       5.080  -7.620   0.081  0.00  0.00    -0.272 OA
ENDROOT
BRANCH   1  15
ATOM      8  C   UNL     1       0.076   1.128   2.252  0.00  0.00    +0.001 A 
ATOM      9  C   UNL     1       1.264   1.843   2.296  0.00  0.00    +0.004 A 
ATOM     10  C   UNL     1       2.472   1.216   2.071  0.00  0.00    +0.047 A 
ATOM     11  C   UNL     1       2.505  -0.145   1.796  0.00  0.00    +0.136 A 
ATOM     12  C   UNL     1       1.297  -0.865   1.753  0.00  0.00    +0.021 A 
ATOM     13  C   UNL     1       0.084  -0.213   1.984  0.00  0.00    +0.011 A 
ATOM     14  C   UNL     1       1.670  -2.246   1.446  0.00  0.00    +0.059 A 
ATOM     15  C   UNL     1       3.024  -2.254   1.332  0.00  0.00    +0.152 A 
ATOM     16  O   UNL     1       3.506  -1.011   1.540  0.00  0.00    -0.454 OA
ENDBRANCH   1  15
BRANCH   4  17
ATOM     17  C   UNL     1       6.548  -5.517   1.658  0.00  0.00    +0.128 A 
ATOM     18  C   UNL     1       7.870  -5.747   1.566  0.00  0.00    +0.046 A 
ATOM     19  C   UNL     1       8.274  -6.314   2.796  0.00  0.00    +0.041 A 
ATOM     20  C   UNL     1       7.175  -6.397   3.567  0.00  0.00    +0.195 A 
ATOM     21  O   UNL     1       6.133  -5.907   2.874  0.00  0.00    -0.466 OA
ENDBRANCH   4  17
BRANCH   6  22
ATOM     22  C   UNL     1       2.739  -7.422   0.306  0.00  0.00    +0.199 C 
BRANCH  22  23
ATOM     23  N   UNL     1       2.768  -8.857   0.013  0.00  0.00    -0.334 N 
ATOM     24  H   UNL     1       3.615  -9.303  -0.144  0.00  0.00    +0.147 HD
BRANCH  23  25
ATOM     25  C   UNL     1       1.575  -9.584  -0.041  0.00  0.00    +0.053 A 
ATOM     26  C   UNL     1       0.356  -8.930   0.069  0.00  0.00    +0.025 A 
ATOM     27  C   UNL     1      -0.821  -9.651   0.016  0.00  0.00    +0.002 A 
ATOM     28  C   UNL     1      -0.790 -11.024  -0.148  0.00  0.00    +0.002 A 
ATOM     29  C   UNL     1       0.420 -11.683  -0.258  0.00  0.00    +0.029 A 
ATOM     30  C   UNL     1       1.607 -10.967  -0.211  0.00  0.00    +0.086 A 
BRANCH  30  31
ATOM     31  N   UNL     1       2.836 -11.634  -0.329  0.00  0.00    -0.238 N 
ATOM     32  C   UNL     1       3.155 -12.554  -1.266  0.00  0.00    +0.114 A 
ATOM     33  C   UNL     1       4.427 -12.953  -1.036  0.00  0.00    +0.041 A 
ATOM     34  C   UNL     1       4.902 -12.255   0.080  0.00  0.00    +0.135 A 
ATOM     35  N   UNL     1       3.951 -11.460   0.500  0.00  0.00    -0.175 NA
ENDBRANCH  30  31
ENDBRANCH  23  25
ENDBRANCH  22  23
ENDBRANCH   6  22
TORSDOF 6
