REMARK  Name = ZINC06511210
REMARK  15 active torsions:
REMARK  status: ('A' for Active; 'I' for Inactive)
REMARK    1  A    between atoms: C_1  and  C_2
REMARK    2  A    between atoms: C_2  and  N_78
REMARK    3  A    between atoms: C_3  and  C_4
REMARK    4  A    between atoms: C_3  and  N_78
REMARK    5  A    between atoms: C_5  and  C_6
REMARK    6  A    between atoms: C_5  and  N_78
REMARK    7  A    between atoms: C_6  and  C_7
REMARK    8  A    between atoms: C_7  and  N_8
REMARK    9  A    between atoms: N_8  and  C_9
REMARK   10  A    between atoms: C_9  and  C_11
REMARK   11  A    between atoms: C_9  and  C_18
REMARK   12  A    between atoms: N_20  and  C_21
REMARK   13  A    between atoms: C_21  and  C_22
REMARK   14  A    between atoms: C_28  and  C_30
REMARK   15  A    between atoms: C_33  and  C_36
REMARK                            x       y       z     vdW  Elec       q    Type
REMARK                         _______ _______ _______ _____ _____    ______ ____
ROOT
ATOM      1  N   UNL     1       3.685   3.551   0.723  0.00  0.00    -0.281 N 
ATOM      2  C   UNL     1       4.461   3.485   1.823  0.00  0.00    +0.264 C 
ATOM      3  O   UNL     1       5.199   2.532   1.992  0.00  0.00    -0.268 OA
ENDROOT
BRANCH   2   4
ATOM      4  C   UNL     1       4.417   4.563   2.817  0.00  0.00    +0.102 A 
ATOM      5  C   UNL     1       5.237   4.682   3.921  0.00  0.00    +0.033 A 
ATOM      6  C   UNL     1       4.864   5.845   4.594  0.00  0.00    +0.028 A 
ATOM      7  C   UNL     1       3.818   6.413   3.899  0.00  0.00    +0.047 A 
ATOM      8  N   UNL     1       3.547   5.630   2.815  0.00  0.00    -0.351 N 
ATOM      9  H   UNL     1       2.857   5.797   2.154  0.00  0.00    +0.166 HD
BRANCH   7  10
ATOM     10  C   UNL     1       3.111   7.658   4.265  0.00  0.00    -0.002 A 
ATOM     11  C   UNL     1       2.071   8.135   3.465  0.00  0.00    +0.010 A 
ATOM     12  C   UNL     1       1.411   9.294   3.816  0.00  0.00    +0.001 A 
ATOM     13  C   UNL     1       1.785   9.990   4.952  0.00  0.00    +0.000 A 
ATOM     14  C   UNL     1       2.819   9.526   5.746  0.00  0.00    +0.001 A 
ATOM     15  C   UNL     1       3.483   8.365   5.410  0.00  0.00    +0.010 A 
ENDBRANCH   7  10
ENDBRANCH   2   4
BRANCH   1  16
ATOM     16  C   UNL     1       2.726   4.647   0.568  0.00  0.00    +0.107 C 
BRANCH  16  17
ATOM     17  C   UNL     1       3.479   5.947   0.280  0.00  0.00    +0.000 C 
BRANCH  17  18
ATOM     18  C   UNL     1       2.476   7.081   0.062  0.00  0.00    -0.077 C 
BRANCH  18  19
ATOM     19  N   UNL     1       3.217   8.322  -0.246  0.00  0.00    +0.379 N 
ATOM     20  H   UNL     1       3.933   8.470   0.475  0.00  0.00    -0.082 HD
BRANCH  19  22
ATOM     21  C   UNL     1       2.840   8.059  -2.675  0.00  0.00    -0.017 C 
ATOM     22  C   UNL     1       3.880   8.201  -1.562  0.00  0.00    -0.082 C 
ENDBRANCH  19  22
BRANCH  19  23
ATOM     23  C   UNL     1       2.293   9.475  -0.250  0.00  0.00    -0.082 C 
ATOM     24  C   UNL     1       3.103  10.758  -0.447  0.00  0.00    -0.017 C 
ENDBRANCH  19  23
ENDBRANCH  18  19
ENDBRANCH  17  18
ENDBRANCH  16  17
ENDBRANCH   1  16
BRANCH   1  25
ATOM     25  C   UNL     1       3.801   2.526  -0.317  0.00  0.00    +0.192 C 
BRANCH  25  26
ATOM     26  C   UNL     1       2.596   1.623  -0.269  0.00  0.00    -0.018 A 
ATOM     27  C   UNL     1       1.390   2.105   0.205  0.00  0.00    +0.009 A 
ATOM     28  C   UNL     1       0.283   1.279   0.249  0.00  0.00    +0.038 A 
ATOM     29  C   UNL     1       0.383  -0.033  -0.182  0.00  0.00    +0.123 A 
ATOM     30  C   UNL     1       1.591  -0.516  -0.657  0.00  0.00    +0.038 A 
ATOM     31  C   UNL     1       2.696   0.313  -0.700  0.00  0.00    +0.009 A 
ATOM     32  F   UNL     1      -0.698  -0.843  -0.140  0.00  0.00    -0.205 F 
ENDBRANCH  25  26
BRANCH  25  33
ATOM     33  C   UNL     1       3.880   3.188  -1.668  0.00  0.00    +0.238 C 
ATOM     34  O   UNL     1       3.843   4.397  -1.754  0.00  0.00    -0.273 OA
ATOM     35  N   UNL     1       3.992   2.436  -2.781  0.00  0.00    -0.311 N 
ATOM     36  H   UNL     1       4.021   1.469  -2.713  0.00  0.00    +0.149 HD
BRANCH  35  37
ATOM     37  C   UNL     1       4.068   3.080  -4.095  0.00  0.00    +0.135 C 
BRANCH  37  38
ATOM     38  C   UNL     1       4.189   2.010  -5.181  0.00  0.00    +0.135 C 
ATOM     39  C   UNL     1       4.270   2.677  -6.568  0.00  0.00    +0.035 C 
ATOM     40  C   UNL     1       5.617   2.182  -7.149  0.00  0.00    +0.031 C 
ATOM     41  C   UNL     1       5.883   0.906  -6.310  0.00  0.00    +0.160 C 
ATOM     42  O   UNL     1       5.402   1.260  -4.996  0.00  0.00    -0.375 OA
ENDBRANCH  37  38
ENDBRANCH  35  37
ENDBRANCH  25  33
ENDBRANCH   1  25
TORSDOF 13
