REMARK  Name = ZINC22289215
REMARK  11 active torsions:
REMARK  status: ('A' for Active; 'I' for Inactive)
REMARK    1  A    between atoms: C_1  and  C_2
REMARK    2  A    between atoms: C_5  and  S_8
REMARK    3  A    between atoms: S_8  and  N_11
REMARK    4  A    between atoms: N_11  and  C_12
REMARK    5  A    between atoms: C_12  and  C_14
REMARK    6  A    between atoms: C_12  and  C_17
REMARK    7  A    between atoms: C_14  and  C_15
REMARK    8  A    between atoms: C_14  and  C_16
REMARK    9  A    between atoms: C_17  and  N_19
REMARK   10  A    between atoms: C_22  and  C_25
REMARK   11  A    between atoms: C_25  and  N_26
REMARK                            x       y       z     vdW  Elec       q    Type
REMARK                         _______ _______ _______ _____ _____    ______ ____
ROOT
ATOM      1  C   UNL     1       3.912  -4.289   0.450  0.00  0.00    +0.257 C 
ATOM      2  O   UNL     1       4.071  -4.336  -0.755  0.00  0.00    -0.272 OA
ENDROOT
BRANCH   1   3
ATOM      3  N   UNL     1       4.919  -3.936   1.238  0.00  0.00    -0.155 NA
ATOM      4  C   UNL     1       6.106  -3.631   0.709  0.00  0.00    +0.163 A 
ATOM      5  N   UNL     1       7.246  -3.257   1.349  0.00  0.00    -0.341 N 
ATOM      6  C   UNL     1       8.356  -2.990   0.610  0.00  0.00    +0.008 A 
ATOM      7  C   UNL     1       8.254  -3.116  -0.718  0.00  0.00    +0.067 A 
ATOM      8  S   UNL     1       6.557  -3.626  -0.911  0.00  0.00    -0.061 S 
ATOM      9  H   UNL     1       7.267  -3.180   2.315  0.00  0.00    +0.167 HD
BRANCH   6  10
ATOM     10  C   UNL     1       9.649  -2.570   1.261  0.00  0.00    -0.024 C 
BRANCH  10  11
ATOM     11  N   UNL     1       9.468  -1.265   1.911  0.00  0.00    +0.383 N 
ATOM     12  C   UNL     1       9.188  -0.247   0.891  0.00  0.00    -0.078 C 
ATOM     13  C   UNL     1       8.919   1.098   1.569  0.00  0.00    -0.019 C 
ATOM     14  C   UNL     1      10.151   1.511   2.379  0.00  0.00    -0.004 C 
ATOM     15  C   UNL     1      10.479   0.407   3.389  0.00  0.00    -0.019 C 
ATOM     16  C   UNL     1      10.690  -0.912   2.644  0.00  0.00    -0.078 C 
ATOM     17  H   UNL     1       8.693  -1.316   2.554  0.00  0.00    -0.081 HD
ENDBRANCH  10  11
ENDBRANCH   6  10
ENDBRANCH   1   3
BRANCH   1  18
ATOM     18  C   UNL     1       2.572  -4.633   1.048  0.00  0.00    +0.167 C 
BRANCH  18  19
ATOM     19  C   UNL     1       2.728  -5.818   2.003  0.00  0.00    +0.010 C 
ATOM     20  C   UNL     1       3.592  -5.402   3.196  0.00  0.00    +0.009 C 
ATOM     21  C   UNL     1       1.350  -6.258   2.500  0.00  0.00    +0.009 C 
ENDBRANCH  18  19
BRANCH  18  22
ATOM     22  N   UNL     1       1.637  -4.987  -0.022  0.00  0.00    -0.178 NA
ATOM     23  H   UNL     1       1.791  -5.780  -0.558  0.00  0.00    +0.149 HD
BRANCH  22  24
ATOM     24  S   UNL     1       0.314  -4.034  -0.315  0.00  0.00    +0.059 S 
ATOM     25  O   UNL     1      -0.339  -3.851   0.934  0.00  0.00    -0.153 OA
ATOM     26  O   UNL     1      -0.344  -4.590  -1.445  0.00  0.00    -0.153 OA
BRANCH  24  31
ATOM     27  C   UNL     1       2.356   1.387  -2.002  0.00  0.00    +0.044 C 
ATOM     28  C   UNL     1       1.847   0.033  -1.581  0.00  0.00    -0.050 A 
ATOM     29  C   UNL     1       1.611  -0.944  -2.531  0.00  0.00    +0.005 A 
ATOM     30  C   UNL     1       1.143  -2.186  -2.144  0.00  0.00    +0.029 A 
ATOM     31  C   UNL     1       0.911  -2.451  -0.807  0.00  0.00    +0.105 A 
ATOM     32  C   UNL     1       1.148  -1.476   0.142  0.00  0.00    +0.029 A 
ATOM     33  C   UNL     1       1.620  -0.235  -0.244  0.00  0.00    +0.005 A 
ENDBRANCH  24  31
ENDBRANCH  22  24
ENDBRANCH  18  22
ENDBRANCH   1  18
TORSDOF 8
