REMARK  Name = ZINC03010640
REMARK  11 active torsions:
REMARK  status: ('A' for Active; 'I' for Inactive)
REMARK    1  A    between atoms: C_1  and  C_2
REMARK    2  A    between atoms: C_2  and  O_3
REMARK    3  A    between atoms: O_3  and  C_4
REMARK    4  A    between atoms: C_4  and  C_6
REMARK    5  A    between atoms: C_7  and  C_35
REMARK    6  A    between atoms: C_12  and  S_24
REMARK    7  A    between atoms: N_13  and  C_16
REMARK    8  A    between atoms: C_16  and  C_17
REMARK    9  A    between atoms: S_24  and  C_25
REMARK   10  A    between atoms: C_25  and  C_26
REMARK   11  A    between atoms: N_28  and  C_29
REMARK                            x       y       z     vdW  Elec       q    Type
REMARK                         _______ _______ _______ _____ _____    ______ ____
ROOT
ATOM      1  C   UNL     1       9.758   4.404   0.120  0.00  0.00    +0.102 A 
ATOM      2  C   UNL     1       9.881   3.276   0.879  0.00  0.00    -0.015 A 
ATOM      3  C   UNL     1       8.761   2.483   1.133  0.00  0.00    +0.076 A 
ATOM      4  C   UNL     1       7.546   2.932   0.560  0.00  0.00    +0.117 A 
ATOM      5  S   UNL     1       8.021   4.416  -0.291  0.00  0.00    -0.062 S 
ATOM      6  N   UNL     1       6.410   2.273   0.719  0.00  0.00    -0.216 NA
ATOM      7  C   UNL     1       6.351   1.165   1.430  0.00  0.00    +0.173 A 
ATOM      8  N   UNL     1       7.458   0.638   2.027  0.00  0.00    -0.283 N 
ATOM      9  C   UNL     1       8.661   1.234   1.919  0.00  0.00    +0.264 A 
ATOM     10  O   UNL     1       9.644   0.756   2.458  0.00  0.00    -0.267 OA
ATOM     11  C   UNL     1      11.224   2.888   1.442  0.00  0.00    +0.046 C 
ENDROOT
BRANCH   1  12
ATOM     12  C   UNL     1      10.793   5.364  -0.262  0.00  0.00    +0.346 C 
ATOM     13  O   UNL     1      11.940   5.202   0.109  0.00  0.00    -0.244 OA
BRANCH  12  14
ATOM     14  O   UNL     1      10.475   6.430  -1.026  0.00  0.00    -0.461 OA
BRANCH  14  16
ATOM     15  C   UNL     1      10.987   8.465  -2.225  0.00  0.00    +0.048 C 
ATOM     16  C   UNL     1      11.536   7.327  -1.361  0.00  0.00    +0.229 C 
ENDBRANCH  14  16
ENDBRANCH  12  14
ENDBRANCH   1  12
BRANCH   8  17
ATOM     17  C   UNL     1       7.336  -0.600   2.801  0.00  0.00    +0.162 C 
BRANCH  17  18
ATOM     18  C   UNL     1       7.565  -1.783   1.896  0.00  0.00    -0.027 A 
ATOM     19  C   UNL     1       6.497  -2.367   1.240  0.00  0.00    +0.008 A 
ATOM     20  C   UNL     1       6.707  -3.449   0.406  0.00  0.00    +0.038 A 
ATOM     21  C   UNL     1       7.984  -3.955   0.236  0.00  0.00    +0.123 A 
ATOM     22  C   UNL     1       9.052  -3.372   0.898  0.00  0.00    +0.038 A 
ATOM     23  C   UNL     1       8.841  -2.287   1.728  0.00  0.00    +0.008 A 
ATOM     24  F   UNL     1       8.190  -5.015  -0.575  0.00  0.00    -0.205 F 
ENDBRANCH  17  18
ENDBRANCH   8  17
BRANCH   7  25
ATOM     25  S   UNL     1       4.804   0.339   1.606  0.00  0.00    -0.078 S 
BRANCH  25  26
ATOM     26  C   UNL     1       3.745   1.447   0.644  0.00  0.00    +0.173 C 
BRANCH  26  27
ATOM     27  C   UNL     1       2.331   0.926   0.654  0.00  0.00    +0.224 C 
ATOM     28  O   UNL     1       2.066  -0.095   1.254  0.00  0.00    -0.275 OA
ATOM     29  N   UNL     1       1.362   1.593  -0.002  0.00  0.00    -0.312 N 
ATOM     30  H   UNL     1       1.574   2.409  -0.482  0.00  0.00    +0.149 HD
BRANCH  29  31
ATOM     31  C   UNL     1      -0.013   1.086   0.008  0.00  0.00    +0.073 C 
ATOM     32  C   UNL     1      -0.729   1.579   1.267  0.00  0.00    +0.022 C 
ATOM     33  C   UNL     1      -2.164   1.050   1.278  0.00  0.00    +0.002 C 
ATOM     34  C   UNL     1      -2.904   1.556   0.038  0.00  0.00    +0.000 C 
ATOM     35  C   UNL     1      -2.188   1.063  -1.221  0.00  0.00    +0.002 C 
ATOM     36  C   UNL     1      -0.753   1.593  -1.232  0.00  0.00    +0.022 C 
ENDBRANCH  29  31
ENDBRANCH  26  27
ENDBRANCH  25  26
ENDBRANCH   7  25
TORSDOF 9
