REMARK  Name = ZINC16371727
REMARK  6 active torsions:
REMARK  status: ('A' for Active; 'I' for Inactive)
REMARK    1  A    between atoms: C_1  and  C_2
REMARK    2  A    between atoms: C_2  and  C_4
REMARK    3  A    between atoms: C_2  and  S_18
REMARK    4  A    between atoms: C_9  and  C_12
REMARK    5  A    between atoms: S_18  and  C_19
REMARK    6  A    between atoms: N_23  and  C_24
REMARK                            x       y       z     vdW  Elec       q    Type
REMARK                         _______ _______ _______ _____ _____    ______ ____
ROOT
ATOM      1  C   UNL     1       1.986   3.580   0.126  0.00  0.00    +0.232 C 
ATOM      2  O   UNL     1       1.094   4.357  -0.141  0.00  0.00    -0.274 OA
ATOM      3  N   UNL     1       3.183   4.043   0.538  0.00  0.00    -0.264 N 
ATOM      4  C   UNL     1       3.395   5.411   0.658  0.00  0.00    +0.165 A 
ATOM      5  N   UNL     1       4.480   6.058   1.040  0.00  0.00    -0.225 NA
ATOM      6  C   UNL     1       4.509   7.381   1.096  0.00  0.00    +0.080 A 
ATOM      7  C   UNL     1       3.392   8.091   0.752  0.00  0.00    +0.076 A 
ATOM      8  S   UNL     1       2.273   6.763   0.328  0.00  0.00    -0.060 S 
ATOM      9  H   UNL     1       3.896   3.421   0.752  0.00  0.00    +0.157 HD
ENDROOT
BRANCH   6  10
ATOM     10  C   UNL     1       5.740   8.085   1.529  0.00  0.00    +0.001 A 
ATOM     11  C   UNL     1       5.767   9.478   1.582  0.00  0.00    +0.010 A 
ATOM     12  C   UNL     1       6.914  10.128   1.991  0.00  0.00    +0.001 A 
ATOM     13  C   UNL     1       8.038   9.401   2.337  0.00  0.00    +0.000 A 
ATOM     14  C   UNL     1       8.019   8.018   2.281  0.00  0.00    +0.001 A 
ATOM     15  C   UNL     1       6.876   7.358   1.879  0.00  0.00    +0.010 A 
ENDBRANCH   6  10
BRANCH   1  17
ATOM     16  C   UNL     1       2.359   1.600  -1.319  0.00  0.00    +0.029 C 
ATOM     17  C   UNL     1       1.756   2.096  -0.004  0.00  0.00    +0.137 C 
BRANCH  17  18
ATOM     18  S   UNL     1      -0.022   1.758   0.012  0.00  0.00    -0.072 S 
BRANCH  18  19
ATOM     19  C   UNL     1       0.002  -0.004   0.002  0.00  0.00    +0.210 A 
ATOM     20  N   UNL     1       1.071  -0.771  -0.012  0.00  0.00    -0.101 NA
ATOM     21  N   UNL     1       0.735  -2.011  -0.015  0.00  0.00    -0.022 NA
ATOM     22  N   UNL     1      -0.549  -2.127  -0.004  0.00  0.00    -0.043 NA
ATOM     23  N   UNL     1      -1.076  -0.823   0.013  0.00  0.00    -0.217 N 
BRANCH  23  24
ATOM     24  C   UNL     1      -2.488  -0.435   0.036  0.00  0.00    +0.112 C 
ATOM     25  C   UNL     1      -3.184  -1.044   1.271  0.00  0.00    +0.027 C 
ATOM     26  C   UNL     1      -4.598  -1.421   0.762  0.00  0.00    +0.002 C 
ATOM     27  C   UNL     1      -4.320  -1.933  -0.673  0.00  0.00    +0.002 C 
ATOM     28  C   UNL     1      -3.211  -0.999  -1.199  0.00  0.00    +0.027 C 
ENDBRANCH  23  24
ENDBRANCH  18  19
ENDBRANCH  17  18
ENDBRANCH   1  17
TORSDOF 5
