REMARK  Name = ZINC13065049
REMARK  11 active torsions:
REMARK  status: ('A' for Active; 'I' for Inactive)
REMARK    1  A    between atoms: C_1  and  C_2
REMARK    2  A    between atoms: C_2  and  C_3
REMARK    3  A    between atoms: C_3  and  C_5
REMARK    4  A    between atoms: C_3  and  N_69
REMARK    5  A    between atoms: N_9  and  C_10
REMARK    6  A    between atoms: C_16  and  C_17
REMARK    7  A    between atoms: C_16  and  N_69
REMARK    8  A    between atoms: C_22  and  C_23
REMARK    9  A    between atoms: C_22  and  N_69
REMARK   10  A    between atoms: C_28  and  C_36
REMARK   11  A    between atoms: C_29  and  C_35
REMARK                            x       y       z     vdW  Elec       q    Type
REMARK                         _______ _______ _______ _____ _____    ______ ____
ROOT
ATOM      1  N   UNL     1      -1.248   2.039  -0.972  0.00  0.00    +0.392 N 
ATOM      2  H   UNL     1      -2.015   1.494  -0.561  0.00  0.00    -0.080 HD
ENDROOT
BRANCH   1   3
ATOM      3  C   UNL     1      -1.693   3.438  -1.146  0.00  0.00    +0.003 C 
BRANCH   3   4
ATOM      4  C   UNL     1      -3.150   3.435  -1.530  0.00  0.00    +0.138 A 
ATOM      5  N   UNL     1      -3.733   2.629  -2.383  0.00  0.00    -0.115 NA
ATOM      6  N   UNL     1      -4.981   2.941  -2.437  0.00  0.00    -0.023 NA
ATOM      7  N   UNL     1      -5.209   3.931  -1.646  0.00  0.00    -0.044 NA
ATOM      8  N   UNL     1      -4.105   4.264  -1.069  0.00  0.00    -0.228 N 
BRANCH   8   9
ATOM      9  C   UNL     1      -3.924   5.343  -0.094  0.00  0.00    +0.111 C 
ATOM     10  C   UNL     1      -4.807   5.080   1.127  0.00  0.00    +0.027 C 
ATOM     11  C   UNL     1      -4.618   6.206   2.146  0.00  0.00    +0.002 C 
ATOM     12  C   UNL     1      -5.012   7.540   1.509  0.00  0.00    +0.000 C 
ATOM     13  C   UNL     1      -4.128   7.803   0.288  0.00  0.00    +0.002 C 
ATOM     14  C   UNL     1      -4.317   6.677  -0.730  0.00  0.00    +0.027 C 
ENDBRANCH   8   9
ENDBRANCH   3   4
BRANCH   3  16
ATOM     15  C   UNL     1       0.591   4.195  -1.819  0.00  0.00    +0.002 C 
ATOM     16  C   UNL     1      -0.877   4.126  -2.242  0.00  0.00    -0.011 C 
ENDBRANCH   3  16
ENDBRANCH   1   3
BRANCH   1  17
ATOM     17  C   UNL     1      -0.083   1.989  -0.064  0.00  0.00    -0.034 C 
BRANCH  17  18
ATOM     18  C   UNL     1      -0.520   2.416   1.313  0.00  0.00    -0.027 A 
ATOM     19  C   UNL     1      -1.007   1.660   2.327  0.00  0.00    +0.009 A 
ATOM     20  C   UNL     1      -1.347   2.274   3.518  0.00  0.00    +0.008 A 
ATOM     21  C   UNL     1      -1.183   3.614   3.636  0.00  0.00    +0.045 A 
ATOM     22  S   UNL     1      -0.524   4.049   2.035  0.00  0.00    -0.103 S 
ENDBRANCH  17  18
ENDBRANCH   1  17
BRANCH   1  23
ATOM     23  C   UNL     1      -0.893   1.456  -2.283  0.00  0.00    -0.036 C 
BRANCH  23  24
ATOM     24  C   UNL     1      -0.903  -0.046  -2.162  0.00  0.00    +0.001 A 
ATOM     25  C   UNL     1      -2.020  -0.742  -2.486  0.00  0.00    +0.017 A 
ATOM     26  C   UNL     1      -1.996  -2.201  -2.361  0.00  0.00    -0.001 A 
ATOM     27  C   UNL     1      -3.116  -2.973  -2.686  0.00  0.00    +0.010 A 
ATOM     28  C   UNL     1      -3.063  -4.332  -2.554  0.00  0.00    +0.004 A 
ATOM     29  C   UNL     1      -1.907  -4.953  -2.100  0.00  0.00    -0.046 A 
ATOM     30  C   UNL     1      -0.792  -4.212  -1.775  0.00  0.00    -0.024 A 
ATOM     31  C   UNL     1      -0.823  -2.827  -1.901  0.00  0.00    +0.052 A 
ATOM     32  N   UNL     1       0.279  -2.061  -1.583  0.00  0.00    -0.322 N 
ATOM     33  H   UNL     1       1.087  -2.494  -1.267  0.00  0.00    +0.169 HD
ATOM     34  C   UNL     1       0.249  -0.722  -1.706  0.00  0.00    +0.251 A 
ATOM     35  O   UNL     1       1.241  -0.077  -1.415  0.00  0.00    -0.268 OA
ATOM     36  C   UNL     1       0.456  -4.899  -1.285  0.00  0.00    +0.046 C 
ATOM     37  C   UNL     1      -1.872  -6.453  -1.963  0.00  0.00    +0.044 C 
ENDBRANCH  23  24
ENDBRANCH   1  23
TORSDOF 8
