REMARK  Name = ZINC14076287
REMARK  12 active torsions:
REMARK  status: ('A' for Active; 'I' for Inactive)
REMARK    1  A    between atoms: C_1  and  N_2
REMARK    2  A    between atoms: C_6  and  S_30
REMARK    3  A    between atoms: C_10  and  C_11
REMARK    4  A    between atoms: C_11  and  C_12
REMARK    5  A    between atoms: C_12  and  C_13
REMARK    6  A    between atoms: N_15  and  C_16
REMARK    7  A    between atoms: C_16  and  C_17
REMARK    8  A    between atoms: C_17  and  C_19
REMARK    9  A    between atoms: C_17  and  N_25
REMARK   10  A    between atoms: S_30  and  N_33
REMARK   11  A    between atoms: N_33  and  C_34
REMARK   12  A    between atoms: N_33  and  C_35
REMARK                            x       y       z     vdW  Elec       q    Type
REMARK                         _______ _______ _______ _____ _____    ______ ____
ROOT
ATOM      1  C   UNL     1      -1.471  -0.210   2.985  0.00  0.00    +0.103 C 
ENDROOT
BRANCH   1   2
ATOM      2  C   UNL     1      -1.443   0.368   4.376  0.00  0.00    +0.213 C 
ATOM      3  O   UNL     1      -0.390   0.715   4.867  0.00  0.00    -0.276 OA
ATOM      4  N   UNL     1      -2.588   0.499   5.074  0.00  0.00    -0.317 N 
ATOM      5  H   UNL     1      -3.430   0.221   4.681  0.00  0.00    +0.149 HD
BRANCH   4   6
ATOM      6  C   UNL     1      -2.561   1.061   6.427  0.00  0.00    +0.093 C 
BRANCH   6   7
ATOM      7  C   UNL     1      -3.992   1.198   6.951  0.00  0.00    -0.020 C 
BRANCH   7   8
ATOM      8  C   UNL     1      -4.601  -0.171   7.113  0.00  0.00    -0.059 A 
ATOM      9  C   UNL     1      -4.307  -0.930   8.231  0.00  0.00    +0.002 A 
ATOM     10  C   UNL     1      -4.866  -2.186   8.380  0.00  0.00    +0.000 A 
ATOM     11  C   UNL     1      -5.719  -2.682   7.412  0.00  0.00    +0.000 A 
ATOM     12  C   UNL     1      -6.013  -1.923   6.295  0.00  0.00    +0.000 A 
ATOM     13  C   UNL     1      -5.458  -0.665   6.148  0.00  0.00    +0.002 A 
ENDBRANCH   7   8
BRANCH   7  14
ATOM     14  N   UNL     1      -3.974   1.883   8.250  0.00  0.00    +0.385 N 
ATOM     15  C   UNL     1      -3.445   3.262   8.095  0.00  0.00    -0.078 C 
ATOM     16  C   UNL     1      -4.001   3.998   9.339  0.00  0.00    -0.020 C 
ATOM     17  C   UNL     1      -5.413   3.389   9.499  0.00  0.00    -0.020 C 
ATOM     18  C   UNL     1      -5.353   2.037   8.765  0.00  0.00    -0.078 C 
ATOM     19  H   UNL     1      -3.413   1.366   8.909  0.00  0.00    -0.081 HD
ENDBRANCH   7  14
ENDBRANCH   6   7
ENDBRANCH   4   6
ENDBRANCH   1   2
BRANCH   1  20
ATOM     20  C   UNL     1      -0.050  -0.248   2.420  0.00  0.00    +0.083 C 
BRANCH  20  30
ATOM     21  C   UNL     1      -0.399   1.351  -0.205  0.00  0.00    +0.150 C 
ATOM     22  N   UNL     1      -0.232  -0.102  -0.113  0.00  0.00    -0.331 N 
ATOM     23  C   UNL     1      -0.197  -0.990  -1.170  0.00  0.00    +0.069 A 
ATOM     24  C   UNL     1      -0.294  -0.856  -2.549  0.00  0.00    +0.030 A 
ATOM     25  C   UNL     1      -0.218  -1.975  -3.350  0.00  0.00    +0.030 A 
ATOM     26  C   UNL     1      -0.045  -3.232  -2.788  0.00  0.00    +0.108 A 
ATOM     27  C   UNL     1       0.052  -3.383  -1.434  0.00  0.00    +0.058 A 
ATOM     28  C   UNL     1      -0.021  -2.263  -0.602  0.00  0.00    +0.091 A 
ATOM     29  N   UNL     1       0.040  -2.090   0.744  0.00  0.00    -0.232 NA
ATOM     30  C   UNL     1      -0.077  -0.826   1.028  0.00  0.00    +0.111 A 
BRANCH  26  31
ATOM     31  S   UNL     1       0.049  -4.649  -3.832  0.00  0.00    +0.060 S 
ATOM     32  O   UNL     1      -0.335  -5.764  -3.039  0.00  0.00    -0.153 OA
ATOM     33  O   UNL     1      -0.616  -4.308  -5.040  0.00  0.00    -0.153 OA
BRANCH  31  34
ATOM     34  N   UNL     1       1.645  -4.868  -4.216  0.00  0.00    -0.183 NA
ATOM     35  C   UNL     1       2.494  -5.707  -3.367  0.00  0.00    +0.131 C 
ATOM     36  C   UNL     1       2.208  -4.224  -5.406  0.00  0.00    +0.131 C 
ENDBRANCH  31  34
ENDBRANCH  26  31
ENDBRANCH  20  30
ENDBRANCH   1  20
TORSDOF 9
