REMARK  Name = ZINC16265578
REMARK  3 active torsions:
REMARK  status: ('A' for Active; 'I' for Inactive)
REMARK    1  A    between atoms: C_1  and  C_2
REMARK    2  A    between atoms: C_3  and  C_12
REMARK    3  A    between atoms: C_13  and  N_21
REMARK                            x       y       z     vdW  Elec       q    Type
REMARK                         _______ _______ _______ _____ _____    ______ ____
ROOT
ATOM      1  C   UNL     1      -1.630   5.414  -0.400  0.00  0.00    +0.177 A 
ATOM      2  C   UNL     1      -1.989   4.212   0.134  0.00  0.00    +0.080 A 
ATOM      3  C   UNL     1      -1.020   3.237  -0.382  0.00  0.00    +0.042 A 
ATOM      4  C   UNL     1      -0.845   1.862  -0.219  0.00  0.00    +0.013 A 
ATOM      5  C   UNL     1       0.190   1.231  -0.851  0.00  0.00    +0.001 A 
ATOM      6  C   UNL     1       1.059   1.947  -1.663  0.00  0.00    +0.004 A 
ATOM      7  C   UNL     1       0.898   3.304  -1.841  0.00  0.00    +0.047 A 
ATOM      8  C   UNL     1      -0.143   3.968  -1.202  0.00  0.00    +0.138 A 
ATOM      9  O   UNL     1      -0.542   5.256  -1.185  0.00  0.00    -0.451 OA
ENDROOT
BRANCH   1  12
ATOM     10  C   UNL     1      -0.075   7.758   0.266  0.00  0.00    +0.068 C 
ATOM     11  C   UNL     1      -1.576   7.843   0.168  0.00  0.00    +0.068 A 
ATOM     12  C   UNL     1      -2.322   6.689  -0.158  0.00  0.00    +0.129 A 
ATOM     13  N   UNL     1      -3.644   6.751  -0.253  0.00  0.00    -0.240 NA
ATOM     14  C   UNL     1      -4.269   7.911  -0.027  0.00  0.00    +0.090 A 
ATOM     15  C   UNL     1      -5.669   8.007  -0.114  0.00  0.00    +0.030 A 
ATOM     16  C   UNL     1      -6.280   9.202   0.115  0.00  0.00    +0.002 A 
ATOM     17  C   UNL     1      -5.537  10.336   0.436  0.00  0.00    +0.002 A 
ATOM     18  C   UNL     1      -4.179  10.280   0.530  0.00  0.00    +0.030 A 
ATOM     19  C   UNL     1      -3.513   9.065   0.300  0.00  0.00    +0.090 A 
ATOM     20  N   UNL     1      -2.178   8.985   0.386  0.00  0.00    -0.248 NA
ENDBRANCH   1  12
BRANCH   2  21
ATOM     21  N   UNL     1      -3.057   3.960   0.994  0.00  0.00    -0.355 N 
ATOM     22  H   UNL     1      -3.638   4.686   1.272  0.00  0.00    +0.142 HD
ATOM     23  H   UNL     1      -3.220   3.059   1.315  0.00  0.00    +0.142 HD
ENDBRANCH   2  21
TORSDOF 2
