REMARK  Name = ZINC36630133
REMARK  4 active torsions:
REMARK  status: ('A' for Active; 'I' for Inactive)
REMARK    1  A    between atoms: C_1  and  C_2
REMARK    2  A    between atoms: C_4  and  C_23
REMARK    3  A    between atoms: C_6  and  C_8
REMARK    4  A    between atoms: C_14  and  C_16
REMARK                            x       y       z     vdW  Elec       q    Type
REMARK                         _______ _______ _______ _____ _____    ______ ____
ROOT
ATOM      1  C   UNL     1       0.052  -2.845   2.457  0.00  0.00    +0.252 C 
ATOM      2  O   UNL     1       0.068  -4.061   2.446  0.00  0.00    -0.270 OA
ATOM      3  N   UNL     1       0.048  -2.183   3.631  0.00  0.00    -0.234 N 
ATOM      4  C   UNL     1       0.063  -2.887   4.825  0.00  0.00    +0.315 A 
ATOM      5  N   UNL     1       0.087  -4.190   4.955  0.00  0.00    -0.092 NA
ATOM      6  N   UNL     1       0.095  -4.496   6.205  0.00  0.00    -0.106 NA
ATOM      7  C   UNL     1       0.077  -3.398   6.922  0.00  0.00    +0.252 A 
ATOM      8  O   UNL     1       0.062  -2.356   6.063  0.00  0.00    -0.405 OA
ATOM      9  H   UNL     1       0.035  -1.213   3.640  0.00  0.00    +0.160 HD
ENDROOT
BRANCH   1  15
ATOM     10  C   UNL     1      -0.018   1.503   0.010  0.00  0.00    +0.044 C 
ATOM     11  C   UNL     1       0.002  -0.004   0.002  0.00  0.00    -0.049 A 
ATOM     12  C   UNL     1       0.006  -0.688  -1.201  0.00  0.00    +0.006 A 
ATOM     13  C   UNL     1       0.024  -2.071  -1.218  0.00  0.00    -0.049 A 
ATOM     14  C   UNL     1       0.040  -2.778  -0.033  0.00  0.00    +0.016 A 
ATOM     15  C   UNL     1       0.036  -2.095   1.184  0.00  0.00    +0.038 A 
ATOM     16  C   UNL     1       0.023  -0.699   1.194  0.00  0.00    +0.016 A 
ATOM     17  C   UNL     1       0.028  -2.807  -2.533  0.00  0.00    +0.044 C 
ENDBRANCH   1  15
BRANCH   7  18
ATOM     18  C   UNL     1       0.078  -3.316   8.396  0.00  0.00    +0.065 A 
ATOM     19  C   UNL     1       0.106  -4.503   9.210  0.00  0.00    +0.042 A 
ATOM     20  C   UNL     1       0.106  -4.357  10.552  0.00  0.00    +0.080 A 
ATOM     21  S   UNL     1       0.067  -2.587  10.758  0.00  0.00    -0.064 S 
ATOM     22  C   UNL     1       0.058  -2.107   9.041  0.00  0.00    +0.092 A 
ATOM     23 CL   UNL     1       0.028  -0.512   8.358  0.00  0.00    -0.075 Cl
ATOM     24 CL   UNL     1       0.136  -5.589  11.774  0.00  0.00    -0.076 Cl
ENDBRANCH   7  18
TORSDOF 2
