REMARK  Name = ZINC32759274
REMARK  6 active torsions:
REMARK  status: ('A' for Active; 'I' for Inactive)
REMARK    1  A    between atoms: C_3  and  N_22
REMARK    2  A    between atoms: C_6  and  N_7
REMARK    3  A    between atoms: N_7  and  C_8
REMARK    4  A    between atoms: C_8  and  C_9
REMARK    5  A    between atoms: N_22  and  S_23
REMARK    6  A    between atoms: S_23  and  C_26
REMARK                            x       y       z     vdW  Elec       q    Type
REMARK                         _______ _______ _______ _____ _____    ______ ____
ROOT
ATOM      1  C   UNL     1       5.659   0.783  -4.369  0.00  0.00    +0.025 A 
ATOM      2  C   UNL     1       5.431  -0.244  -3.475  0.00  0.00    +0.026 A 
ATOM      3  C   UNL     1       4.468  -0.102  -2.485  0.00  0.00    +0.048 A 
ATOM      4  C   UNL     1       3.732   1.072  -2.396  0.00  0.00    +0.026 A 
ATOM      5  C   UNL     1       3.963   2.101  -3.287  0.00  0.00    +0.025 A 
ATOM      6  C   UNL     1       4.926   1.959  -4.277  0.00  0.00    +0.028 A 
ENDROOT
BRANCH   6   7
ATOM      7  N   UNL     1       5.158   3.001  -5.183  0.00  0.00    -0.337 N 
ATOM      8  H   UNL     1       5.920   2.888  -5.968  0.00  0.00    +0.147 HD
BRANCH   7   9
ATOM      9  C   UNL     1       4.384   4.242  -5.087  0.00  0.00    +0.176 C 
BRANCH   9  10
ATOM     10  C   UNL     1       4.824   5.193  -6.169  0.00  0.00    +0.128 A 
ATOM     11  N   UNL     1       4.215   6.405  -6.248  0.00  0.00    -0.309 N 
ATOM     12  H   UNL     1       3.420   6.669  -5.535  0.00  0.00    +0.170 HD
ATOM     13  C   UNL     1       4.577   7.298  -7.199  0.00  0.00    +0.259 A 
ATOM     14  O   UNL     1       4.043   8.389  -7.278  0.00  0.00    -0.267 OA
ATOM     15  C   UNL     1       5.637   6.896  -8.136  0.00  0.00    +0.066 A 
ATOM     16  C   UNL     1       6.079   7.739  -9.154  0.00  0.00    +0.035 A 
ATOM     17  C   UNL     1       7.076   7.311 -10.004  0.00  0.00    +0.042 A 
ATOM     18  C   UNL     1       7.640   6.050  -9.854  0.00  0.00    +0.022 A 
ATOM     19  C   UNL     1       7.216   5.203  -8.855  0.00  0.00    +0.030 A 
ATOM     20  C   UNL     1       6.208   5.614  -7.981  0.00  0.00    +0.078 A 
ATOM     21  N   UNL     1       5.761   4.811  -6.982  0.00  0.00    -0.232 NA
ATOM     22 CL   UNL     1       7.631   8.356 -11.275  0.00  0.00    -0.084 Cl
ENDBRANCH   9  10
ENDBRANCH   7   9
ENDBRANCH   6   7
BRANCH   3  23
ATOM     23  N   UNL     1       4.236  -1.143  -1.579  0.00  0.00    -0.216 N 
ATOM     24  H   UNL     1       3.330  -1.760  -1.670  0.00  0.00    +0.174 HD
BRANCH  23  25
ATOM     25  S   UNL     1       5.327  -1.448  -0.370  0.00  0.00    +0.072 S 
ATOM     26  O   UNL     1       6.604  -1.532  -0.988  0.00  0.00    -0.150 OA
ATOM     27  O   UNL     1       4.786  -2.506   0.408  0.00  0.00    -0.150 OA
BRANCH  25  28
ATOM     28  C   UNL     1       5.363  -0.026   0.669  0.00  0.00    +0.112 A 
ATOM     29  C   UNL     1       4.431   0.114   1.680  0.00  0.00    +0.032 A 
ATOM     30  C   UNL     1       4.455   1.229   2.497  0.00  0.00    +0.051 A 
ATOM     31  C   UNL     1       5.415   2.211   2.303  0.00  0.00    +0.162 A 
ATOM     32  C   UNL     1       6.354   2.069   1.288  0.00  0.00    +0.164 A 
ATOM     33  C   UNL     1       6.324   0.948   0.472  0.00  0.00    +0.078 A 
ATOM     34  O   UNL     1       7.310   3.017   1.087  0.00  0.00    -0.485 OA
ATOM     35  C   UNL     1       7.080   4.299   1.680  0.00  0.00    +0.270 C 
ATOM     36  C   UNL     1       6.625   4.083   3.130  0.00  0.00    +0.270 C 
ATOM     37  O   UNL     1       5.421   3.307   3.110  0.00  0.00    -0.485 OA
ENDBRANCH  25  28
ENDBRANCH  23  25
ENDBRANCH   3  23
TORSDOF 6
