REMARK  Name = ZINC38547703
REMARK  13 active torsions:
REMARK  status: ('A' for Active; 'I' for Inactive)
REMARK    1  A    between atoms: C_1  and  C_2
REMARK    2  A    between atoms: C_6  and  N_8
REMARK    3  A    between atoms: N_8  and  C_9
REMARK    4  A    between atoms: C_9  and  C_11
REMARK    5  A    between atoms: C_9  and  C_21
REMARK    6  A    between atoms: C_15  and  O_19
REMARK    7  A    between atoms: C_16  and  O_17
REMARK    8  A    between atoms: O_17  and  C_18
REMARK    9  A    between atoms: O_19  and  C_20
REMARK   10  A    between atoms: C_22  and  C_35
REMARK   11  A    between atoms: C_23  and  C_34
REMARK   12  A    between atoms: C_25  and  N_26
REMARK   13  A    between atoms: C_27  and  C_29
REMARK                            x       y       z     vdW  Elec       q    Type
REMARK                         _______ _______ _______ _____ _____    ______ ____
ROOT
ATOM      1  C   UNL     1       0.026  -4.052   1.828  0.00  0.00    +0.138 C 
ENDROOT
BRANCH   1   2
ATOM      2  C   UNL     1       0.908  -4.083   3.050  0.00  0.00    +0.009 A 
ATOM      3  C   UNL     1       1.966  -4.970   3.132  0.00  0.00    -0.033 A 
ATOM      4  C   UNL     1       2.739  -4.970   4.245  0.00  0.00    -0.008 A 
ATOM      5  S   UNL     1       1.978  -3.690   5.229  0.00  0.00    -0.078 S 
ATOM      6  C   UNL     1       0.681  -3.233   4.091  0.00  0.00    +0.078 A 
ATOM      7  C   UNL     1       3.933  -5.831   4.568  0.00  0.00    +0.052 C 
ATOM      8  C   UNL     1       2.254  -5.922   2.001  0.00  0.00    +0.045 C 
BRANCH   6   9
ATOM      9  N   UNL     1      -0.310  -2.260   4.231  0.00  0.00    -0.273 N 
ATOM     10  C   UNL     1      -0.308  -1.446   5.306  0.00  0.00    +0.284 C 
ATOM     11  O   UNL     1       0.557  -1.560   6.154  0.00  0.00    -0.266 OA
ATOM     12  H   UNL     1      -1.000  -2.169   3.555  0.00  0.00    +0.156 HD
BRANCH  10  13
ATOM     13  C   UNL     1      -1.349  -0.424   5.454  0.00  0.00    +0.189 A 
ATOM     14  C   UNL     1      -1.460   0.464   6.485  0.00  0.00    +0.054 A 
ATOM     15  C   UNL     1      -2.592   1.251   6.219  0.00  0.00    +0.042 A 
ATOM     16  C   UNL     1      -3.115   0.814   5.052  0.00  0.00    +0.196 A 
ATOM     17  O   UNL     1      -2.360  -0.192   4.591  0.00  0.00    -0.458 OA
ENDBRANCH  10  13
ENDBRANCH   6   9
ENDBRANCH   1   2
BRANCH   1  18
ATOM     18  C   UNL     1      -1.347  -4.559   2.187  0.00  0.00    +0.022 A 
ATOM     19  C   UNL     1      -2.377  -3.664   2.413  0.00  0.00    +0.009 A 
ATOM     20  C   UNL     1      -3.638  -4.126   2.743  0.00  0.00    +0.004 A 
ATOM     21  C   UNL     1      -3.874  -5.484   2.848  0.00  0.00    +0.049 A 
ATOM     22  C   UNL     1      -2.847  -6.386   2.622  0.00  0.00    +0.162 A 
ATOM     23  C   UNL     1      -1.579  -5.921   2.284  0.00  0.00    +0.167 A 
BRANCH  23  24
ATOM     24  O   UNL     1      -0.569  -6.803   2.057  0.00  0.00    -0.491 OA
ATOM     25  C   UNL     1       0.097  -7.337   3.203  0.00  0.00    +0.277 C 
ENDBRANCH  23  24
BRANCH  22  26
ATOM     26  O   UNL     1      -3.078  -7.722   2.725  0.00  0.00    -0.491 OA
ATOM     27  C   UNL     1      -4.405  -8.126   3.069  0.00  0.00    +0.277 C 
ENDBRANCH  22  26
ENDBRANCH   1  18
BRANCH   1  28
ATOM     28  N   UNL     1      -0.075  -2.677   1.333  0.00  0.00    -0.319 N 
ATOM     29  H   UNL     1       0.052  -1.932   1.941  0.00  0.00    +0.148 HD
BRANCH  28  35
ATOM     30  C   UNL     1      -0.799   0.508  -2.166  0.00  0.00    +0.063 C 
ATOM     31  C   UNL     1      -0.707  -0.926  -1.714  0.00  0.00    +0.014 A 
ATOM     32  C   UNL     1      -0.898  -1.943  -2.629  0.00  0.00    +0.021 A 
ATOM     33  C   UNL     1      -0.812  -3.263  -2.207  0.00  0.00    +0.005 A 
ATOM     34  C   UNL     1      -0.535  -3.513  -0.875  0.00  0.00    +0.041 A 
ATOM     35  C   UNL     1      -0.353  -2.440  -0.008  0.00  0.00    +0.097 A 
ATOM     36  N   UNL     1      -0.439  -1.195  -0.451  0.00  0.00    -0.347 N 
ATOM     37  H   UNL     1      -0.304  -0.462   0.171  0.00  0.00    +0.167 HD
ENDBRANCH  28  35
ENDBRANCH   1  28
TORSDOF 8
