REMARK  Name = ZINC46767069
REMARK  9 active torsions:
REMARK  status: ('A' for Active; 'I' for Inactive)
REMARK    1  A    between atoms: C_4  and  N_7
REMARK    2  A    between atoms: N_7  and  C_8
REMARK    3  A    between atoms: C_16  and  C_18
REMARK    4  A    between atoms: C_18  and  O_19
REMARK    5  A    between atoms: O_19  and  C_20
REMARK    6  A    between atoms: C_20  and  C_22
REMARK    7  A    between atoms: C_25  and  S_27
REMARK    8  A    between atoms: S_27  and  N_30
REMARK    9  A    between atoms: N_30  and  C_31
REMARK                            x       y       z     vdW  Elec       q    Type
REMARK                         _______ _______ _______ _____ _____    ______ ____
ROOT
ATOM      1  C   UNL     1       6.075  -0.696  -0.325  0.00  0.00    +0.328 C 
ENDROOT
BRANCH   1   3
ATOM      2  N   UNL     1       3.619  -0.651  -0.039  0.00  0.00    -0.260 N 
ATOM      3  C   UNL     1       4.769   0.040  -0.169  0.00  0.00    +0.258 C 
ATOM      4  O   UNL     1       4.753   1.252  -0.162  0.00  0.00    -0.271 OA
BRANCH   2   5
ATOM      5  C   UNL     1       3.649  -2.111   0.067  0.00  0.00    +0.127 C 
ATOM      6  C   UNL     1       2.905  -2.547   1.357  0.00  0.00    +0.198 C 
ATOM      7  S   UNL     1       2.132  -4.096   0.725  0.00  0.00    -0.008 S 
ATOM      8  O   UNL     1       2.990  -5.212   0.923  0.00  0.00    -0.170 OA
ATOM      9  O   UNL     1       0.752  -4.152   1.060  0.00  0.00    -0.170 OA
ATOM     10  C   UNL     1       2.199  -3.731  -1.020  0.00  0.00    +0.132 C 
ATOM     11  C   UNL     1       2.999  -2.706  -1.141  0.00  0.00    +0.016 C 
ENDBRANCH   2   5
BRANCH   2  15
ATOM     12  C   UNL     1      -0.022   1.372   0.064  0.00  0.00    +0.000 A 
ATOM     13  C   UNL     1       0.877   1.516   1.105  0.00  0.00    +0.002 A 
ATOM     14  C   UNL     1       2.085   0.847   1.073  0.00  0.00    +0.023 A 
ATOM     15  C   UNL     1       2.396   0.028  -0.004  0.00  0.00    +0.037 A 
ATOM     16  C   UNL     1       1.490  -0.116  -1.047  0.00  0.00    +0.023 A 
ATOM     17  C   UNL     1       0.284   0.557  -1.010  0.00  0.00    +0.002 A 
ENDBRANCH   2  15
ENDBRANCH   1   3
BRANCH   1  18
ATOM     18  O   UNL     1       7.125   0.244  -0.563  0.00  0.00    -0.450 OA
BRANCH  18  19
ATOM     19  C   UNL     1       8.368  -0.255  -0.725  0.00  0.00    +0.375 C 
ATOM     20  O   UNL     1       8.554  -1.455  -0.667  0.00  0.00    -0.241 OA
BRANCH  19  21
ATOM     21  C   UNL     1       9.494   0.650  -0.973  0.00  0.00    +0.214 A 
ATOM     22  C   UNL     1      10.795   0.279  -1.160  0.00  0.00    +0.059 A 
ATOM     23  C   UNL     1      11.526   1.460  -1.363  0.00  0.00    +0.072 A 
ATOM     24  C   UNL     1      10.649   2.487  -1.291  0.00  0.00    +0.258 A 
ATOM     25  O   UNL     1       9.426   1.994  -1.061  0.00  0.00    -0.430 OA
BRANCH  24  26
ATOM     26  S   UNL     1      11.051   4.192  -1.476  0.00  0.00    +0.092 S 
ATOM     27  O   UNL     1      10.036   4.924  -0.802  0.00  0.00    -0.150 OA
ATOM     28  O   UNL     1      12.428   4.323  -1.151  0.00  0.00    -0.150 OA
BRANCH  26  29
ATOM     29  N   UNL     1      10.908   4.558  -3.085  0.00  0.00    -0.184 NA
ATOM     30  H   UNL     1      11.691   4.816  -3.595  0.00  0.00    +0.148 HD
BRANCH  29  31
ATOM     31  C   UNL     1       9.598   4.489  -3.738  0.00  0.00    +0.077 C 
ATOM     32  C   UNL     1       9.562   4.054  -5.205  0.00  0.00    +0.022 C 
ATOM     33  C   UNL     1       9.301   5.516  -4.834  0.00  0.00    +0.022 C 
ENDBRANCH  29  31
ENDBRANCH  26  29
ENDBRANCH  24  26
ENDBRANCH  19  21
ENDBRANCH  18  19
ENDBRANCH   1  18
TORSDOF 9
