REMARK  Name = ZINC15673518
REMARK  9 active torsions:
REMARK  status: ('A' for Active; 'I' for Inactive)
REMARK    1  A    between atoms: C_4  and  S_7
REMARK    2  A    between atoms: S_7  and  C_8
REMARK    3  A    between atoms: C_8  and  C_9
REMARK    4  A    between atoms: C_11  and  C_14
REMARK    5  A    between atoms: C_14  and  C_15
REMARK    6  A    between atoms: C_20  and  C_22
REMARK    7  A    between atoms: C_22  and  C_23
REMARK    8  A    between atoms: N_25  and  C_26
REMARK    9  A    between atoms: C_26  and  C_27
REMARK                            x       y       z     vdW  Elec       q    Type
REMARK                         _______ _______ _______ _____ _____    ______ ____
ROOT
ATOM      1  C   UNL     1       2.933  -1.837  -1.218  0.00  0.00    -0.019 C 
ATOM      2  C   UNL     1       4.117  -0.885  -1.032  0.00  0.00    -0.079 C 
ATOM      3  C   UNL     1       5.586  -2.385  -2.242  0.00  0.00    -0.082 C 
ATOM      4  C   UNL     1       4.447  -3.382  -2.463  0.00  0.00    -0.015 C 
ATOM      5  C   UNL     1       3.450  -3.276  -1.306  0.00  0.00    -0.002 C 
ATOM      6  N   UNL     1       5.043  -1.015  -2.173  0.00  0.00    +0.379 N 
ATOM      7  H   UNL     1       5.817  -0.350  -2.058  0.00  0.00    -0.086 HD
ATOM      8  H   UNL     1       4.540  -0.807  -3.043  0.00  0.00    -0.086 HD
ENDROOT
BRANCH   1   9
ATOM      9  C   UNL     1       1.982  -1.708  -0.027  0.00  0.00    +0.061 C 
BRANCH   9  12
ATOM     10  C   UNL     1      -0.016   1.350   0.009  0.00  0.00    +0.148 A 
ATOM     11  C   UNL     1       0.002  -0.004   0.002  0.00  0.00    +0.071 A 
ATOM     12  C   UNL     1       1.378  -0.327  -0.013  0.00  0.00    +0.084 A 
ATOM     13  N   UNL     1       2.022   0.805  -0.013  0.00  0.00    -0.083 NA
ATOM     14  O   UNL     1       1.264   1.747  -0.001  0.00  0.00    -0.359 OA
BRANCH  10  15
ATOM     15  C   UNL     1      -1.236   2.236   0.020  0.00  0.00    +0.151 C 
BRANCH  15  16
ATOM     16  S   UNL     1      -1.716   2.582   1.735  0.00  0.00    -0.117 S 
BRANCH  16  20
ATOM     17  C   UNL     1      -5.366   5.234   1.336  0.00  0.00    +0.000 A 
ATOM     18  C   UNL     1      -4.896   4.891   2.590  0.00  0.00    +0.001 A 
ATOM     19  C   UNL     1      -3.784   4.083   2.716  0.00  0.00    +0.015 A 
ATOM     20  C   UNL     1      -3.136   3.614   1.579  0.00  0.00    +0.008 A 
ATOM     21  C   UNL     1      -3.607   3.966   0.320  0.00  0.00    +0.015 A 
ATOM     22  C   UNL     1      -4.724   4.769   0.202  0.00  0.00    +0.001 A 
ENDBRANCH  16  20
ENDBRANCH  15  16
ENDBRANCH  10  15
ENDBRANCH   9  12
ENDBRANCH   1   9
BRANCH   5  23
ATOM     23  C   UNL     1       4.146  -3.650   0.004  0.00  0.00    +0.099 C 
BRANCH  23  24
ATOM     24  C   UNL     1       4.546  -5.102  -0.036  0.00  0.00    +0.214 C 
ATOM     25  O   UNL     1       4.298  -5.772  -1.016  0.00  0.00    -0.276 OA
ATOM     26  N   UNL     1       5.178  -5.657   1.017  0.00  0.00    -0.311 N 
ATOM     27  H   UNL     1       5.376  -5.121   1.801  0.00  0.00    +0.149 HD
BRANCH  26  28
ATOM     28  C   UNL     1       5.567  -7.069   0.978  0.00  0.00    +0.139 C 
BRANCH  28  29
ATOM     29  C   UNL     1       6.253  -7.437   2.268  0.00  0.00    -0.027 A 
ATOM     30  C   UNL     1       7.624  -7.307   2.382  0.00  0.00    +0.009 A 
ATOM     31  C   UNL     1       8.257  -7.639   3.565  0.00  0.00    +0.050 A 
ATOM     32  C   UNL     1       7.519  -8.113   4.637  0.00  0.00    +0.166 A 
ATOM     33  C   UNL     1       6.138  -8.249   4.521  0.00  0.00    +0.167 A 
ATOM     34  C   UNL     1       5.509  -7.910   3.333  0.00  0.00    +0.054 A 
ATOM     35  O   UNL     1       5.646  -8.730   5.699  0.00  0.00    -0.453 OA
ATOM     36  C   UNL     1       6.683  -8.501   6.671  0.00  0.00    +0.466 C 
ATOM     37  O   UNL     1       7.892  -8.509   5.889  0.00  0.00    -0.453 OA
ENDBRANCH  28  29
ENDBRANCH  26  28
ENDBRANCH  23  24
ENDBRANCH   5  23
TORSDOF 9
