REMARK  Name = ZINC03370193
REMARK  11 active torsions:
REMARK  status: ('A' for Active; 'I' for Inactive)
REMARK    1  A    between atoms: C_1  and  C_2
REMARK    2  A    between atoms: C_4  and  C_18
REMARK    3  A    between atoms: C_5  and  C_17
REMARK    4  A    between atoms: N_6  and  C_7
REMARK    5  A    between atoms: C_7  and  C_8
REMARK    6  A    between atoms: C_18  and  C_20
REMARK    7  A    between atoms: C_20  and  O_21
REMARK    8  A    between atoms: O_21  and  C_22
REMARK    9  A    between atoms: C_22  and  C_24
REMARK   10  A    between atoms: C_24  and  N_25
REMARK   11  A    between atoms: C_26  and  C_28
REMARK                            x       y       z     vdW  Elec       q    Type
REMARK                         _______ _______ _______ _____ _____    ______ ____
ROOT
ATOM      1  C   UNL     1      -2.602   1.515   0.021  0.00  0.00    +0.202 C 
ATOM      2  O   UNL     1      -3.487   2.344   0.028  0.00  0.00    -0.288 OA
ENDROOT
BRANCH   1   6
ATOM      3  C   UNL     1       2.493   1.456  -0.015  0.00  0.00    +0.063 C 
ATOM      4  C   UNL     1       1.052   1.896   0.002  0.00  0.00    +0.017 A 
ATOM      5  C   UNL     1      -0.013   1.076   0.008  0.00  0.00    +0.034 A 
ATOM      6  C   UNL     1      -1.200   1.940   0.018  0.00  0.00    +0.042 A 
ATOM      7  C   UNL     1      -0.724   3.238   0.026  0.00  0.00    +0.027 A 
ATOM      8  N   UNL     1       0.620   3.190   0.013  0.00  0.00    -0.343 N 
ATOM      9  C   UNL     1      -1.564   4.488   0.041  0.00  0.00    +0.064 C 
BRANCH   8  10
ATOM     10  C   UNL     1       1.498   4.364   0.011  0.00  0.00    +0.157 C 
BRANCH  10  11
ATOM     11  C   UNL     1       1.785   4.773  -1.410  0.00  0.00    -0.024 A 
ATOM     12  C   UNL     1       0.958   5.678  -2.048  0.00  0.00    +0.009 A 
ATOM     13  C   UNL     1       1.218   6.057  -3.352  0.00  0.00    +0.050 A 
ATOM     14  C   UNL     1       2.309   5.530  -4.023  0.00  0.00    +0.166 A 
ATOM     15  C   UNL     1       3.143   4.619  -3.380  0.00  0.00    +0.167 A 
ATOM     16  C   UNL     1       2.880   4.248  -2.071  0.00  0.00    +0.055 A 
ATOM     17  O   UNL     1       4.135   4.252  -4.242  0.00  0.00    -0.453 OA
ATOM     18  C   UNL     1       4.136   5.254  -5.276  0.00  0.00    +0.466 C 
ATOM     19  O   UNL     1       2.779   5.735  -5.288  0.00  0.00    -0.453 OA
ENDBRANCH  10  11
ENDBRANCH   8  10
ENDBRANCH   1   6
BRANCH   1  20
ATOM     20  C   UNL     1      -2.943   0.047   0.014  0.00  0.00    +0.311 C 
BRANCH  20  21
ATOM     21  O   UNL     1      -4.386  -0.114   0.018  0.00  0.00    -0.455 OA
BRANCH  21  22
ATOM     22  C   UNL     1      -4.859  -1.370   0.014  0.00  0.00    +0.325 C 
ATOM     23  O   UNL     1      -4.093  -2.304   0.006  0.00  0.00    -0.249 OA
BRANCH  22  24
ATOM     24  C   UNL     1      -6.346  -1.615   0.018  0.00  0.00    +0.225 C 
BRANCH  24  25
ATOM     25  N   UNL     1      -6.604  -3.058   0.011  0.00  0.00    -0.301 N 
ATOM     26  C   UNL     1      -7.871  -3.516   0.013  0.00  0.00    +0.246 C 
ATOM     27  O   UNL     1      -8.801  -2.733   0.021  0.00  0.00    -0.270 OA
ATOM     28  H   UNL     1      -5.862  -3.683   0.005  0.00  0.00    +0.150 HD
BRANCH  26  29
ATOM     29  C   UNL     1      -8.130  -4.971   0.007  0.00  0.00    +0.055 A 
ATOM     30  C   UNL     1      -7.064  -5.873  -0.002  0.00  0.00    +0.016 A 
ATOM     31  C   UNL     1      -7.312  -7.229  -0.008  0.00  0.00    +0.021 A 
ATOM     32  C   UNL     1      -8.616  -7.698  -0.005  0.00  0.00    +0.042 A 
ATOM     33  C   UNL     1      -9.678  -6.810   0.004  0.00  0.00    +0.040 A 
ATOM     34  C   UNL     1      -9.443  -5.449   0.015  0.00  0.00    +0.054 A 
ATOM     35 CL   UNL     1     -10.775  -4.336   0.033  0.00  0.00    -0.083 Cl
ATOM     36 CL   UNL     1      -8.919  -9.407  -0.013  0.00  0.00    -0.083 Cl
ENDBRANCH  26  29
ENDBRANCH  24  25
ENDBRANCH  22  24
ENDBRANCH  21  22
ENDBRANCH  20  21
ENDBRANCH   1  20
TORSDOF 9
