REMARK  Name = ZINC33416703
REMARK  10 active torsions:
REMARK  status: ('A' for Active; 'I' for Inactive)
REMARK    1  A    between atoms: C_1  and  C_2
REMARK    2  A    between atoms: C_3  and  C_28
REMARK    3  A    between atoms: C_4  and  C_11
REMARK    4  A    between atoms: N_9  and  C_10
REMARK    5  A    between atoms: C_14  and  N_17
REMARK    6  A    between atoms: N_20  and  C_21
REMARK    7  A    between atoms: C_28  and  O_30
REMARK    8  A    between atoms: O_30  and  C_31
REMARK    9  A    between atoms: C_31  and  C_32
REMARK   10  A    between atoms: C_31  and  C_33
REMARK                            x       y       z     vdW  Elec       q    Type
REMARK                         _______ _______ _______ _____ _____    ______ ____
ROOT
ATOM      1  C   UNL     1      -2.403   8.231   0.250  0.00  0.00    -0.022 A 
ATOM      2  C   UNL     1      -3.589   7.520   0.249  0.00  0.00    +0.007 A 
ATOM      3  C   UNL     1      -3.568   6.139   0.236  0.00  0.00    +0.024 A 
ATOM      4  C   UNL     1      -2.354   5.465   0.225  0.00  0.00    +0.035 A 
ATOM      5  C   UNL     1      -1.165   6.182   0.232  0.00  0.00    +0.024 A 
ATOM      6  C   UNL     1      -1.193   7.563   0.239  0.00  0.00    +0.007 A 
ENDROOT
BRANCH   1  10
ATOM      7  C   UNL     1      -1.065  11.537  -2.861  0.00  0.00    +0.061 C 
ATOM      8  C   UNL     1      -1.247  11.035  -1.452  0.00  0.00    +0.021 C 
ATOM      9  C   UNL     1      -2.285  10.220  -1.166  0.00  0.00    +0.078 C 
ATOM     10  C   UNL     1      -2.430   9.738   0.263  0.00  0.00    +0.141 C 
ATOM     11  N   UNL     1      -1.420  10.202   1.229  0.00  0.00    -0.315 N 
ATOM     12  C   UNL     1      -0.440  11.017   0.791  0.00  0.00    +0.137 C 
ATOM     13  S   UNL     1       0.741  11.564   1.903  0.00  0.00    -0.018 S 
ATOM     14  N   UNL     1      -0.360  11.412  -0.486  0.00  0.00    -0.289 N 
ATOM     15  C   UNL     1       0.743  12.298  -0.867  0.00  0.00    +0.137 C 
ATOM     16  H   UNL     1      -1.477   9.882   2.280  0.00  0.00    +0.149 HD
BRANCH   9  17
ATOM     17  C   UNL     1      -3.204   9.829  -2.167  0.00  0.00    +0.339 C 
ATOM     18  O   UNL     1      -3.067  10.229  -3.308  0.00  0.00    -0.245 OA
BRANCH  17  19
ATOM     19  O   UNL     1      -4.233   9.014  -1.856  0.00  0.00    -0.459 OA
BRANCH  19  20
ATOM     20  C   UNL     1      -5.123   8.660  -2.917  0.00  0.00    +0.171 C 
ATOM     21  C   UNL     1      -5.705   7.269  -2.652  0.00  0.00    +0.052 C 
ATOM     22  C   UNL     1      -6.260   9.682  -2.991  0.00  0.00    +0.052 C 
ENDBRANCH  19  20
ENDBRANCH  17  19
ENDBRANCH   9  17
ENDBRANCH   1  10
BRANCH   4  23
ATOM     23  N   UNL     1      -2.329   4.066   0.212  0.00  0.00    -0.269 N 
ATOM     24  C   UNL     1      -1.365   3.415  -0.469  0.00  0.00    +0.308 C 
ATOM     25  O   UNL     1      -0.469   4.041  -1.002  0.00  0.00    -0.252 OA
ATOM     26  N   UNL     1      -1.393   2.071  -0.558  0.00  0.00    -0.268 N 
ATOM     27  H   UNL     1      -3.096   3.497   0.758  0.00  0.00    +0.156 HD
ATOM     28  H   UNL     1      -2.242   1.509  -0.140  0.00  0.00    +0.156 HD
BRANCH  26  29
ATOM     29  C   UNL     1      -0.342   1.388  -1.182  0.00  0.00    +0.049 A 
ATOM     30  C   UNL     1       0.305   1.955  -2.272  0.00  0.00    +0.024 A 
ATOM     31  C   UNL     1       1.337   1.277  -2.890  0.00  0.00    +0.002 A 
ATOM     32  C   UNL     1       1.727   0.034  -2.424  0.00  0.00    +0.001 A 
ATOM     33  C   UNL     1       1.085  -0.533  -1.339  0.00  0.00    +0.017 A 
ATOM     34  C   UNL     1       0.051   0.140  -0.717  0.00  0.00    +0.039 A 
ATOM     35 BR   UNL     1      -0.827  -0.637   0.767  0.00  0.00    -0.048 Br
ENDBRANCH  26  29
ENDBRANCH   4  23
TORSDOF 6
