REMARK  Name = ZINC11664379
REMARK  10 active torsions:
REMARK  status: ('A' for Active; 'I' for Inactive)
REMARK    1  A    between atoms: C_1  and  C_2
REMARK    2  A    between atoms: C_2  and  C_3
REMARK    3  A    between atoms: C_3  and  C_4
REMARK    4  A    between atoms: C_4  and  N_5
REMARK    5  A    between atoms: C_6  and  C_15
REMARK    6  A    between atoms: C_9  and  S_10
REMARK    7  A    between atoms: S_10  and  C_13
REMARK    8  A    between atoms: C_13  and  C_14
REMARK    9  A    between atoms: C_15  and  N_55
REMARK   10  A    between atoms: C_19  and  C_21
REMARK                            x       y       z     vdW  Elec       q    Type
REMARK                         _______ _______ _______ _____ _____    ______ ____
ROOT
ATOM      1  N   UNL     1      -2.184   3.849  -0.339  0.00  0.00    -0.315 N 
ATOM      2  C   UNL     1      -1.105   3.338  -1.008  0.00  0.00    +0.023 A 
ATOM      3  C   UNL     1      -0.401   4.388  -1.471  0.00  0.00    +0.133 A 
ATOM      4  N   UNL     1      -1.037   5.510  -1.101  0.00  0.00    -0.220 NA
ATOM      5  C   UNL     1      -2.104   5.195  -0.420  0.00  0.00    +0.251 A 
ENDROOT
BRANCH   5   6
ATOM      6  S   UNL     1      -3.251   6.336   0.278  0.00  0.00    +0.030 S 
ATOM      7  O   UNL     1      -3.142   7.500  -0.530  0.00  0.00    -0.166 OA
ATOM      8  O   UNL     1      -4.475   5.619   0.354  0.00  0.00    -0.166 OA
BRANCH   6   9
ATOM      9  C   UNL     1      -2.619   6.672   1.945  0.00  0.00    +0.172 C 
ATOM     10  C   UNL     1      -3.546   7.662   2.652  0.00  0.00    +0.028 C 
ENDBRANCH   6   9
ENDBRANCH   5   6
BRANCH   1  11
ATOM     11  C   UNL     1      -3.230   3.080   0.340  0.00  0.00    +0.125 C 
BRANCH  11  12
ATOM     12  C   UNL     1      -2.824   2.840   1.795  0.00  0.00    +0.021 C 
BRANCH  12  14
ATOM     13  C   UNL     1      -3.511   1.797   3.959  0.00  0.00    +0.004 C 
ATOM     14  C   UNL     1      -3.917   2.037   2.504  0.00  0.00    -0.002 C 
ENDBRANCH  12  14
ENDBRANCH  11  12
ENDBRANCH   1  11
BRANCH   2  15
ATOM     15  C   UNL     1      -0.768   1.881  -1.188  0.00  0.00    -0.022 C 
BRANCH  15  20
ATOM     16  C   UNL     1       1.373   1.899  -0.041  0.00  0.00    -0.077 C 
ATOM     17  C   UNL     1       2.208   0.763   0.601  0.00  0.00    -0.020 C 
ATOM     18  C   UNL     1       1.489  -0.500   0.059  0.00  0.00    -0.013 C 
ATOM     19  C   UNL     1       0.007  -0.070   0.029  0.00  0.00    -0.037 C 
ATOM     20  N   UNL     1      -0.015   1.404   0.001  0.00  0.00    +0.388 N 
ATOM     21  H   UNL     1      -0.474   1.753   0.851  0.00  0.00    -0.080 HD
BRANCH  19  22
ATOM     22  C   UNL     1      -0.665  -0.633  -1.197  0.00  0.00    -0.061 A 
ATOM     23  C   UNL     1      -1.828  -1.369  -1.070  0.00  0.00    +0.005 A 
ATOM     24  C   UNL     1      -2.449  -1.881  -2.193  0.00  0.00    +0.038 A 
ATOM     25  C   UNL     1      -1.899  -1.666  -3.446  0.00  0.00    +0.123 A 
ATOM     26  C   UNL     1      -0.732  -0.933  -3.572  0.00  0.00    +0.038 A 
ATOM     27  C   UNL     1      -0.116  -0.417  -2.447  0.00  0.00    +0.005 A 
ATOM     28  F   UNL     1      -2.502  -2.171  -4.545  0.00  0.00    -0.205 F 
ENDBRANCH  19  22
ENDBRANCH  15  20
ENDBRANCH   2  15
TORSDOF 8
