REMARK  Name = ZINC39848719
REMARK  9 active torsions:
REMARK  status: ('A' for Active; 'I' for Inactive)
REMARK    1  A    between atoms: C_1  and  C_2
REMARK    2  A    between atoms: C_8  and  C_28
REMARK    3  A    between atoms: C_10  and  C_15
REMARK    4  A    between atoms: C_15  and  C_17
REMARK    5  A    between atoms: C_23  and  O_26
REMARK    6  A    between atoms: O_26  and  C_27
REMARK    7  A    between atoms: C_32  and  O_34
REMARK    8  A    between atoms: O_34  and  C_35
REMARK    9  A    between atoms: C_35  and  C_36
REMARK                            x       y       z     vdW  Elec       q    Type
REMARK                         _______ _______ _______ _____ _____    ______ ____
ROOT
ATOM      1  C   UNL     1      -0.051   1.103  -0.027  0.00  0.00    +0.089 C 
ATOM      2  C   UNL     1      -0.085  -0.402  -0.088  0.00  0.00    +0.136 A 
ATOM      3  C   UNL     1      -1.192  -1.165  -0.130  0.00  0.00    +0.091 A 
ATOM      4  C   UNL     1      -0.789  -2.519  -0.181  0.00  0.00    +0.172 A 
ATOM      5  N   UNL     1       0.519  -2.550  -0.171  0.00  0.00    -0.063 NA
ATOM      6  O   UNL     1       0.984  -1.213  -0.117  0.00  0.00    -0.358 OA
ATOM      7  N   UNL     1      -1.636  -3.625  -0.234  0.00  0.00    -0.235 N 
ATOM      8  C   UNL     1      -1.222  -5.032  -0.178  0.00  0.00    +0.151 C 
ATOM      9  C   UNL     1      -2.492  -5.847  -0.269  0.00  0.00    +0.080 C 
ATOM     10  C   UNL     1      -3.515  -4.966  -0.366  0.00  0.00    +0.250 C 
ATOM     11  C   UNL     1      -2.977  -3.591  -0.338  0.00  0.00    +0.293 C 
ATOM     12  O   UNL     1      -3.646  -2.579  -0.402  0.00  0.00    -0.266 OA
ATOM     13  O   UNL     1      -4.824  -5.293  -0.468  0.00  0.00    -0.282 OA
ENDROOT
BRANCH   8  14
ATOM     14  C   UNL     1      -0.315  -5.352  -1.338  0.00  0.00    -0.019 A 
ATOM     15  C   UNL     1      -0.641  -4.918  -2.610  0.00  0.00    +0.006 A 
ATOM     16  C   UNL     1       0.189  -5.210  -3.676  0.00  0.00    +0.004 A 
ATOM     17  C   UNL     1       1.346  -5.937  -3.474  0.00  0.00    +0.045 A 
ATOM     18  C   UNL     1       1.675  -6.373  -2.199  0.00  0.00    +0.121 A 
ATOM     19  C   UNL     1       0.844  -6.074  -1.129  0.00  0.00    +0.051 A 
BRANCH  18  20
ATOM     20  O   UNL     1       2.813  -7.088  -1.997  0.00  0.00    -0.488 OA
BRANCH  20  21
ATOM     21  C   UNL     1       3.679  -7.260  -3.120  0.00  0.00    +0.256 C 
BRANCH  21  22
ATOM     22  C   UNL     1       4.826  -8.160  -2.738  0.00  0.00    +0.006 C 
ATOM     23  C   UNL     1       5.199  -9.124  -3.543  0.00  0.00    +0.007 C 
ENDBRANCH  21  22
ENDBRANCH  20  21
ENDBRANCH  18  20
ENDBRANCH   8  14
BRANCH   9  24
ATOM     24  C   UNL     1      -2.595  -7.310  -0.255  0.00  0.00    +0.230 C 
ATOM     25  O   UNL     1      -2.997  -7.901  -1.241  0.00  0.00    -0.283 OA
BRANCH  24  26
ATOM     26  C   UNL     1      -2.214  -8.062   0.948  0.00  0.00    +0.176 A 
ATOM     27  C   UNL     1      -2.172  -9.419   1.044  0.00  0.00    +0.062 A 
ATOM     28  C   UNL     1      -1.743  -9.715   2.409  0.00  0.00    +0.025 A 
ATOM     29  C   UNL     1      -1.511 -10.896   3.123  0.00  0.00    +0.012 A 
ATOM     30  C   UNL     1      -1.105 -10.833   4.425  0.00  0.00    +0.004 A 
ATOM     31  C   UNL     1      -0.922  -9.605   5.048  0.00  0.00    +0.049 A 
ATOM     32  C   UNL     1      -1.147  -8.426   4.362  0.00  0.00    +0.163 A 
ATOM     33  C   UNL     1      -1.560  -8.467   3.031  0.00  0.00    +0.177 A 
ATOM     34  O   UNL     1      -1.846  -7.512   2.124  0.00  0.00    -0.448 OA
BRANCH  32  35
ATOM     35  O   UNL     1      -0.964  -7.231   4.984  0.00  0.00    -0.491 OA
ATOM     36  C   UNL     1      -0.657  -7.265   6.379  0.00  0.00    +0.277 C 
ENDBRANCH  32  35
ENDBRANCH  24  26
ENDBRANCH   9  24
TORSDOF 7
