REMARK  Name = ZINC12578273
REMARK  6 active torsions:
REMARK  status: ('A' for Active; 'I' for Inactive)
REMARK    1  A    between atoms: C_1  and  C_2
REMARK    2  A    between atoms: C_3  and  C_23
REMARK    3  A    between atoms: C_8  and  C_10
REMARK    4  A    between atoms: C_17  and  C_22
REMARK    5  A    between atoms: C_19  and  C_21
REMARK    6  A    between atoms: N_27  and  C_28
REMARK                            x       y       z     vdW  Elec       q    Type
REMARK                         _______ _______ _______ _____ _____    ______ ____
ROOT
ATOM      1  C   UNL     1      -0.759   4.194   0.090  0.00  0.00    +0.067 C 
ATOM      2  C   UNL     1       0.737   4.330  -0.033  0.00  0.00    +0.058 A 
ATOM      3  C   UNL     1       1.545   3.221  -0.085  0.00  0.00    +0.079 A 
ATOM      4  S   UNL     1       3.151   3.990  -0.233  0.00  0.00    -0.049 S 
ATOM      5  C   UNL     1       2.615   5.642  -0.204  0.00  0.00    +0.165 A 
ATOM      6  N   UNL     1       1.305   5.512  -0.088  0.00  0.00    -0.229 NA
ATOM      7  N   UNL     1       3.369   6.802  -0.282  0.00  0.00    -0.261 N 
ATOM      8  C   UNL     1       2.762   8.005  -0.242  0.00  0.00    +0.253 C 
ATOM      9  O   UNL     1       1.553   8.072  -0.137  0.00  0.00    -0.270 OA
ATOM     10  H   UNL     1       4.334   6.748  -0.366  0.00  0.00    +0.157 HD
ENDROOT
BRANCH   8  11
ATOM     11  C   UNL     1       3.565   9.239  -0.325  0.00  0.00    +0.079 A 
ATOM     12  C   UNL     1       4.954   9.163  -0.440  0.00  0.00    +0.017 A 
ATOM     13  C   UNL     1       5.706  10.315  -0.522  0.00  0.00    +0.001 A 
ATOM     14  C   UNL     1       5.084  11.553  -0.482  0.00  0.00    +0.007 A 
ATOM     15  C   UNL     1       3.714  11.639  -0.367  0.00  0.00    +0.001 A 
ATOM     16  C   UNL     1       2.933  10.495  -0.283  0.00  0.00    +0.137 A 
ATOM     17  O   UNL     1       1.615  10.804  -0.161  0.00  0.00    -0.487 OA
ATOM     18  C   UNL     1       1.404  12.159  -0.592  0.00  0.00    +0.178 C 
ATOM     19  C   UNL     1       2.771  12.826  -0.310  0.00  0.00    +0.060 C 
ATOM     20  C   UNL     1       3.114  13.850  -1.393  0.00  0.00    +0.016 C 
ATOM     21  C   UNL     1       0.297  12.823   0.230  0.00  0.00    +0.052 C 
ENDBRANCH   8  11
BRANCH   3  22
ATOM     22  C   UNL     1       1.187   1.795  -0.039  0.00  0.00    +0.153 A 
ATOM     23  N   UNL     1      -0.036   1.306  -0.030  0.00  0.00    -0.235 NA
ATOM     24  C   UNL     1       0.024  -0.031   0.016  0.00  0.00    +0.131 A 
ATOM     25  C   UNL     1       1.319  -0.401   0.036  0.00  0.00    +0.112 A 
ATOM     26  N   UNL     1       2.067   0.750   0.002  0.00  0.00    -0.273 N 
BRANCH  26  27
ATOM     27  C   UNL     1       3.529   0.840   0.008  0.00  0.00    +0.449 C 
ATOM     28  F   UNL     1       3.964   1.435  -1.181  0.00  0.00    -0.185 F 
ATOM     29  F   UNL     1       3.943   1.615   1.096  0.00  0.00    -0.185 F 
ENDBRANCH  26  27
ENDBRANCH   3  22
TORSDOF 3
