REMARK  Name = ZINC49893863
REMARK  6 active torsions:
REMARK  status: ('A' for Active; 'I' for Inactive)
REMARK    1  A    between atoms: C_1  and  C_2
REMARK    2  A    between atoms: C_2  and  C_3
REMARK    3  A    between atoms: C_2  and  C_4
REMARK    4  A    between atoms: C_2  and  C_5
REMARK    5  A    between atoms: C_8  and  C_11
REMARK    6  A    between atoms: C_14  and  C_19
REMARK                            x       y       z     vdW  Elec       q    Type
REMARK                         _______ _______ _______ _____ _____    ______ ____
ROOT
ATOM      1  C   UNL     1       2.695  -1.860  -4.731  0.00  0.00    +0.053 A 
ATOM      2  C   UNL     1       3.466  -0.978  -5.468  0.00  0.00    -0.019 A 
ATOM      3  C   UNL     1       4.118  -1.423  -6.611  0.00  0.00    -0.020 A 
ATOM      4  C   UNL     1       3.983  -2.758  -6.996  0.00  0.00    +0.119 A 
ATOM      5  C   UNL     1       3.183  -3.628  -6.213  0.00  0.00    +0.267 A 
ATOM      6  O   UNL     1       3.056  -4.796  -6.537  0.00  0.00    -0.266 OA
ATOM      7  N   UNL     1       2.569  -3.165  -5.108  0.00  0.00    -0.321 N 
ATOM      8  H   UNL     1       2.027  -3.767  -4.574  0.00  0.00    +0.169 HD
ATOM      9  C   UNL     1       4.890  -0.283  -7.236  0.00  0.00    +0.037 C 
ATOM     10  C   UNL     1       4.296   0.998  -6.612  0.00  0.00    +0.009 C 
ATOM     11  C   UNL     1       3.761   0.491  -5.255  0.00  0.00    +0.038 C 
ENDROOT
BRANCH   1  15
ATOM     12  C   UNL     1       0.707  -0.490  -1.238  0.00  0.00    -0.042 A 
ATOM     13  C   UNL     1       0.019  -1.247  -2.170  0.00  0.00    +0.005 A 
ATOM     14  C   UNL     1       0.658  -1.695  -3.307  0.00  0.00    +0.010 A 
ATOM     15  C   UNL     1       2.004  -1.383  -3.517  0.00  0.00    -0.001 A 
ATOM     16  C   UNL     1       2.692  -0.619  -2.571  0.00  0.00    +0.010 A 
ATOM     17  C   UNL     1       2.039  -0.173  -1.442  0.00  0.00    +0.005 A 
BRANCH  12  19
ATOM     18  C   UNL     1       0.030   1.525   0.038  0.00  0.00    +0.015 C 
ATOM     19  C   UNL     1       0.002  -0.004   0.002  0.00  0.00    -0.013 C 
ATOM     20  C   UNL     1       0.710  -0.556   1.241  0.00  0.00    +0.015 C 
ATOM     21  C   UNL     1      -1.449  -0.488  -0.014  0.00  0.00    +0.015 C 
ENDBRANCH  12  19
ENDBRANCH   1  15
BRANCH   4  22
ATOM     22  C   UNL     1       4.644  -3.243  -8.171  0.00  0.00    +0.105 C 
ATOM     23  N   UNL     1       5.168  -3.627  -9.102  0.00  0.00    -0.191 NA
ENDBRANCH   4  22
TORSDOF 3
