REMARK  Name = ZINC12480345
REMARK  10 active torsions:
REMARK  status: ('A' for Active; 'I' for Inactive)
REMARK    1  A    between atoms: C_1  and  N_2
REMARK    2  A    between atoms: C_6  and  C_7
REMARK    3  A    between atoms: C_7  and  C_9
REMARK    4  A    between atoms: C_7  and  N_19
REMARK    5  A    between atoms: N_11  and  C_12
REMARK    6  A    between atoms: C_12  and  C_13
REMARK    7  A    between atoms: N_19  and  C_20
REMARK    8  A    between atoms: C_20  and  C_21
REMARK    9  A    between atoms: C_28  and  C_30
REMARK   10  A    between atoms: C_30  and  N_31
REMARK                            x       y       z     vdW  Elec       q    Type
REMARK                         _______ _______ _______ _____ _____    ______ ____
ROOT
ATOM      1  N   UNL     1       3.420   4.339  -1.822  0.00  0.00    -0.279 N 
ATOM      2  C   UNL     1       4.327   3.531  -2.407  0.00  0.00    +0.238 C 
ATOM      3  O   UNL     1       4.401   3.479  -3.616  0.00  0.00    -0.274 OA
ENDROOT
BRANCH   1   4
ATOM      4  C   UNL     1       2.617   5.252  -2.639  0.00  0.00    +0.209 C 
BRANCH   4  10
ATOM      5  C   UNL     1       0.700   7.060  -1.004  0.00  0.00    +0.148 C 
ATOM      6  N   UNL     1       0.321   5.806  -1.660  0.00  0.00    -0.352 N 
ATOM      7  C   UNL     1      -0.924   5.249  -1.650  0.00  0.00    +0.085 A 
ATOM      8  C   UNL     1      -0.879   4.103  -2.359  0.00  0.00    +0.019 A 
ATOM      9  C   UNL     1       0.441   3.949  -2.828  0.00  0.00    +0.025 A 
ATOM     10  C   UNL     1       1.154   5.003  -2.381  0.00  0.00    +0.048 A 
ENDBRANCH   4  10
BRANCH   4  11
ATOM     11  C   UNL     1       2.955   6.676  -2.279  0.00  0.00    +0.240 C 
ATOM     12  O   UNL     1       3.729   6.906  -1.374  0.00  0.00    -0.273 OA
ATOM     13  N   UNL     1       2.397   7.695  -2.963  0.00  0.00    -0.311 N 
ATOM     14  H   UNL     1       1.721   7.514  -3.636  0.00  0.00    +0.149 HD
BRANCH  13  15
ATOM     15  C   UNL     1       2.810   9.073  -2.691  0.00  0.00    +0.135 C 
BRANCH  15  16
ATOM     16  C   UNL     1       2.029  10.028  -3.596  0.00  0.00    +0.135 C 
ATOM     17  C   UNL     1       2.456  11.482  -3.318  0.00  0.00    +0.035 C 
ATOM     18  C   UNL     1       2.971  11.995  -4.685  0.00  0.00    +0.031 C 
ATOM     19  C   UNL     1       2.296  11.013  -5.675  0.00  0.00    +0.160 C 
ATOM     20  O   UNL     1       2.329   9.751  -4.974  0.00  0.00    -0.375 OA
ENDBRANCH  15  16
ENDBRANCH  13  15
ENDBRANCH   4  11
ENDBRANCH   1   4
BRANCH   1  21
ATOM     21  C   UNL     1       3.237   4.303  -0.369  0.00  0.00    +0.145 C 
BRANCH  21  22
ATOM     22  C   UNL     1       1.874   3.746  -0.048  0.00  0.00    -0.012 A 
ATOM     23  C   UNL     1       0.994   4.477   0.728  0.00  0.00    +0.006 A 
ATOM     24  C   UNL     1      -0.256   3.967   1.023  0.00  0.00    +0.000 A 
ATOM     25  C   UNL     1      -0.629   2.727   0.538  0.00  0.00    +0.001 A 
ATOM     26  C   UNL     1       0.252   1.993  -0.233  0.00  0.00    +0.020 A 
ATOM     27  C   UNL     1       1.503   2.503  -0.529  0.00  0.00    +0.046 A 
ATOM     28 CL   UNL     1       2.608   1.585  -1.503  0.00  0.00    -0.083 Cl
ENDBRANCH  21  22
ENDBRANCH   1  21
BRANCH   2  29
ATOM     29  C   UNL     1       5.248   2.694  -1.559  0.00  0.00    +0.241 C 
BRANCH  29  30
ATOM     30  N   UNL     1       6.231   2.028  -2.417  0.00  0.00    -0.235 N 
ATOM     31  C   UNL     1       6.106   0.792  -3.005  0.00  0.00    +0.090 A 
ATOM     32  C   UNL     1       5.107  -0.175  -3.019  0.00  0.00    +0.029 A 
ATOM     33  C   UNL     1       5.289  -1.330  -3.728  0.00  0.00    +0.002 A 
ATOM     34  C   UNL     1       6.461  -1.544  -4.441  0.00  0.00    +0.002 A 
ATOM     35  C   UNL     1       7.454  -0.608  -4.449  0.00  0.00    +0.032 A 
ATOM     36  C   UNL     1       7.293   0.584  -3.730  0.00  0.00    +0.113 A 
ATOM     37  N   UNL     1       8.076   1.666  -3.553  0.00  0.00    -0.129 NA
ATOM     38  N   UNL     1       7.488   2.523  -2.794  0.00  0.00    -0.064 NA
ENDBRANCH  29  30
ENDBRANCH   2  29
TORSDOF 9
