REMARK  Name = ZINC02501761
REMARK  8 active torsions:
REMARK  status: ('A' for Active; 'I' for Inactive)
REMARK    1  A    between atoms: C_1  and  C_2
REMARK    2  A    between atoms: C_4  and  C_9
REMARK    3  A    between atoms: C_5  and  S_7
REMARK    4  A    between atoms: S_7  and  C_8
REMARK    5  A    between atoms: C_11  and  C_31
REMARK    6  A    between atoms: C_12  and  N_30
REMARK    7  A    between atoms: N_13  and  C_21
REMARK    8  A    between atoms: C_25  and  N_27
REMARK                            x       y       z     vdW  Elec       q    Type
REMARK                         _______ _______ _______ _____ _____    ______ ____
ROOT
ATOM      1  C   UNL     1      -0.173   7.928   0.900  0.00  0.00    +0.099 C 
ATOM      2  C   UNL     1      -1.364   7.200   0.350  0.00  0.00    +0.077 C 
ATOM      3  C   UNL     1      -1.269   5.909  -0.066  0.00  0.00    +0.107 C 
ATOM      4  N   UNL     1      -0.066   5.247   0.015  0.00  0.00    -0.260 N 
ATOM      5  C   UNL     1       1.109   5.947   0.111  0.00  0.00    +0.024 C 
ATOM      6  C   UNL     1       1.111   7.231   0.526  0.00  0.00    +0.025 C 
ATOM      7  C   UNL     1       2.311   7.958   0.627  0.00  0.00    +0.162 C 
ATOM      8  O   UNL     1       2.277   9.118   0.986  0.00  0.00    -0.292 OA
ATOM      9  C   UNL     1       3.636   7.325   0.299  0.00  0.00    +0.080 C 
ATOM     10  C   UNL     1       3.547   5.818   0.564  0.00  0.00    +0.014 C 
ATOM     11  C   UNL     1       2.393   5.247  -0.262  0.00  0.00    +0.052 C 
ENDROOT
BRANCH   1  15
ATOM     12  C   UNL     1      -0.444   5.817   5.527  0.00  0.00    +0.051 C 
ATOM     13  C   UNL     1      -0.401   6.921   4.503  0.00  0.00    -0.012 A 
ATOM     14  C   UNL     1      -0.308   6.830   3.155  0.00  0.00    +0.016 A 
ATOM     15  C   UNL     1      -0.282   7.990   2.402  0.00  0.00    -0.014 A 
ATOM     16  C   UNL     1      -0.362   9.190   3.043  0.00  0.00    +0.049 A 
ATOM     17  S   UNL     1      -0.470   8.688   4.753  0.00  0.00    -0.087 S 
BRANCH  16  18
ATOM     18  S   UNL     1      -0.360  10.815   2.362  0.00  0.00    -0.121 S 
ATOM     19  C   UNL     1      -0.495  11.898   3.810  0.00  0.00    +0.090 C 
ENDBRANCH  16  18
ENDBRANCH   1  15
BRANCH   4  20
ATOM     20  C   UNL     1      -0.040   3.847  -0.007  0.00  0.00    +0.042 A 
ATOM     21  C   UNL     1       0.046   3.172  -1.218  0.00  0.00    +0.024 A 
ATOM     22  C   UNL     1       0.071   1.791  -1.236  0.00  0.00    +0.004 A 
ATOM     23  C   UNL     1       0.011   1.081  -0.050  0.00  0.00    +0.033 A 
ATOM     24  C   UNL     1      -0.081   1.751   1.156  0.00  0.00    +0.128 A 
ATOM     25  C   UNL     1      -0.101   3.132   1.182  0.00  0.00    +0.056 A 
BRANCH  24  26
ATOM     26  N   UNL     1      -0.151   0.987   2.422  0.00  0.00    +0.056 N 
ATOM     27  O   UNL     1      -0.129  -0.231   2.401  0.00  0.00    -0.126 OA
ATOM     28  O   UNL     1      -0.231   1.576   3.485  0.00  0.00    -0.126 OA
ENDBRANCH  24  26
ENDBRANCH   4  20
BRANCH   3  29
ATOM     29  N   UNL     1      -2.376   5.264  -0.564  0.00  0.00    -0.345 N 
ATOM     30  H   UNL     1      -2.330   4.319  -0.780  0.00  0.00    +0.144 HD
ATOM     31  H   UNL     1      -3.203   5.753  -0.699  0.00  0.00    +0.144 HD
ENDBRANCH   3  29
BRANCH   2  32
ATOM     32  C   UNL     1      -2.621   7.879   0.256  0.00  0.00    +0.099 C 
ATOM     33  N   UNL     1      -3.619   8.418   0.181  0.00  0.00    -0.191 NA
ENDBRANCH   2  32
TORSDOF 6
