REMARK  Name = ZINC03449625
REMARK  12 active torsions:
REMARK  status: ('A' for Active; 'I' for Inactive)
REMARK    1  A    between atoms: C_1  and  C_2
REMARK    2  A    between atoms: C_2  and  C_22
REMARK    3  A    between atoms: N_5  and  C_9
REMARK    4  A    between atoms: C_9  and  C_10
REMARK    5  A    between atoms: N_12  and  C_13
REMARK    6  A    between atoms: C_13  and  C_14
REMARK    7  A    between atoms: C_19  and  O_20
REMARK    8  A    between atoms: O_20  and  C_21
REMARK    9  A    between atoms: C_25  and  C_28
REMARK   10  A    between atoms: C_28  and  C_29
REMARK   11  A    between atoms: C_28  and  C_30
REMARK   12  A    between atoms: C_28  and  C_31
REMARK                            x       y       z     vdW  Elec       q    Type
REMARK                         _______ _______ _______ _____ _____    ______ ____
ROOT
ATOM      1  C   UNL     1      -0.019   1.526   0.010  0.00  0.00    +0.047 C 
ATOM      2  C   UNL     1       0.002  -0.004   0.002  0.00  0.00    +0.135 C 
ATOM      3  C   UNL     1       0.815  -0.520  -1.169  0.00  0.00    +0.251 C 
ATOM      4  O   UNL     1       0.595  -0.342  -2.348  0.00  0.00    -0.272 OA
ATOM      5  N   UNL     1       1.833  -1.217  -0.627  0.00  0.00    -0.215 N 
ATOM      6  C   UNL     1       1.777  -1.214   0.710  0.00  0.00    +0.310 C 
ATOM      7  O   UNL     1       2.586  -1.776   1.421  0.00  0.00    -0.252 OA
ATOM      8  N   UNL     1       0.724  -0.519   1.178  0.00  0.00    -0.281 N 
ATOM      9  H   UNL     1       0.487  -0.383   2.109  0.00  0.00    +0.152 HD
ENDROOT
BRANCH   2  10
ATOM     10  C   UNL     1      -1.401  -0.551  -0.040  0.00  0.00    -0.015 A 
ATOM     11  C   UNL     1      -2.005  -0.815  -1.256  0.00  0.00    +0.006 A 
ATOM     12  C   UNL     1      -3.292  -1.317  -1.294  0.00  0.00    +0.004 A 
ATOM     13  C   UNL     1      -3.976  -1.556  -0.117  0.00  0.00    -0.042 A 
ATOM     14  C   UNL     1      -3.372  -1.294   1.099  0.00  0.00    +0.004 A 
ATOM     15  C   UNL     1      -2.083  -0.796   1.137  0.00  0.00    +0.006 A 
BRANCH  13  16
ATOM     16  C   UNL     1      -5.380  -2.103  -0.159  0.00  0.00    -0.013 C 
ATOM     17  C   UNL     1      -5.378  -3.459  -0.868  0.00  0.00    +0.015 C 
ATOM     18  C   UNL     1      -5.903  -2.275   1.268  0.00  0.00    +0.015 C 
ATOM     19  C   UNL     1      -6.283  -1.130  -0.920  0.00  0.00    +0.015 C 
ENDBRANCH  13  16
ENDBRANCH   2  10
BRANCH   5  20
ATOM     20  C   UNL     1       2.871  -1.896  -1.406  0.00  0.00    +0.213 C 
BRANCH  20  21
ATOM     21  C   UNL     1       4.020  -0.950  -1.644  0.00  0.00    +0.231 C 
ATOM     22  O   UNL     1       3.975   0.180  -1.206  0.00  0.00    -0.274 OA
ATOM     23  N   UNL     1       5.097  -1.360  -2.343  0.00  0.00    -0.310 N 
ATOM     24  H   UNL     1       5.133  -2.264  -2.693  0.00  0.00    +0.149 HD
BRANCH  23  25
ATOM     25  C   UNL     1       6.213  -0.440  -2.574  0.00  0.00    +0.143 C 
BRANCH  25  26
ATOM     26  C   UNL     1       7.282  -1.138  -3.375  0.00  0.00    +0.011 A 
ATOM     27  C   UNL     1       8.394  -1.657  -2.740  0.00  0.00    +0.009 A 
ATOM     28  C   UNL     1       9.375  -2.298  -3.474  0.00  0.00    +0.001 A 
ATOM     29  C   UNL     1       9.246  -2.421  -4.845  0.00  0.00    +0.004 A 
ATOM     30  C   UNL     1       8.136  -1.904  -5.485  0.00  0.00    +0.046 A 
ATOM     31  C   UNL     1       7.148  -1.265  -4.750  0.00  0.00    +0.125 A 
BRANCH  31  32
ATOM     32  O   UNL     1       6.052  -0.761  -5.376  0.00  0.00    -0.495 OA
ATOM     33  C   UNL     1       5.981  -0.928  -6.793  0.00  0.00    +0.277 C 
ENDBRANCH  31  32
ENDBRANCH  25  26
ENDBRANCH  23  25
ENDBRANCH  20  21
ENDBRANCH   5  20
TORSDOF 7
