REMARK  Name = ZINC04904895
REMARK  5 active torsions:
REMARK  status: ('A' for Active; 'I' for Inactive)
REMARK    1  A    between atoms: C_1  and  N_2
REMARK    2  A    between atoms: N_13  and  C_26
REMARK    3  A    between atoms: C_15  and  C_16
REMARK    4  A    between atoms: N_18  and  C_19
REMARK    5  A    between atoms: C_19  and  C_20
REMARK                            x       y       z     vdW  Elec       q    Type
REMARK                         _______ _______ _______ _____ _____    ______ ____
ROOT
ATOM      1  C   UNL     1      -7.784   6.540   3.397  0.00  0.00    +0.149 C 
ATOM      2  N   UNL     1      -6.778   6.031   2.462  0.00  0.00    -0.339 N 
ATOM      3  C   UNL     1      -6.057   4.869   2.635  0.00  0.00    +0.050 A 
ATOM      4  C   UNL     1      -6.049   3.906   3.641  0.00  0.00    +0.026 A 
ATOM      5  C   UNL     1      -5.204   2.823   3.548  0.00  0.00    +0.002 A 
ATOM      6  C   UNL     1      -4.357   2.679   2.458  0.00  0.00    +0.001 A 
ATOM      7  C   UNL     1      -4.348   3.611   1.460  0.00  0.00    +0.010 A 
ATOM      8  C   UNL     1      -5.196   4.718   1.533  0.00  0.00    +0.009 A 
ATOM      9  C   UNL     1      -5.435   5.872   0.663  0.00  0.00    +0.026 A 
ATOM     10  C   UNL     1      -6.414   6.646   1.279  0.00  0.00    +0.116 A 
ATOM     11  C   UNL     1      -6.836   7.834   0.642  0.00  0.00    +0.276 A 
ATOM     12  O   UNL     1      -7.693   8.527   1.165  0.00  0.00    -0.265 OA
ATOM     13  N   UNL     1      -6.306   8.210  -0.534  0.00  0.00    -0.310 N 
ATOM     14  C   UNL     1      -5.348   7.488  -1.161  0.00  0.00    +0.103 A 
ATOM     15  C   UNL     1      -4.883   6.322  -0.621  0.00  0.00    +0.063 A 
ENDROOT
BRANCH  13  16
ATOM     16  C   UNL     1      -6.776   9.450  -1.156  0.00  0.00    +0.090 C 
ATOM     17  C   UNL     1      -7.373   9.137  -2.529  0.00  0.00    +0.025 C 
ATOM     18  C   UNL     1      -7.865  10.432  -3.179  0.00  0.00    +0.002 C 
ATOM     19  C   UNL     1      -6.690  11.399  -3.342  0.00  0.00    +0.000 C 
ATOM     20  C   UNL     1      -6.093  11.712  -1.969  0.00  0.00    +0.002 C 
ATOM     21  C   UNL     1      -5.601  10.417  -1.319  0.00  0.00    +0.025 C 
ENDBRANCH  13  16
BRANCH  15  22
ATOM     22  C   UNL     1      -3.845   5.535  -1.309  0.00  0.00    +0.246 C 
ATOM     23  O   UNL     1      -3.528   4.442  -0.882  0.00  0.00    -0.270 OA
ATOM     24  N   UNL     1      -3.247   6.028  -2.411  0.00  0.00    -0.309 N 
ATOM     25  H   UNL     1      -3.550   6.866  -2.794  0.00  0.00    +0.149 HD
BRANCH  24  26
ATOM     26  C   UNL     1      -2.139   5.298  -3.032  0.00  0.00    +0.136 C 
BRANCH  26  27
ATOM     27  C   UNL     1      -1.644   6.067  -4.258  0.00  0.00    +0.135 C 
ATOM     28  C   UNL     1      -0.474   5.315  -4.929  0.00  0.00    +0.035 C 
ATOM     29  C   UNL     1      -0.702   5.537  -6.441  0.00  0.00    +0.031 C 
ATOM     30  C   UNL     1      -1.984   6.397  -6.508  0.00  0.00    +0.160 C 
ATOM     31  O   UNL     1      -2.675   6.122  -5.268  0.00  0.00    -0.375 OA
ENDBRANCH  26  27
ENDBRANCH  24  26
ENDBRANCH  15  22
TORSDOF 4
