REMARK  Name = ZINC20720041
REMARK  2 active torsions:
REMARK  status: ('A' for Active; 'I' for Inactive)
REMARK    1  A    between atoms: C_7  and  C_11
REMARK    2  A    between atoms: C_24  and  N_27
REMARK                            x       y       z     vdW  Elec       q    Type
REMARK                         _______ _______ _______ _____ _____    ______ ____
ROOT
ATOM      1  C   UNL     1       3.640   0.943  -0.028  0.00  0.00    +0.107 C 
ATOM      2  C   UNL     1       4.176   0.712   1.376  0.00  0.00    +0.029 C 
ATOM      3  C   UNL     1       5.671   1.106   1.454  0.00  0.00    +0.033 C 
ATOM      4  C   UNL     1       5.831   1.574   2.888  0.00  0.00    -0.030 C 
ATOM      5  C   UNL     1       4.673   1.919   3.390  0.00  0.00    -0.023 C 
ATOM      6  C   UNL     1       3.568   1.731   2.362  0.00  0.00    +0.049 C 
ATOM      7  C   UNL     1       3.324   3.058   1.694  0.00  0.00    -0.017 A 
ATOM      8  C   UNL     1       2.848   4.098   2.483  0.00  0.00    +0.006 A 
ATOM      9  C   UNL     1       2.601   5.339   1.934  0.00  0.00    +0.003 A 
ATOM     10  C   UNL     1       2.829   5.559   0.587  0.00  0.00    +0.034 A 
ATOM     11  C   UNL     1       3.301   4.533  -0.203  0.00  0.00    +0.147 A 
ATOM     12  C   UNL     1       3.550   3.277   0.348  0.00  0.00    +0.062 A 
ATOM     13  N   UNL     1       4.028   2.275  -0.496  0.00  0.00    -0.335 N 
ATOM     14  H   UNL     1       4.625   2.382  -1.414  0.00  0.00    +0.147 HD
ENDROOT
BRANCH   1  21
ATOM     15  C   UNL     1       0.685  -2.695  -0.018  0.00  0.00    +0.001 A 
ATOM     16  C   UNL     1      -0.649  -2.309  -0.003  0.00  0.00    +0.002 A 
ATOM     17  C   UNL     1      -0.994  -0.976   0.006  0.00  0.00    +0.026 A 
ATOM     18  C   UNL     1       0.002  -0.004   0.002  0.00  0.00    +0.047 A 
ATOM     19  C   UNL     1       1.352  -0.401  -0.013  0.00  0.00    +0.005 A 
ATOM     20  C   UNL     1       1.679  -1.758  -0.023  0.00  0.00    +0.010 A 
ATOM     21  C   UNL     1       2.137   0.836  -0.014  0.00  0.00    -0.002 A 
ATOM     22  C   UNL     1       1.264   1.855   0.000  0.00  0.00    +0.089 A 
ATOM     23  N   UNL     1      -0.017   1.373   0.010  0.00  0.00    -0.360 N 
ATOM     24  H   UNL     1      -0.977   1.910   0.022  0.00  0.00    +0.165 HD
ENDBRANCH   1  21
BRANCH  11  25
ATOM     25  N   UNL     1       3.546   4.766  -1.644  0.00  0.00    +0.058 N 
ATOM     26  O   UNL     1       3.329   5.862  -2.129  0.00  0.00    -0.126 OA
ATOM     27  O   UNL     1       3.963   3.862  -2.345  0.00  0.00    -0.126 OA
ENDBRANCH  11  25
TORSDOF 2
