REMARK  Name = ZINC36207191
REMARK  16 active torsions:
REMARK  status: ('A' for Active; 'I' for Inactive)
REMARK    1  A    between atoms: C_1  and  C_2
REMARK    2  A    between atoms: C_2  and  O_3
REMARK    3  A    between atoms: O_3  and  C_4
REMARK    4  A    between atoms: C_4  and  C_6
REMARK    5  A    between atoms: C_7  and  C_34
REMARK    6  A    between atoms: C_13  and  C_17
REMARK    7  A    between atoms: C_17  and  N_18
REMARK    8  A    between atoms: N_18  and  C_19
REMARK    9  A    between atoms: N_18  and  C_23
REMARK   10  A    between atoms: C_19  and  C_20
REMARK   11  A    between atoms: C_20  and  O_21
REMARK   12  A    between atoms: O_21  and  C_22
REMARK   13  A    between atoms: C_23  and  C_24
REMARK   14  A    between atoms: C_24  and  C_26
REMARK   15  A    between atoms: C_24  and  O_33
REMARK   16  A    between atoms: C_26  and  N_27
REMARK                            x       y       z     vdW  Elec       q    Type
REMARK                         _______ _______ _______ _____ _____    ______ ____
ROOT
ATOM      1  C   UNL     1       4.385  -4.336  -7.759  0.00  0.00    -0.003 C 
ENDROOT
BRANCH   1   9
ATOM      2  C   UNL     1      10.409  -5.934  -6.686  0.00  0.00    +0.102 A 
ATOM      3  C   UNL     1       9.344  -6.784  -6.597  0.00  0.00    -0.015 A 
ATOM      4  C   UNL     1       8.056  -6.312  -6.859  0.00  0.00    +0.076 A 
ATOM      5  C   UNL     1       6.767  -7.041  -6.826  0.00  0.00    +0.260 A 
ATOM      6  O   UNL     1       6.726  -8.224  -6.539  0.00  0.00    -0.267 OA
ATOM      7  N   UNL     1       5.642  -6.361  -7.120  0.00  0.00    -0.312 N 
ATOM      8  H   UNL     1       4.789  -6.824  -7.103  0.00  0.00    +0.170 HD
ATOM      9  C   UNL     1       5.676  -5.044  -7.439  0.00  0.00    +0.094 A 
ATOM     10  N   UNL     1       6.794  -4.372  -7.477  0.00  0.00    -0.229 NA
ATOM     11  C   UNL     1       7.959  -4.944  -7.205  0.00  0.00    +0.116 A 
ATOM     12  S   UNL     1       9.644  -4.388  -7.143  0.00  0.00    -0.062 S 
ATOM     13  C   UNL     1       9.557  -8.227  -6.220  0.00  0.00    +0.046 C 
BRANCH   2  14
ATOM     14  C   UNL     1      11.827  -6.220  -6.455  0.00  0.00    +0.346 C 
ATOM     15  O   UNL     1      12.178  -7.342  -6.146  0.00  0.00    -0.244 OA
BRANCH  14  16
ATOM     16  O   UNL     1      12.742  -5.238  -6.587  0.00  0.00    -0.461 OA
BRANCH  16  18
ATOM     17  C   UNL     1      14.991  -4.354  -6.542  0.00  0.00    +0.048 C 
ATOM     18  C   UNL     1      14.107  -5.588  -6.347  0.00  0.00    +0.229 C 
ENDBRANCH  16  18
ENDBRANCH  14  16
ENDBRANCH   2  14
ENDBRANCH   1   9
BRANCH   1  19
ATOM     19  N   UNL     1       4.675  -2.965  -8.200  0.00  0.00    +0.388 N 
ATOM     20  H   UNL     1       5.250  -2.504  -7.511  0.00  0.00    -0.081 HD
BRANCH  19  21
ATOM     21  C   UNL     1       3.416  -2.225  -8.361  0.00  0.00    -0.050 C 
BRANCH  21  22
ATOM     22  C   UNL     1       2.748  -2.053  -6.995  0.00  0.00    +0.141 C 
BRANCH  22  23
ATOM     23  O   UNL     1       3.573  -1.238  -6.160  0.00  0.00    -0.385 OA
ATOM     24  C   UNL     1       3.070  -1.069  -4.834  0.00  0.00    +0.193 C 
ENDBRANCH  22  23
ENDBRANCH  21  22
ENDBRANCH  19  21
BRANCH  19  25
ATOM     25  C   UNL     1       5.386  -3.004  -9.485  0.00  0.00    -0.045 C 
BRANCH  25  26
ATOM     26  C   UNL     1       5.798  -1.586  -9.883  0.00  0.00    +0.112 C 
BRANCH  26  27
ATOM     27  O   UNL     1       6.747  -1.083  -8.941  0.00  0.00    -0.392 OA
ATOM     28  H   UNL     1       7.557  -1.608  -8.879  0.00  0.00    +0.210 HD
ENDBRANCH  26  27
BRANCH  26  29
ATOM     29  C   UNL     1       6.428  -1.610 -11.278  0.00  0.00    +0.114 C 
BRANCH  29  30
ATOM     30  N   UNL     1       6.824  -0.248 -11.660  0.00  0.00    -0.296 NA
ATOM     31  C   UNL     1       5.646   0.614 -11.831  0.00  0.00    +0.112 C 
ATOM     32  C   UNL     1       6.104   2.035 -12.170  0.00  0.00    +0.175 C 
ATOM     33  O   UNL     1       6.924   1.999 -13.342  0.00  0.00    -0.377 OA
ATOM     34  C   UNL     1       8.081   1.169 -13.210  0.00  0.00    +0.175 C 
ATOM     35  C   UNL     1       7.642  -0.261 -12.882  0.00  0.00    +0.112 C 
ENDBRANCH  29  30
ENDBRANCH  26  29
ENDBRANCH  25  26
ENDBRANCH  19  25
ENDBRANCH   1  19
TORSDOF 13
