REMARK  Name = ZINC42790936
REMARK  10 active torsions:
REMARK  status: ('A' for Active; 'I' for Inactive)
REMARK    1  A    between atoms: C_1  and  C_2
REMARK    2  A    between atoms: C_2  and  C_3
REMARK    3  A    between atoms: C_2  and  C_4
REMARK    4  A    between atoms: C_4  and  C_6
REMARK    5  A    between atoms: C_4  and  N_20
REMARK    6  A    between atoms: C_6  and  N_7
REMARK    7  A    between atoms: C_8  and  C_10
REMARK    8  A    between atoms: C_13  and  N_19
REMARK    9  A    between atoms: C_14  and  N_16
REMARK   10  A    between atoms: N_20  and  C_21
REMARK                            x       y       z     vdW  Elec       q    Type
REMARK                         _______ _______ _______ _____ _____    ______ ____
ROOT
ATOM      1  N   UNL     1      -3.684  -0.432  -0.955  0.00  0.00    -0.310 N 
ATOM      2  C   UNL     1      -4.599  -0.056  -1.869  0.00  0.00    +0.244 C 
ATOM      3  O   UNL     1      -4.284   0.696  -2.772  0.00  0.00    -0.270 OA
ATOM      4  H   UNL     1      -3.935  -1.032  -0.235  0.00  0.00    +0.149 HD
ENDROOT
BRANCH   2   5
ATOM      5  C   UNL     1      -5.984  -0.556  -1.775  0.00  0.00    +0.039 A 
ATOM      6  C   UNL     1      -6.349  -1.416  -0.735  0.00  0.00    +0.015 A 
ATOM      7  C   UNL     1      -7.642  -1.880  -0.650  0.00  0.00    +0.026 A 
ATOM      8  C   UNL     1      -8.585  -1.495  -1.598  0.00  0.00    +0.055 A 
ATOM      9  C   UNL     1      -8.225  -0.639  -2.636  0.00  0.00    +0.147 A 
ATOM     10  C   UNL     1      -6.935  -0.167  -2.723  0.00  0.00    +0.047 A 
BRANCH   9  11
ATOM     11  N   UNL     1      -9.231  -0.233  -3.643  0.00  0.00    +0.058 N 
ATOM     12  O   UNL     1      -8.911  -0.114  -4.803  0.00  0.00    -0.126 OA
ATOM     13  O   UNL     1     -10.372  -0.021  -3.305  0.00  0.00    -0.126 OA
ENDBRANCH   9  11
BRANCH   8  14
ATOM     14  N   UNL     1      -9.891  -1.966  -1.510  0.00  0.00    -0.356 N 
ATOM     15  H   UNL     1     -10.130  -2.603  -0.819  0.00  0.00    +0.142 HD
ATOM     16  H   UNL     1     -10.562  -1.657  -2.139  0.00  0.00    +0.142 HD
ENDBRANCH   8  14
ENDBRANCH   2   5
BRANCH   1  17
ATOM     17  C   UNL     1      -2.308   0.064  -1.048  0.00  0.00    +0.127 C 
BRANCH  17  18
ATOM     18  C   UNL     1      -1.480  -0.510   0.103  0.00  0.00    +0.090 C 
BRANCH  18  20
ATOM     19  C   UNL     1       0.096   1.428   0.050  0.00  0.00    +0.009 C 
ATOM     20  C   UNL     1      -0.017  -0.093  -0.065  0.00  0.00    +0.004 C 
ATOM     21  C   UNL     1       0.829  -0.751   1.028  0.00  0.00    +0.009 C 
ENDBRANCH  18  20
BRANCH  18  22
ATOM     22  N   UNL     1      -1.575  -1.972   0.091  0.00  0.00    -0.339 N 
ATOM     23  H   UNL     1      -1.184  -2.478  -0.639  0.00  0.00    +0.146 HD
BRANCH  22  24
ATOM     24  C   UNL     1      -2.229  -2.638   1.130  0.00  0.00    +0.027 A 
ATOM     25  C   UNL     1      -2.945  -1.916   2.077  0.00  0.00    +0.023 A 
ATOM     26  C   UNL     1      -3.592  -2.578   3.103  0.00  0.00    +0.002 A 
ATOM     27  C   UNL     1      -3.526  -3.956   3.188  0.00  0.00    +0.000 A 
ATOM     28  C   UNL     1      -2.814  -4.677   2.247  0.00  0.00    +0.002 A 
ATOM     29  C   UNL     1      -2.170  -4.023   1.216  0.00  0.00    +0.023 A 
ENDBRANCH  22  24
ENDBRANCH  18  22
ENDBRANCH  17  18
ENDBRANCH   1  17
TORSDOF 8
