REMARK  Name = ZINC13124620
REMARK  2 active torsions:
REMARK  status: ('A' for Active; 'I' for Inactive)
REMARK    1  A    between atoms: C_5  and  C_7
REMARK    2  A    between atoms: C_20  and  C_22
REMARK                            x       y       z     vdW  Elec       q    Type
REMARK                         _______ _______ _______ _____ _____    ______ ____
ROOT
ATOM      1  C   UNL     1       1.251  -2.156  -0.023  0.00  0.00    +0.016 C 
ATOM      2  C   UNL     1       0.107  -2.850   0.086  0.00  0.00    -0.021 C 
ATOM      3  C   UNL     1      -1.234  -2.148   0.099  0.00  0.00    +0.037 C 
ATOM      4  C   UNL     1      -2.089  -2.819   1.184  0.00  0.00    +0.009 C 
ATOM      5  C   UNL     1      -2.310  -4.282   0.807  0.00  0.00    +0.035 C 
ATOM      6  C   UNL     1      -1.010  -4.980   0.537  0.00  0.00    -0.017 C 
ATOM      7  C   UNL     1       0.117  -4.328   0.189  0.00  0.00    +0.072 C 
ATOM      8  N   UNL     1       1.277  -4.997  -0.067  0.00  0.00    -0.214 NA
ATOM      9  C   UNL     1       1.414  -6.293  -0.004  0.00  0.00    +0.232 C 
ATOM     10  N   UNL     1       2.462  -7.133  -0.219  0.00  0.00    -0.231 N 
ATOM     11  N   UNL     1       2.092  -8.349  -0.027  0.00  0.00    -0.086 NA
ATOM     12  N   UNL     1       0.848  -8.414   0.309  0.00  0.00    -0.165 N 
ATOM     13  N   UNL     1       0.353  -7.110   0.340  0.00  0.00    -0.193 N 
ATOM     14  C   UNL     1      -0.943  -6.495   0.647  0.00  0.00    +0.159 C 
ATOM     15  H   UNL     1       0.349  -9.222   0.505  0.00  0.00    +0.195 HD
ATOM     16  H   UNL     1       3.355  -6.857  -0.479  0.00  0.00    +0.193 HD
ENDROOT
BRANCH   1  21
ATOM     17  C   UNL     1       0.222   1.195  -1.358  0.00  0.00    +0.001 A 
ATOM     18  C   UNL     1       1.138   2.026  -0.737  0.00  0.00    +0.003 A 
ATOM     19  C   UNL     1       2.091   1.502   0.116  0.00  0.00    +0.039 A 
ATOM     20  C   UNL     1       2.135   0.141   0.355  0.00  0.00    +0.131 A 
ATOM     21  C   UNL     1       1.212  -0.704  -0.270  0.00  0.00    +0.011 A 
ATOM     22  C   UNL     1       0.252  -0.164  -1.131  0.00  0.00    +0.011 A 
ATOM     23  F   UNL     1       3.067  -0.371   1.188  0.00  0.00    -0.205 F 
ENDBRANCH   1  21
BRANCH  14  24
ATOM     24  C   UNL     1      -1.961  -7.079  -0.299  0.00  0.00    +0.014 A 
ATOM     25  C   UNL     1      -1.560  -7.570  -1.527  0.00  0.00    +0.008 A 
ATOM     26  C   UNL     1      -2.493  -8.106  -2.395  0.00  0.00    +0.001 A 
ATOM     27  C   UNL     1      -3.827  -8.152  -2.036  0.00  0.00    +0.003 A 
ATOM     28  C   UNL     1      -4.230  -7.662  -0.808  0.00  0.00    +0.039 A 
ATOM     29  C   UNL     1      -3.296  -7.129   0.065  0.00  0.00    +0.129 A 
ATOM     30  F   UNL     1      -3.687  -6.654   1.267  0.00  0.00    -0.205 F 
ENDBRANCH  14  24
TORSDOF 2
