REMARK  Name = ZINC39676576
REMARK  12 active torsions:
REMARK  status: ('A' for Active; 'I' for Inactive)
REMARK    1  A    between atoms: C_1  and  O_2
REMARK    2  A    between atoms: O_2  and  C_3
REMARK    3  A    between atoms: C_6  and  C_9
REMARK    4  A    between atoms: C_9  and  C_10
REMARK    5  A    between atoms: C_9  and  N_18
REMARK    6  A    between atoms: C_13  and  O_16
REMARK    7  A    between atoms: O_16  and  C_17
REMARK    8  A    between atoms: C_19  and  C_21
REMARK    9  A    between atoms: C_32  and  C_34
REMARK   10  A    between atoms: C_34  and  C_35
REMARK   11  A    between atoms: C_35  and  S_36
REMARK   12  A    between atoms: S_36  and  C_37
REMARK                            x       y       z     vdW  Elec       q    Type
REMARK                         _______ _______ _______ _____ _____    ______ ____
ROOT
ATOM      1  N   UNL     1       0.452  -2.945  -4.438  0.00  0.00    -0.304 N 
ATOM      2  C   UNL     1       0.681  -3.526  -5.633  0.00  0.00    +0.219 C 
ATOM      3  O   UNL     1       1.534  -3.080  -6.370  0.00  0.00    -0.275 OA
ATOM      4  H   UNL     1      -0.230  -3.301  -3.848  0.00  0.00    +0.150 HD
ENDROOT
BRANCH   2   5
ATOM      5  C   UNL     1      -0.125  -4.728  -6.052  0.00  0.00    +0.100 C 
ATOM      6  C   UNL     1       0.726  -5.662  -6.942  0.00  0.00    +0.121 C 
ATOM      7  N   UNL     1      -0.221  -6.174  -7.960  0.00  0.00    -0.300 N 
ATOM      8  C   UNL     1      -1.072  -5.006  -8.293  0.00  0.00    +0.115 C 
ATOM      9  C   UNL     1      -1.303  -4.299  -6.942  0.00  0.00    -0.004 C 
ATOM     10  C   UNL     1      -1.299  -2.786  -7.132  0.00  0.00    -0.010 C 
ATOM     11  C   UNL     1      -2.513  -2.377  -7.971  0.00  0.00    -0.082 C 
ATOM     12  N   UNL     1      -3.744  -2.802  -7.294  0.00  0.00    +0.379 N 
ATOM     13  C   UNL     1      -3.783  -4.267  -7.199  0.00  0.00    -0.082 C 
ATOM     14  C   UNL     1      -2.623  -4.755  -6.327  0.00  0.00    -0.010 C 
ATOM     15  C   UNL     1      -0.293  -7.420  -8.469  0.00  0.00    +0.216 C 
ATOM     16  O   UNL     1      -1.132  -7.686  -9.304  0.00  0.00    -0.276 OA
ATOM     17  H   UNL     1      -3.770  -2.406  -6.367  0.00  0.00    -0.086 HD
ATOM     18  H   UNL     1      -4.543  -2.479  -7.818  0.00  0.00    -0.086 HD
BRANCH  15  19
ATOM     19  C   UNL     1       0.668  -8.482  -8.000  0.00  0.00    +0.106 C 
BRANCH  19  20
ATOM     20  C   UNL     1       0.373  -9.794  -8.729  0.00  0.00    +0.078 C 
BRANCH  20  21
ATOM     21  S   UNL     1       1.529 -11.072  -8.165  0.00  0.00    -0.164 S 
ATOM     22  C   UNL     1       1.052 -12.545  -9.111  0.00  0.00    +0.084 C 
ENDBRANCH  20  21
ENDBRANCH  19  20
ENDBRANCH  15  19
ENDBRANCH   2   5
BRANCH   1  23
ATOM     23  C   UNL     1       1.235  -1.776  -4.030  0.00  0.00    +0.134 C 
BRANCH  23  27
ATOM     24  C   UNL     1      -0.549   1.762  -5.630  0.00  0.00    +0.120 A 
ATOM     25  C   UNL     1       0.832   1.627  -5.612  0.00  0.00    +0.046 A 
ATOM     26  C   UNL     1       1.406   0.483  -5.094  0.00  0.00    +0.009 A 
ATOM     27  C   UNL     1       0.606  -0.528  -4.594  0.00  0.00    -0.023 A 
ATOM     28  C   UNL     1      -0.770  -0.397  -4.612  0.00  0.00    +0.009 A 
ATOM     29  C   UNL     1      -1.349   0.749  -5.123  0.00  0.00    +0.046 A 
BRANCH  24  31
ATOM     30  C   UNL     1      -0.231   3.889  -6.644  0.00  0.00    +0.277 C 
ATOM     31  O   UNL     1      -1.117   2.887  -6.139  0.00  0.00    -0.495 OA
ENDBRANCH  24  31
ENDBRANCH  23  27
BRANCH  23  32
ATOM     32  C   UNL     1       1.262  -1.689  -2.526  0.00  0.00    -0.023 A 
ATOM     33  C   UNL     1       0.124  -1.981  -1.797  0.00  0.00    +0.009 A 
ATOM     34  C   UNL     1       0.145  -1.902  -0.418  0.00  0.00    +0.046 A 
ATOM     35  C   UNL     1       1.311  -1.529   0.235  0.00  0.00    +0.120 A 
ATOM     36  C   UNL     1       2.452  -1.237  -0.498  0.00  0.00    +0.046 A 
ATOM     37  C   UNL     1       2.426  -1.323  -1.876  0.00  0.00    +0.009 A 
BRANCH  35  38
ATOM     38  O   UNL     1       1.335  -1.450   1.592  0.00  0.00    -0.495 OA
ATOM     39  C   UNL     1       2.569  -1.060   2.198  0.00  0.00    +0.277 C 
ENDBRANCH  35  38
ENDBRANCH  23  32
ENDBRANCH   1  23
TORSDOF 9
