REMARK  Name = ZINC67610859
REMARK  6 active torsions:
REMARK  status: ('A' for Active; 'I' for Inactive)
REMARK    1  A    between atoms: C_1  and  C_2
REMARK    2  A    between atoms: C_4  and  C_27
REMARK    3  A    between atoms: C_9  and  C_10
REMARK    4  A    between atoms: C_10  and  N_11
REMARK    5  A    between atoms: C_17  and  N_20
REMARK    6  A    between atoms: N_20  and  C_21
REMARK                            x       y       z     vdW  Elec       q    Type
REMARK                         _______ _______ _______ _____ _____    ______ ____
ROOT
ATOM      1  N   UNL     1      -1.348   0.142   2.992  0.00  0.00    -0.295 N 
ATOM      2  C   UNL     1      -1.592   0.762   4.163  0.00  0.00    +0.303 C 
ATOM      3  O   UNL     1      -0.671   1.228   4.807  0.00  0.00    -0.253 OA
ATOM      4  N   UNL     1      -2.855   0.865   4.622  0.00  0.00    -0.284 N 
ATOM      5  C   UNL     1      -4.058   0.342   3.950  0.00  0.00    +0.111 C 
ATOM      6  C   UNL     1      -5.093   0.146   5.085  0.00  0.00    +0.043 C 
ATOM      7  C   UNL     1      -4.792   1.366   5.995  0.00  0.00    +0.089 C 
ATOM      8  C   UNL     1      -3.260   1.512   5.878  0.00  0.00    +0.131 C 
ATOM      9  H   UNL     1      -2.083  -0.230   2.478  0.00  0.00    +0.151 HD
ENDROOT
BRANCH   7  10
ATOM     10  N   UNL     1      -5.182   1.088   7.380  0.00  0.00    -0.339 N 
ATOM     11  H   UNL     1      -5.222   0.173   7.699  0.00  0.00    +0.146 HD
BRANCH  10  12
ATOM     12  C   UNL     1      -5.497   2.142   8.241  0.00  0.00    +0.027 A 
ATOM     13  C   UNL     1      -5.447   3.453   7.785  0.00  0.00    +0.023 A 
ATOM     14  C   UNL     1      -5.759   4.492   8.639  0.00  0.00    +0.002 A 
ATOM     15  C   UNL     1      -6.122   4.229   9.947  0.00  0.00    +0.000 A 
ATOM     16  C   UNL     1      -6.173   2.925  10.405  0.00  0.00    +0.002 A 
ATOM     17  C   UNL     1      -5.867   1.881   9.555  0.00  0.00    +0.023 A 
ENDBRANCH  10  12
ENDBRANCH   7  10
BRANCH   1  18
ATOM     18  C   UNL     1       0.025   0.030   2.493  0.00  0.00    +0.146 C 
BRANCH  18  27
ATOM     19  C   UNL     1      -0.018   1.503   0.010  0.00  0.00    +0.044 C 
ATOM     20  C   UNL     1       0.002  -0.004   0.002  0.00  0.00    -0.039 A 
ATOM     21  C   UNL     1       0.006  -0.706  -1.212  0.00  0.00    +0.024 A 
ATOM     22  C   UNL     1       0.025  -2.059  -1.209  0.00  0.00    +0.016 A 
ATOM     23  N   UNL     1       0.040  -2.750  -0.040  0.00  0.00    -0.326 N 
ATOM     24  H   UNL     1       0.054  -3.720  -0.057  0.00  0.00    +0.169 HD
ATOM     25  C   UNL     1       0.037  -2.105   1.141  0.00  0.00    +0.254 A 
ATOM     26  O   UNL     1       0.051  -2.740   2.183  0.00  0.00    -0.268 OA
ATOM     27  C   UNL     1       0.023  -0.700   1.175  0.00  0.00    +0.037 A 
ATOM     28  C   UNL     1       0.029  -2.807  -2.517  0.00  0.00    +0.063 C 
ENDBRANCH  18  27
ENDBRANCH   1  18
TORSDOF 4
