REMARK  Name = ZINC21240150
REMARK  10 active torsions:
REMARK  status: ('A' for Active; 'I' for Inactive)
REMARK    1  A    between atoms: C_1  and  C_2
REMARK    2  A    between atoms: C_2  and  C_3
REMARK    3  A    between atoms: C_3  and  O_4
REMARK    4  A    between atoms: O_4  and  C_5
REMARK    5  A    between atoms: C_8  and  C_11
REMARK    6  A    between atoms: C_16  and  C_22
REMARK    7  A    between atoms: C_24  and  O_30
REMARK    8  A    between atoms: C_25  and  O_29
REMARK    9  A    between atoms: O_30  and  C_31
REMARK   10  A    between atoms: C_31  and  C_32
REMARK                            x       y       z     vdW  Elec       q    Type
REMARK                         _______ _______ _______ _____ _____    ______ ____
ROOT
ATOM      1  C   UNL     1      -0.751   1.592  -1.233  0.00  0.00    +0.032 C 
ATOM      2  C   UNL     1      -0.013   1.086   0.008  0.00  0.00    +0.059 C 
ATOM      3  C   UNL     1      -0.717   1.572   1.250  0.00  0.00    +0.018 C 
ATOM      4  C   UNL     1      -2.050   1.777   1.254  0.00  0.00    +0.020 C 
ATOM      5  C   UNL     1      -2.735   2.256   2.513  0.00  0.00    +0.063 C 
ATOM      6  C   UNL     1      -2.040   1.647   3.732  0.00  0.00    +0.109 C 
ATOM      7  C   UNL     1      -0.551   1.835   3.595  0.00  0.00    +0.218 C 
ATOM      8  O   UNL     1       0.129   2.017   4.583  0.00  0.00    -0.275 OA
ATOM      9  N   UNL     1       0.025   1.802   2.381  0.00  0.00    -0.289 N 
ATOM     10  C   UNL     1      -2.829   1.553   0.106  0.00  0.00    +0.162 C 
ATOM     11  O   UNL     1      -4.029   1.736   0.152  0.00  0.00    -0.292 OA
ATOM     12  C   UNL     1      -2.198   1.090  -1.179  0.00  0.00    +0.088 C 
ATOM     13  H   UNL     1       1.111   1.963   2.303  0.00  0.00    +0.155 HD
ENDROOT
BRANCH   5  14
ATOM     14  C   UNL     1      -2.656   3.759   2.588  0.00  0.00    -0.034 A 
ATOM     15  C   UNL     1      -3.816   4.510   2.625  0.00  0.00    +0.053 A 
ATOM     16  C   UNL     1      -3.746   5.892   2.694  0.00  0.00    +0.163 A 
ATOM     17  C   UNL     1      -2.506   6.522   2.725  0.00  0.00    +0.177 A 
ATOM     18  C   UNL     1      -1.346   5.764   2.687  0.00  0.00    +0.086 A 
ATOM     19  C   UNL     1      -1.423   4.383   2.624  0.00  0.00    +0.028 A 
ATOM     20 CL   UNL     1       0.204   6.545   2.725  0.00  0.00    -0.080 Cl
BRANCH  17  21
ATOM     21  O   UNL     1      -2.431   7.878   2.792  0.00  0.00    -0.502 OA
ATOM     22  H   UNL     1      -1.450   8.375   2.816  0.00  0.00    +0.292 HD
ENDBRANCH  17  21
BRANCH  16  23
ATOM     23  O   UNL     1      -4.887   6.631   2.730  0.00  0.00    -0.489 OA
BRANCH  23  24
ATOM     24  C   UNL     1      -6.124   5.917   2.694  0.00  0.00    +0.226 C 
ATOM     25  C   UNL     1      -7.287   6.910   2.743  0.00  0.00    +0.048 C 
ENDBRANCH  23  24
ENDBRANCH  16  23
ENDBRANCH   5  14
BRANCH   1  29
ATOM     26  C   UNL     1       1.166   0.104  -4.750  0.00  0.00    +0.121 A 
ATOM     27  C   UNL     1       1.062   1.472  -4.541  0.00  0.00    +0.046 A 
ATOM     28  C   UNL     1       0.442   1.950  -3.403  0.00  0.00    +0.007 A 
ATOM     29  C   UNL     1      -0.075   1.067  -2.473  0.00  0.00    -0.043 A 
ATOM     30  C   UNL     1       0.031  -0.296  -2.677  0.00  0.00    +0.007 A 
ATOM     31  C   UNL     1       0.645  -0.779  -3.816  0.00  0.00    +0.046 A 
BRANCH  26  32
ATOM     32  O   UNL     1       1.775  -0.369  -5.869  0.00  0.00    -0.492 OA
BRANCH  32  33
ATOM     33  C   UNL     1       1.845  -1.788  -6.019  0.00  0.00    +0.229 C 
BRANCH  33  35
ATOM     34  C   UNL     1       2.635  -3.648  -7.489  0.00  0.00    +0.007 C 
ATOM     35  C   UNL     1       2.560  -2.128  -7.328  0.00  0.00    +0.038 C 
ENDBRANCH  33  35
ENDBRANCH  32  33
ENDBRANCH  26  32
ENDBRANCH   1  29
TORSDOF 8
