REMARK  Name = ZINC21578783
REMARK  8 active torsions:
REMARK  status: ('A' for Active; 'I' for Inactive)
REMARK    1  A    between atoms: C_1  and  C_2
REMARK    2  A    between atoms: C_2  and  C_3
REMARK    3  A    between atoms: C_3  and  C_27
REMARK    4  A    between atoms: N_6  and  N_10
REMARK    5  A    between atoms: C_11  and  C_13
REMARK    6  A    between atoms: C_13  and  N_14
REMARK    7  A    between atoms: N_17  and  C_20
REMARK    8  A    between atoms: C_25  and  O_26
REMARK                            x       y       z     vdW  Elec       q    Type
REMARK                         _______ _______ _______ _____ _____    ______ ____
ROOT
ATOM      1  N   UNL     1       1.457   0.994   8.599  0.00  0.00    -0.225 N 
ATOM      2  C   UNL     1       1.254   0.465   7.377  0.00  0.00    +0.213 C 
ATOM      3  O   UNL     1       2.005  -0.387   6.952  0.00  0.00    -0.276 OA
ATOM      4  H   UNL     1       0.776   1.767   8.985  0.00  0.00    +0.173 HD
ENDROOT
BRANCH   1   8
ATOM      5  C   UNL     1       4.536   0.418  10.475  0.00  0.00    +0.139 C 
ATOM      6  C   UNL     1       3.663   1.272   9.577  0.00  0.00    +0.268 C 
ATOM      7  O   UNL     1       3.925   2.368   9.129  0.00  0.00    -0.271 OA
ATOM      8  N   UNL     1       2.536   0.559   9.380  0.00  0.00    -0.137 N 
ATOM      9  C   UNL     1       2.573  -0.611  10.026  0.00  0.00    +0.327 C 
ATOM     10  O   UNL     1       1.670  -1.424  10.003  0.00  0.00    -0.251 OA
ATOM     11  N   UNL     1       3.723  -0.790  10.701  0.00  0.00    -0.280 N 
ATOM     12  H   UNL     1       4.112  -1.605  11.328  0.00  0.00    +0.152 HD
BRANCH   5  13
ATOM     13  C   UNL     1       5.827   0.066   9.781  0.00  0.00    -0.015 A 
ATOM     14  C   UNL     1       6.930   0.888   9.915  0.00  0.00    +0.006 A 
ATOM     15  C   UNL     1       8.115   0.563   9.283  0.00  0.00    +0.000 A 
ATOM     16  C   UNL     1       8.194  -0.579   8.508  0.00  0.00    +0.000 A 
ATOM     17  C   UNL     1       7.090  -1.399   8.370  0.00  0.00    +0.000 A 
ATOM     18  C   UNL     1       5.906  -1.076   9.007  0.00  0.00    +0.006 A 
ENDBRANCH   5  13
BRANCH   5  20
ATOM     19  C   UNL     1       3.505   1.325  12.562  0.00  0.00    +0.007 C 
ATOM     20  C   UNL     1       4.816   1.138  11.796  0.00  0.00    +0.037 C 
ENDBRANCH   5  20
ENDBRANCH   1   8
BRANCH   2  21
ATOM     21  C   UNL     1       0.092   0.932   6.537  0.00  0.00    +0.020 C 
BRANCH  21  22
ATOM     22  N   UNL     1       0.090   0.208   5.259  0.00  0.00    +0.387 N 
ATOM     23  C   UNL     1      -1.152   0.460   4.514  0.00  0.00    -0.059 C 
ATOM     24  C   UNL     1      -1.150  -0.372   3.229  0.00  0.00    +0.086 C 
ATOM     25  N   UNL     1       0.026  -0.019   2.422  0.00  0.00    -0.331 N 
ATOM     26  C   UNL     1       1.267  -0.270   3.166  0.00  0.00    +0.086 C 
ATOM     27  C   UNL     1       1.266   0.562   4.451  0.00  0.00    -0.059 C 
ATOM     28  H   UNL     1       0.141  -0.868   5.481  0.00  0.00    -0.081 HD
BRANCH  25  29
ATOM     29  C   UNL     1       0.023  -0.709   1.204  0.00  0.00    +0.072 A 
ATOM     30  C   UNL     1       0.042  -2.096   1.190  0.00  0.00    +0.027 A 
ATOM     31  C   UNL     1       0.040  -2.775  -0.014  0.00  0.00    +0.002 A 
ATOM     32  C   UNL     1       0.018  -2.075  -1.206  0.00  0.00    +0.004 A 
ATOM     33  C   UNL     1      -0.006  -0.692  -1.200  0.00  0.00    +0.047 A 
ATOM     34  C   UNL     1       0.002  -0.004   0.002  0.00  0.00    +0.138 A 
BRANCH  34  35
ATOM     35  O   UNL     1      -0.016   1.356   0.009  0.00  0.00    -0.505 OA
ATOM     36  H   UNL     1      -0.033   1.911  -0.940  0.00  0.00    +0.292 HD
ENDBRANCH  34  35
ENDBRANCH  25  29
ENDBRANCH  21  22
ENDBRANCH   2  21
TORSDOF 7
