REMARK  Name = ZINC16768489
REMARK  6 active torsions:
REMARK  status: ('A' for Active; 'I' for Inactive)
REMARK    1  A    between atoms: C_1  and  C_2
REMARK    2  A    between atoms: C_5  and  C_24
REMARK    3  A    between atoms: N_8  and  C_10
REMARK    4  A    between atoms: C_11  and  C_22
REMARK    5  A    between atoms: C_13  and  C_15
REMARK    6  A    between atoms: C_16  and  C_17
REMARK                            x       y       z     vdW  Elec       q    Type
REMARK                         _______ _______ _______ _____ _____    ______ ____
ROOT
ATOM      1  C   UNL     1      -3.437   2.182   0.030  0.00  0.00    +0.227 A 
ATOM      2  C   UNL     1      -2.754   3.390   0.033  0.00  0.00    +0.201 A 
ATOM      3  N   UNL     1      -1.427   3.095   0.025  0.00  0.00    -0.197 NA
ATOM      4  C   UNL     1      -1.289   1.790   0.018  0.00  0.00    +0.224 A 
ATOM      5  O   UNL     1      -2.506   1.209   0.015  0.00  0.00    -0.421 OA
ENDROOT
BRANCH   1  11
ATOM      6  C   UNL     1      -7.038  -1.053   0.158  0.00  0.00    +0.009 C 
ATOM      7  C   UNL     1      -6.670   0.431   0.184  0.00  0.00    +0.004 C 
ATOM      8  C   UNL     1      -7.371   1.154  -0.970  0.00  0.00    +0.009 C 
ATOM      9  C   UNL     1      -6.950   2.626  -0.971  0.00  0.00    +0.004 C 
ATOM     10  C   UNL     1      -5.427   2.716  -1.091  0.00  0.00    +0.111 C 
ATOM     11  N   UNL     1      -4.803   2.011   0.036  0.00  0.00    -0.299 N 
ATOM     12  C   UNL     1      -5.155   0.585   0.031  0.00  0.00    +0.111 C 
ATOM     13  C   UNL     1      -7.599   3.342  -2.156  0.00  0.00    +0.009 C 
ENDBRANCH   1  11
BRANCH   4  14
ATOM     14  C   UNL     1      -0.013   1.076   0.008  0.00  0.00    +0.069 C 
ATOM     15  C   UNL     1       1.149   1.768   0.001  0.00  0.00    +0.020 C 
BRANCH  15  16
ATOM     16  C   UNL     1       2.426   1.054  -0.015  0.00  0.00    +0.012 A 
ATOM     17  C   UNL     1       3.714   1.566  -0.025  0.00  0.00    +0.015 A 
ATOM     18  C   UNL     1       4.768   0.683  -0.039  0.00  0.00    +0.008 A 
ATOM     19  C   UNL     1       4.516  -0.653  -0.043  0.00  0.00    +0.046 A 
ATOM     20  S   UNL     1       2.732  -0.705  -0.020  0.00  0.00    -0.097 S 
ENDBRANCH  15  16
ENDBRANCH   4  14
BRANCH   2  21
ATOM     21  C   UNL     1      -3.337   4.698   0.043  0.00  0.00    +0.124 C 
ATOM     22  N   UNL     1      -3.799   5.735   0.050  0.00  0.00    -0.189 NA
ENDBRANCH   2  21
TORSDOF 4
