REMARK  Name = ZINC38002513
REMARK  5 active torsions:
REMARK  status: ('A' for Active; 'I' for Inactive)
REMARK    1  A    between atoms: C_1  and  C_2
REMARK    2  A    between atoms: C_2  and  C_4
REMARK    3  A    between atoms: C_2  and  N_10
REMARK    4  A    between atoms: N_10  and  C_11
REMARK    5  A    between atoms: C_13  and  C_18
REMARK                            x       y       z     vdW  Elec       q    Type
REMARK                         _______ _______ _______ _____ _____    ______ ____
ROOT
ATOM      1  C   UNL     1       0.027  -0.639   2.399  0.00  0.00    +0.047 A 
ATOM      2  C   UNL     1      -1.323  -0.333   2.474  0.00  0.00    +0.037 A 
ATOM      3  C   UNL     1      -2.001  -0.485   3.684  0.00  0.00    +0.038 A 
ATOM      4  C   UNL     1      -1.316  -0.943   4.811  0.00  0.00    +0.014 A 
ATOM      5  C   UNL     1       0.027  -1.244   4.727  0.00  0.00    +0.022 A 
ATOM      6  C   UNL     1       0.699  -1.100   3.526  0.00  0.00    +0.062 A 
ATOM      7 CL   UNL     1       2.389  -1.488   3.427  0.00  0.00    -0.082 Cl
ENDROOT
BRANCH   3   8
ATOM      8  C   UNL     1      -3.441  -0.161   3.773  0.00  0.00    +0.242 C 
ATOM      9  O   UNL     1      -4.035   0.239   2.790  0.00  0.00    -0.270 OA
ATOM     10  N   UNL     1      -4.094  -0.307   4.942  0.00  0.00    -0.325 N 
ATOM     11  H   UNL     1      -3.619  -0.626   5.726  0.00  0.00    +0.145 HD
ATOM     12  H   UNL     1      -5.038  -0.095   5.000  0.00  0.00    +0.145 HD
ENDBRANCH   3   8
BRANCH   1  13
ATOM     13  N   UNL     1       0.711  -0.489   1.189  0.00  0.00    -0.336 N 
ATOM     14  H   UNL     1       1.654  -0.707   1.135  0.00  0.00    +0.147 HD
BRANCH  13  16
ATOM     15  C   UNL     1      -0.019   1.526   0.010  0.00  0.00    +0.033 C 
ATOM     16  C   UNL     1       0.002  -0.004   0.002  0.00  0.00    +0.104 C 
BRANCH  16  17
ATOM     17  C   UNL     1       0.707  -0.490  -1.238  0.00  0.00    +0.011 A 
ATOM     18  C   UNL     1       0.176  -0.943  -2.400  0.00  0.00    +0.014 A 
ATOM     19  C   UNL     1       1.026  -1.341  -3.415  0.00  0.00    +0.023 A 
ATOM     20  C   UNL     1       2.366  -1.267  -3.218  0.00  0.00    +0.055 A 
ATOM     21  S   UNL     1       2.459  -0.612  -1.560  0.00  0.00    -0.085 S 
ATOM     22 BR   UNL     1       3.770  -1.732  -4.396  0.00  0.00    -0.043 Br
ENDBRANCH  16  17
ENDBRANCH  13  16
ENDBRANCH   1  13
TORSDOF 4
