REMARK  Name = ZINC20731426
REMARK  10 active torsions:
REMARK  status: ('A' for Active; 'I' for Inactive)
REMARK    1  A    between atoms: C_1  and  C_2
REMARK    2  A    between atoms: C_2  and  C_3
REMARK    3  A    between atoms: C_2  and  C_4
REMARK    4  A    between atoms: C_4  and  C_6
REMARK    5  A    between atoms: C_4  and  N_10
REMARK    6  A    between atoms: C_6  and  O_8
REMARK    7  A    between atoms: O_8  and  C_9
REMARK    8  A    between atoms: C_22  and  C_24
REMARK    9  A    between atoms: C_29  and  O_30
REMARK   10  A    between atoms: O_30  and  C_31
REMARK                            x       y       z     vdW  Elec       q    Type
REMARK                         _______ _______ _______ _____ _____    ______ ____
ROOT
ATOM      1  N   UNL     1      -1.190  -2.009   2.321  0.00  0.00    -0.286 N 
ATOM      2  C   UNL     1      -1.291  -2.680   1.157  0.00  0.00    +0.304 C 
ATOM      3  O   UNL     1      -1.490  -2.075   0.122  0.00  0.00    -0.253 OA
ATOM      4  N   UNL     1      -1.171  -4.023   1.141  0.00  0.00    -0.273 N 
ATOM      5  C   UNL     1      -1.164  -4.763  -0.129  0.00  0.00    +0.116 C 
ATOM      6  C   UNL     1       0.202  -5.439  -0.308  0.00  0.00    +0.074 C 
ATOM      7  C   UNL     1       0.594  -6.092   0.991  0.00  0.00    +0.040 A 
ATOM      8  C   UNL     1       0.051  -5.805   2.194  0.00  0.00    +0.062 A 
ATOM      9  N   UNL     1       0.644  -6.571   3.111  0.00  0.00    -0.348 N 
ATOM     10  C   UNL     1       1.536  -7.327   2.526  0.00  0.00    +0.171 A 
ATOM     11  N   UNL     1       1.532  -7.057   1.200  0.00  0.00    -0.349 N 
ATOM     12  H   UNL     1       2.092  -7.472   0.525  0.00  0.00    +0.166 HD
ATOM     13  C   UNL     1      -1.038  -4.784   2.397  0.00  0.00    +0.160 C 
ATOM     14  H   UNL     1      -1.096  -2.495   3.155  0.00  0.00    +0.151 HD
ATOM     15  H   UNL     1       0.447  -6.567   4.061  0.00  0.00    +0.167 HD
ENDROOT
BRANCH  13  16
ATOM     16  C   UNL     1      -2.336  -5.480   2.714  0.00  0.00    +0.021 A 
ATOM     17  C   UNL     1      -2.810  -6.473   1.878  0.00  0.00    +0.009 A 
ATOM     18  C   UNL     1      -4.001  -7.112   2.168  0.00  0.00    +0.001 A 
ATOM     19  C   UNL     1      -4.720  -6.761   3.296  0.00  0.00    +0.004 A 
ATOM     20  C   UNL     1      -4.250  -5.770   4.136  0.00  0.00    +0.046 A 
ATOM     21  C   UNL     1      -3.052  -5.130   3.849  0.00  0.00    +0.135 A 
BRANCH  21  22
ATOM     22  O   UNL     1      -2.584  -4.159   4.677  0.00  0.00    -0.405 OA
BRANCH  22  23
ATOM     23  C   UNL     1      -3.374  -3.851   5.827  0.00  0.00    +0.575 C 
ATOM     24  F   UNL     1      -3.503  -4.993   6.624  0.00  0.00    -0.133 F 
ATOM     25  F   UNL     1      -2.751  -2.837   6.562  0.00  0.00    -0.133 F 
ATOM     26  F   UNL     1      -4.642  -3.420   5.420  0.00  0.00    -0.133 F 
ENDBRANCH  22  23
ENDBRANCH  21  22
ENDBRANCH  13  16
BRANCH   1  27
ATOM     27  C   UNL     1      -1.224  -0.544   2.327  0.00  0.00    +0.186 C 
BRANCH  27  29
ATOM     28  C   UNL     1      -2.712   1.462   2.353  0.00  0.00    +0.009 C 
ATOM     29  C   UNL     1      -2.678  -0.067   2.347  0.00  0.00    +0.014 C 
ATOM     30  C   UNL     1      -3.402  -0.589   1.105  0.00  0.00    +0.009 C 
ENDBRANCH  27  29
BRANCH  27  31
ATOM     31  C   UNL     1      -0.510  -0.030   3.551  0.00  0.00    +0.328 C 
ATOM     32  O   UNL     1      -0.023  -0.807   4.338  0.00  0.00    -0.249 OA
BRANCH  31  33
ATOM     33  O   UNL     1      -0.415   1.291   3.767  0.00  0.00    -0.467 OA
ATOM     34  C   UNL     1       0.275   1.708   4.947  0.00  0.00    +0.280 C 
ENDBRANCH  31  33
ENDBRANCH  27  31
ENDBRANCH   1  27
TORSDOF 7
