REMARK  Name = ZINC40548899
REMARK  12 active torsions:
REMARK  status: ('A' for Active; 'I' for Inactive)
REMARK    1  A    between atoms: C_1  and  C_2
REMARK    2  A    between atoms: C_2  and  C_3
REMARK    3  A    between atoms: C_3  and  C_4
REMARK    4  A    between atoms: C_4  and  C_5
REMARK    5  A    between atoms: C_5  and  O_6
REMARK    6  A    between atoms: O_6  and  C_7
REMARK    7  A    between atoms: C_10  and  C_13
REMARK    8  A    between atoms: C_16  and  C_32
REMARK    9  A    between atoms: N_23  and  C_24
REMARK   10  A    between atoms: C_34  and  C_40
REMARK   11  A    between atoms: C_35  and  C_39
REMARK   12  A    between atoms: C_37  and  O_38
REMARK                            x       y       z     vdW  Elec       q    Type
REMARK                         _______ _______ _______ _____ _____    ______ ____
ROOT
ATOM      1  C   UNL     1      -7.588  -6.665  -0.023  0.00  0.00    +0.142 C 
ATOM      2  C   UNL     1      -8.097  -7.053  -1.384  0.00  0.00    +0.035 A 
ATOM      3  C   UNL     1      -8.486  -6.636  -2.661  0.00  0.00    +0.102 A 
ATOM      4  N   UNL     1      -8.839  -7.712  -3.337  0.00  0.00    -0.173 NA
ATOM      5  N   UNL     1      -8.710  -8.766  -2.614  0.00  0.00    -0.272 N 
ATOM      6  H   UNL     1      -8.911  -9.669  -2.905  0.00  0.00    +0.189 HD
ATOM      7  C   UNL     1      -8.248  -8.427  -1.374  0.00  0.00    +0.126 A 
ATOM      8  C   UNL     1      -7.854  -8.930  -0.054  0.00  0.00    +0.266 C 
ATOM      9  O   UNL     1      -7.873 -10.101   0.277  0.00  0.00    -0.268 OA
ATOM     10  N   UNL     1      -7.468  -7.913   0.741  0.00  0.00    -0.280 N 
ENDROOT
BRANCH   3  11
ATOM     11  C   UNL     1      -8.500  -5.239  -3.162  0.00  0.00    +0.044 A 
ATOM     12  C   UNL     1      -9.014  -4.216  -2.369  0.00  0.00    +0.017 A 
ATOM     13  C   UNL     1      -9.025  -2.919  -2.839  0.00  0.00    -0.047 A 
ATOM     14  C   UNL     1      -8.527  -2.630  -4.098  0.00  0.00    -0.044 A 
ATOM     15  C   UNL     1      -8.016  -3.637  -4.893  0.00  0.00    +0.049 A 
ATOM     16  C   UNL     1      -7.993  -4.943  -4.431  0.00  0.00    +0.126 A 
ATOM     17  C   UNL     1      -8.544  -1.210  -4.603  0.00  0.00    +0.044 C 
ATOM     18  C   UNL     1      -9.581  -1.813  -1.980  0.00  0.00    +0.044 C 
BRANCH  16  19
ATOM     19  O   UNL     1      -7.485  -5.934  -5.209  0.00  0.00    -0.506 OA
ATOM     20  H   UNL     1      -8.118  -6.302  -5.841  0.00  0.00    +0.292 HD
ENDBRANCH  16  19
ENDBRANCH   3  11
BRANCH  10  21
ATOM     21  C   UNL     1      -7.008  -8.032   2.127  0.00  0.00    +0.100 C 
ATOM     22  C   UNL     1      -8.118  -8.669   2.980  0.00  0.00    +0.047 C 
ATOM     23  C   UNL     1      -7.504  -9.069   4.352  0.00  0.00    +0.168 C 
ATOM     24  S   UNL     1      -5.874  -9.736   3.811  0.00  0.00    -0.029 S 
ATOM     25  O   UNL     1      -5.991 -11.139   3.614  0.00  0.00    -0.174 OA
ATOM     26  O   UNL     1      -4.860  -9.233   4.669  0.00  0.00    -0.174 OA
ATOM     27  C   UNL     1      -5.737  -8.913   2.173  0.00  0.00    +0.188 C 
ENDBRANCH  10  21
BRANCH   1  31
ATOM     28  C   UNL     1      -3.767  -4.780  -0.364  0.00  0.00    +0.121 A 
ATOM     29  C   UNL     1      -4.883  -4.031  -0.019  0.00  0.00    +0.046 A 
ATOM     30  C   UNL     1      -6.117  -4.643   0.091  0.00  0.00    +0.009 A 
ATOM     31  C   UNL     1      -6.240  -6.000  -0.143  0.00  0.00    -0.022 A 
ATOM     32  C   UNL     1      -5.130  -6.748  -0.488  0.00  0.00    +0.009 A 
ATOM     33  C   UNL     1      -3.895  -6.140  -0.604  0.00  0.00    +0.046 A 
BRANCH  28  34
ATOM     34  O   UNL     1      -2.553  -4.180  -0.473  0.00  0.00    -0.492 OA
BRANCH  34  35
ATOM     35  C   UNL     1      -2.496  -2.777  -0.212  0.00  0.00    +0.229 C 
BRANCH  35  36
ATOM     36  C   UNL     1      -1.058  -2.284  -0.382  0.00  0.00    +0.041 C 
BRANCH  36  37
ATOM     37  C   UNL     1      -0.997  -0.781  -0.102  0.00  0.00    +0.003 C 
BRANCH  37  39
ATOM     38  C   UNL     1       0.501   1.215   0.007  0.00  0.00    +0.004 C 
ATOM     39  C   UNL     1       0.441  -0.287  -0.273  0.00  0.00    -0.003 C 
ENDBRANCH  37  39
ENDBRANCH  36  37
ENDBRANCH  35  36
ENDBRANCH  34  35
ENDBRANCH  28  34
ENDBRANCH   1  31
TORSDOF 9
