REMARK  Name = ZINC64656944
REMARK  8 active torsions:
REMARK  status: ('A' for Active; 'I' for Inactive)
REMARK    1  A    between atoms: C_1  and  C_2
REMARK    2  A    between atoms: C_2  and  C_3
REMARK    3  A    between atoms: C_2  and  C_4
REMARK    4  A    between atoms: C_7  and  C_10
REMARK    5  A    between atoms: C_20  and  S_21
REMARK    6  A    between atoms: S_21  and  C_24
REMARK    7  A    between atoms: C_27  and  O_30
REMARK    8  A    between atoms: O_30  and  C_31
REMARK                            x       y       z     vdW  Elec       q    Type
REMARK                         _______ _______ _______ _____ _____    ______ ____
ROOT
ATOM      1  C   UNL     1      -6.168  -1.380   0.153  0.00  0.00    +0.066 C 
ATOM      2  C   UNL     1      -5.993  -2.898   0.294  0.00  0.00    +0.109 C 
ATOM      3  C   UNL     1      -5.460  -3.489  -0.980  0.00  0.00    +0.218 C 
ATOM      4  O   UNL     1      -4.653  -4.392  -0.904  0.00  0.00    -0.275 OA
ATOM      5  N   UNL     1      -5.834  -3.066  -2.199  0.00  0.00    -0.283 N 
ATOM      6  C   UNL     1      -6.611  -1.876  -2.306  0.00  0.00    +0.070 A 
ATOM      7  C   UNL     1      -6.760  -1.101  -1.188  0.00  0.00    +0.021 A 
ATOM      8  S   UNL     1      -7.778   0.238  -1.735  0.00  0.00    -0.097 S 
ATOM      9  C   UNL     1      -7.943  -0.266  -3.442  0.00  0.00    +0.074 A 
ATOM     10  C   UNL     1      -7.225  -1.418  -3.469  0.00  0.00    +0.122 A 
ATOM     11  H   UNL     1      -5.578  -3.562  -2.993  0.00  0.00    +0.155 HD
ENDROOT
BRANCH   1  15
ATOM     12  C   UNL     1      -2.369   0.544   0.483  0.00  0.00    -0.045 A 
ATOM     13  C   UNL     1      -3.381   0.855   1.372  0.00  0.00    +0.004 A 
ATOM     14  C   UNL     1      -4.610   0.233   1.265  0.00  0.00    +0.004 A 
ATOM     15  C   UNL     1      -4.828  -0.701   0.269  0.00  0.00    -0.039 A 
ATOM     16  C   UNL     1      -3.817  -1.011  -0.620  0.00  0.00    +0.004 A 
ATOM     17  C   UNL     1      -2.588  -0.386  -0.516  0.00  0.00    +0.004 A 
BRANCH  12  19
ATOM     18  C   UNL     1      -1.207   2.735   0.450  0.00  0.00    +0.012 C 
ATOM     19  C   UNL     1      -1.028   1.223   0.600  0.00  0.00    +0.013 C 
ATOM     20  C   UNL     1      -0.418   0.915   1.969  0.00  0.00    +0.012 C 
ENDBRANCH  12  19
ENDBRANCH   1  15
BRANCH  10  21
ATOM     21  S   UNL     1      -7.068  -2.329  -4.969  0.00  0.00    +0.027 S 
ATOM     22  O   UNL     1      -7.811  -1.622  -5.953  0.00  0.00    -0.164 OA
ATOM     23  O   UNL     1      -5.687  -2.624  -5.122  0.00  0.00    -0.164 OA
BRANCH  21  24
ATOM     24  C   UNL     1      -7.888  -3.870  -4.730  0.00  0.00    +0.094 A 
ATOM     25  C   UNL     1      -7.162  -4.989  -4.364  0.00  0.00    +0.031 A 
ATOM     26  C   UNL     1      -7.803  -6.199  -4.177  0.00  0.00    +0.047 A 
ATOM     27  C   UNL     1      -9.176  -6.290  -4.356  0.00  0.00    +0.120 A 
ATOM     28  C   UNL     1      -9.902  -5.166  -4.722  0.00  0.00    +0.047 A 
ATOM     29  C   UNL     1      -9.257  -3.958  -4.903  0.00  0.00    +0.031 A 
BRANCH  27  30
ATOM     30  O   UNL     1      -9.808  -7.479  -4.172  0.00  0.00    -0.495 OA
ATOM     31  C   UNL     1     -11.223  -7.499  -4.373  0.00  0.00    +0.277 C 
ENDBRANCH  27  30
ENDBRANCH  21  24
ENDBRANCH  10  21
TORSDOF 5
