REMARK  Name = ZINC26226729
REMARK  11 active torsions:
REMARK  status: ('A' for Active; 'I' for Inactive)
REMARK    1  A    between atoms: C_1  and  O_2
REMARK    2  A    between atoms: O_2  and  C_3
REMARK    3  A    between atoms: C_6  and  C_9
REMARK    4  A    between atoms: C_9  and  C_11
REMARK    5  A    between atoms: C_9  and  N_28
REMARK    6  A    between atoms: C_11  and  N_12
REMARK    7  A    between atoms: C_13  and  C_15
REMARK    8  A    between atoms: C_15  and  S_16
REMARK    9  A    between atoms: S_16  and  C_17
REMARK   10  A    between atoms: C_20  and  C_25
REMARK   11  A    between atoms: N_21  and  C_22
REMARK                            x       y       z     vdW  Elec       q    Type
REMARK                         _______ _______ _______ _____ _____    ______ ____
ROOT
ATOM      1  C   UNL     1      -7.416  -3.397  -5.790  0.00  0.00    +0.093 C 
ENDROOT
BRANCH   1   2
ATOM      2  N   UNL     1      -6.828  -2.953  -4.524  0.00  0.00    -0.316 N 
ATOM      3  C   UNL     1      -6.295  -1.718  -4.424  0.00  0.00    +0.223 C 
ATOM      4  O   UNL     1      -6.303  -0.976  -5.383  0.00  0.00    -0.275 OA
ATOM      5  H   UNL     1      -6.822  -3.626  -3.654  0.00  0.00    +0.149 HD
BRANCH   3   6
ATOM      6  C   UNL     1      -5.691  -1.261  -3.122  0.00  0.00    +0.173 C 
BRANCH   6   7
ATOM      7  S   UNL     1      -5.065   0.427  -3.307  0.00  0.00    -0.077 S 
BRANCH   7   8
ATOM      8  C   UNL     1      -4.433   0.699  -1.685  0.00  0.00    +0.192 A 
ATOM      9  N   UNL     1      -4.457  -0.151  -0.685  0.00  0.00    -0.122 NA
ATOM     10  N   UNL     1      -3.910   0.377   0.351  0.00  0.00    -0.133 NA
ATOM     11  C   UNL     1      -3.507   1.585   0.076  0.00  0.00    +0.137 A 
ATOM     12  N   UNL     1      -3.830   1.836  -1.228  0.00  0.00    -0.303 N 
BRANCH  12  13
ATOM     13  C   UNL     1      -3.580   3.067  -1.981  0.00  0.00    +0.091 C 
ATOM     14  C   UNL     1      -4.360   3.272  -3.281  0.00  0.00    +0.027 C 
ATOM     15  C   UNL     1      -2.867   2.939  -3.329  0.00  0.00    +0.027 C 
ENDBRANCH  12  13
BRANCH  11  16
ATOM     16  C   UNL     1      -2.818   2.533   1.024  0.00  0.00    +0.057 C 
ATOM     17  C   UNL     1      -1.483   2.087   1.623  0.00  0.00    +0.012 C 
ATOM     18  C   UNL     1      -2.738   2.128   2.498  0.00  0.00    +0.012 C 
ENDBRANCH  11  16
ENDBRANCH   7   8
ENDBRANCH   6   7
ENDBRANCH   3   6
ENDBRANCH   1   2
BRANCH   1  19
ATOM     19  C   UNL     1      -7.945  -4.824  -5.633  0.00  0.00    -0.020 C 
BRANCH  19  20
ATOM     20  N   UNL     1      -6.865  -5.696  -5.150  0.00  0.00    +0.385 N 
ATOM     21  C   UNL     1      -5.772  -5.771  -6.127  0.00  0.00    -0.078 C 
ATOM     22  C   UNL     1      -4.607  -6.565  -5.532  0.00  0.00    -0.019 C 
ATOM     23  C   UNL     1      -5.089  -7.973  -5.169  0.00  0.00    -0.004 C 
ATOM     24  C   UNL     1      -6.260  -7.866  -4.188  0.00  0.00    -0.019 C 
ATOM     25  C   UNL     1      -7.376  -7.033  -4.822  0.00  0.00    -0.078 C 
ATOM     26  H   UNL     1      -6.461  -5.256  -4.227  0.00  0.00    -0.081 HD
ENDBRANCH  19  20
BRANCH  19  30
ATOM     27  C   UNL     1      -9.343  -6.248  -9.412  0.00  0.00    +0.120 A 
ATOM     28  C   UNL     1     -10.129  -6.398  -8.279  0.00  0.00    +0.046 A 
ATOM     29  C   UNL     1      -9.674  -5.938  -7.059  0.00  0.00    +0.005 A 
ATOM     30  C   UNL     1      -8.438  -5.326  -6.966  0.00  0.00    -0.059 A 
ATOM     31  C   UNL     1      -7.655  -5.170  -8.095  0.00  0.00    +0.005 A 
ATOM     32  C   UNL     1      -8.102  -5.634  -9.316  0.00  0.00    +0.046 A 
BRANCH  27  34
ATOM     33  C   UNL     1      -8.925  -6.511 -11.738  0.00  0.00    +0.277 C 
ATOM     34  O   UNL     1      -9.788  -6.700 -10.614  0.00  0.00    -0.495 OA
ENDBRANCH  27  34
ENDBRANCH  19  30
ENDBRANCH   1  19
TORSDOF 10
