REMARK  Name = ZINC64055208
REMARK  9 active torsions:
REMARK  status: ('A' for Active; 'I' for Inactive)
REMARK    1  A    between atoms: C_1  and  C_2
REMARK    2  A    between atoms: C_2  and  C_3
REMARK    3  A    between atoms: C_3  and  C_4
REMARK    4  A    between atoms: C_8  and  S_10
REMARK    5  A    between atoms: S_10  and  C_11
REMARK    6  A    between atoms: C_11  and  C_13
REMARK    7  A    between atoms: C_11  and  C_14
REMARK    8  A    between atoms: C_19  and  C_26
REMARK    9  A    between atoms: C_20  and  C_25
REMARK                            x       y       z     vdW  Elec       q    Type
REMARK                         _______ _______ _______ _____ _____    ______ ____
ROOT
ATOM      1  C   UNL     1      -0.082  -6.608  -1.868  0.00  0.00    +0.116 C 
ATOM      2  C   UNL     1      -1.562  -6.966  -2.017  0.00  0.00    +0.027 C 
ENDROOT
BRANCH   1   3
ATOM      3  C   UNL     1       0.735  -7.436  -2.826  0.00  0.00    +0.137 C 
ATOM      4  N   UNL     1       0.875  -7.004  -4.056  0.00  0.00    -0.160 NA
ATOM      5  C   UNL     1       1.580  -7.666  -4.980  0.00  0.00    +0.271 C 
ATOM      6  O   UNL     1       1.690  -7.236  -6.116  0.00  0.00    -0.268 OA
ATOM      7  C   UNL     1       2.229  -8.954  -4.575  0.00  0.00    +0.071 C 
ATOM      8  C   UNL     1       2.976  -9.780  -5.322  0.00  0.00    -0.045 C 
ATOM      9  C   UNL     1       3.519 -11.027  -4.663  0.00  0.00    +0.076 C 
ATOM     10  S   UNL     1       2.860 -10.863  -2.955  0.00  0.00    -0.098 S 
ATOM     11  C   UNL     1       1.994  -9.328  -3.164  0.00  0.00    +0.111 C 
ATOM     12  N   UNL     1       1.277  -8.558  -2.380  0.00  0.00    -0.226 NA
ATOM     13  C   UNL     1       5.049 -11.025  -4.664  0.00  0.00    +0.024 C 
ATOM     14  C   UNL     1       3.264  -9.475  -6.770  0.00  0.00    +0.041 C 
ENDBRANCH   1   3
BRANCH   1  15
ATOM     15  S   UNL     1       0.154  -4.847  -2.237  0.00  0.00    -0.075 S 
BRANCH  15  20
ATOM     16  C   UNL     1      -1.413  -2.041   0.005  0.00  0.00    +0.049 A 
ATOM     17  C   UNL     1      -2.078  -2.754   0.984  0.00  0.00    +0.095 A 
ATOM     18  C   UNL     1      -2.034  -4.147   0.939  0.00  0.00    +0.274 A 
ATOM     19  N   UNL     1      -1.358  -4.739  -0.037  0.00  0.00    -0.183 NA
ATOM     20  C   UNL     1      -0.733  -4.021  -0.959  0.00  0.00    +0.192 A 
ATOM     21  N   UNL     1      -0.762  -2.696  -0.944  0.00  0.00    -0.227 NA
ATOM     22  O   UNL     1      -2.671  -4.885   1.880  0.00  0.00    -0.266 OA
BRANCH  16  23
ATOM     23  C   UNL     1      -1.433  -0.534   0.013  0.00  0.00    +0.055 C 
BRANCH  23  25
ATOM     24  C   UNL     1      -0.019   1.526   0.010  0.00  0.00    +0.004 C 
ATOM     25  C   UNL     1       0.002  -0.004   0.002  0.00  0.00    +0.003 C 
ENDBRANCH  23  25
ENDBRANCH  16  23
ENDBRANCH  15  20
ENDBRANCH   1  15
TORSDOF 5
