REMARK  Name = ZINC12580137
REMARK  4 active torsions:
REMARK  status: ('A' for Active; 'I' for Inactive)
REMARK    1  A    between atoms: C_8  and  N_10
REMARK    2  A    between atoms: C_12  and  N_47
REMARK    3  A    between atoms: C_17  and  C_18
REMARK    4  A    between atoms: C_17  and  N_47
REMARK                            x       y       z     vdW  Elec       q    Type
REMARK                         _______ _______ _______ _____ _____    ______ ____
ROOT
ATOM      1  N   UNL     1       0.480  -5.849  -3.026  0.00  0.00    -0.299 N 
ATOM      2  C   UNL     1       1.299  -4.642  -2.863  0.00  0.00    +0.093 C 
ATOM      3  C   UNL     1       1.009  -4.138  -1.432  0.00  0.00    -0.045 C 
ATOM      4  C   UNL     1      -0.402  -4.716  -1.173  0.00  0.00    +0.082 C 
ATOM      5  C   UNL     1      -0.486  -5.913  -2.094  0.00  0.00    +0.214 C 
ATOM      6  O   UNL     1      -1.306  -6.803  -2.003  0.00  0.00    -0.276 OA
ENDROOT
BRANCH   1  14
ATOM      7  C   UNL     1      -0.315 -11.278  -5.500  0.00  0.00    +0.000 A 
ATOM      8  C   UNL     1      -1.185 -10.596  -6.330  0.00  0.00    +0.000 A 
ATOM      9  C   UNL     1      -1.334  -9.229  -6.199  0.00  0.00    +0.004 A 
ATOM     10  C   UNL     1      -0.615  -8.539  -5.238  0.00  0.00    -0.042 A 
ATOM     11  C   UNL     1       0.255  -9.220  -4.407  0.00  0.00    -0.042 A 
ATOM     12  C   UNL     1       0.403 -10.591  -4.540  0.00  0.00    +0.004 A 
ATOM     13  C   UNL     1       0.915  -8.250  -3.451  0.00  0.00    +0.058 C 
ATOM     14  C   UNL     1       0.689  -6.855  -4.071  0.00  0.00    +0.085 C 
ATOM     15  C   UNL     1      -0.597  -7.060  -4.900  0.00  0.00    +0.058 C 
ENDBRANCH   1  14
BRANCH   3  16
ATOM     16  N   UNL     1       0.991  -2.663  -1.394  0.00  0.00    +0.385 N 
ATOM     17  H   UNL     1       0.073  -2.328  -1.710  0.00  0.00    -0.085 HD
ATOM     18  H   UNL     1       1.721  -2.299  -2.017  0.00  0.00    -0.085 HD
BRANCH  16  19
ATOM     19  C   UNL     1       1.237  -2.183  -0.021  0.00  0.00    -0.042 C 
BRANCH  19  20
ATOM     20  C   UNL     1       1.213  -0.677  -0.013  0.00  0.00    -0.019 A 
ATOM     21  C   UNL     1       2.399   0.034  -0.021  0.00  0.00    +0.005 A 
ATOM     22  C   UNL     1       2.380   1.416  -0.013  0.00  0.00    +0.004 A 
ATOM     23  C   UNL     1       1.175   2.094   0.002  0.00  0.00    +0.049 A 
ATOM     24  C   UNL     1      -0.017   1.389   0.010  0.00  0.00    +0.166 A 
ATOM     25  C   UNL     1       0.002  -0.004   0.002  0.00  0.00    +0.168 A 
ATOM     26  O   UNL     1      -1.285  -0.458   0.012  0.00  0.00    -0.452 OA
ATOM     27  C   UNL     1      -2.092   0.666  -0.387  0.00  0.00    +0.466 C 
ATOM     28  O   UNL     1      -1.316   1.807   0.019  0.00  0.00    -0.453 OA
ENDBRANCH  19  20
ENDBRANCH  16  19
ENDBRANCH   3  16
TORSDOF 4
