REMARK  Name = ZINC10316872
REMARK  5 active torsions:
REMARK  status: ('A' for Active; 'I' for Inactive)
REMARK    1  A    between atoms: N_9  and  C_25
REMARK    2  A    between atoms: C_10  and  S_12
REMARK    3  A    between atoms: S_12  and  C_13
REMARK    4  A    between atoms: C_13  and  C_14
REMARK    5  A    between atoms: N_16  and  C_17
REMARK                            x       y       z     vdW  Elec       q    Type
REMARK                         _______ _______ _______ _____ _____    ______ ____
ROOT
ATOM      1  C   UNL     1       2.382   1.417   0.064  0.00  0.00    +0.001 A 
ATOM      2  C   UNL     1       1.163   2.083   0.068  0.00  0.00    +0.002 A 
ATOM      3  C   UNL     1      -0.015   1.391   0.065  0.00  0.00    +0.028 A 
ATOM      4  C   UNL     1       0.003  -0.007   0.056  0.00  0.00    +0.079 A 
ATOM      5  C   UNL     1       1.246  -0.681   0.050  0.00  0.00    +0.065 A 
ATOM      6  C   UNL     1       2.433   0.051   0.054  0.00  0.00    +0.015 A 
ATOM      7  C   UNL     1       1.240  -2.149   0.040  0.00  0.00    +0.267 A 
ATOM      8  O   UNL     1       2.278  -2.785   0.034  0.00  0.00    -0.267 OA
ATOM      9  N   UNL     1       0.037  -2.769   0.037  0.00  0.00    -0.253 N 
ATOM     10  C   UNL     1      -1.119  -2.038   0.043  0.00  0.00    +0.177 A 
ATOM     11  N   UNL     1      -1.136  -0.729   0.052  0.00  0.00    -0.223 NA
ENDROOT
BRANCH   9  12
ATOM     12  C   UNL     1      -0.025  -4.170   0.028  0.00  0.00    +0.087 A 
ATOM     13  C   UNL     1      -0.049  -4.872   1.225  0.00  0.00    +0.029 A 
ATOM     14  C   UNL     1      -0.114  -6.252   1.213  0.00  0.00    +0.002 A 
ATOM     15  C   UNL     1      -0.146  -6.935   0.011  0.00  0.00    +0.003 A 
ATOM     16  C   UNL     1      -0.117  -6.240  -1.183  0.00  0.00    +0.040 A 
ATOM     17  C   UNL     1      -0.057  -4.858  -1.179  0.00  0.00    +0.147 A 
ATOM     18  F   UNL     1      -0.029  -4.179  -2.347  0.00  0.00    -0.203 F 
ENDBRANCH   9  12
BRANCH  10  19
ATOM     19  S   UNL     1      -2.657  -2.898   0.040  0.00  0.00    -0.078 S 
BRANCH  19  20
ATOM     20  C   UNL     1      -3.801  -1.496   0.051  0.00  0.00    +0.173 C 
BRANCH  20  21
ATOM     21  C   UNL     1      -5.220  -2.005   0.049  0.00  0.00    +0.228 C 
ATOM     22  O   UNL     1      -5.436  -3.199   0.042  0.00  0.00    -0.275 OA
ATOM     23  N   UNL     1      -6.248  -1.134   0.056  0.00  0.00    -0.283 N 
ATOM     24  H   UNL     1      -6.077  -0.182   0.127  0.00  0.00    +0.155 HD
BRANCH  23  25
ATOM     25  C   UNL     1      -7.565  -1.604  -0.039  0.00  0.00    +0.069 A 
ATOM     26  C   UNL     1      -7.917  -2.811   0.550  0.00  0.00    +0.029 A 
ATOM     27  C   UNL     1      -9.216  -3.273   0.455  0.00  0.00    +0.040 A 
ATOM     28  C   UNL     1     -10.168  -2.533  -0.226  0.00  0.00    +0.126 A 
ATOM     29  C   UNL     1      -9.821  -1.328  -0.814  0.00  0.00    +0.078 A 
ATOM     30  C   UNL     1      -8.523  -0.860  -0.718  0.00  0.00    +0.147 A 
ATOM     31  F   UNL     1      -8.185   0.318  -1.287  0.00  0.00    -0.203 F 
ATOM     32  F   UNL     1     -11.437  -2.987  -0.316  0.00  0.00    -0.205 F 
ENDBRANCH  23  25
ENDBRANCH  20  21
ENDBRANCH  19  20
ENDBRANCH  10  19
TORSDOF 5
