REMARK  Name = ZINC50471621
REMARK  7 active torsions:
REMARK  status: ('A' for Active; 'I' for Inactive)
REMARK    1  A    between atoms: C_3  and  N_19
REMARK    2  A    between atoms: C_6  and  O_7
REMARK    3  A    between atoms: O_7  and  C_8
REMARK    4  A    between atoms: C_8  and  C_9
REMARK    5  A    between atoms: C_10  and  C_14
REMARK    6  A    between atoms: C_15  and  C_16
REMARK    7  A    between atoms: C_16  and  N_17
REMARK                            x       y       z     vdW  Elec       q    Type
REMARK                         _______ _______ _______ _____ _____    ______ ____
ROOT
ATOM      1  C   UNL     1      -1.069  -2.126   0.001  0.00  0.00    +0.272 C 
ENDROOT
BRANCH   1   2
ATOM      2  C   UNL     1      -2.454  -2.722   0.012  0.00  0.00    +0.042 A 
ATOM      3  C   UNL     1      -3.254  -3.063  -1.046  0.00  0.00    +0.038 A 
ATOM      4  C   UNL     1      -4.509  -3.605  -0.779  0.00  0.00    +0.025 A 
ATOM      5  C   UNL     1      -4.891  -3.775   0.506  0.00  0.00    +0.047 A 
ATOM      6  S   UNL     1      -3.472  -3.175   1.406  0.00  0.00    -0.097 S 
BRANCH   3   7
ATOM      7  C   UNL     1      -2.811  -2.866  -2.393  0.00  0.00    -0.067 C 
ATOM      8  C   UNL     1      -2.448  -2.704  -3.498  0.00  0.00    -0.117 C 
BRANCH   8   9
ATOM      9  C   UNL     1      -1.993  -2.501  -4.883  0.00  0.00    +0.005 C 
BRANCH   9  10
ATOM     10  N   UNL     1      -3.039  -2.948  -5.813  0.00  0.00    +0.385 N 
ATOM     11  H   UNL     1      -3.228  -3.928  -5.661  0.00  0.00    -0.089 HD
ATOM     12  H   UNL     1      -3.881  -2.415  -5.654  0.00  0.00    -0.089 HD
ATOM     13  H   UNL     1      -2.727  -2.809  -6.762  0.00  0.00    -0.089 HD
ENDBRANCH   9  10
ENDBRANCH   8   9
ENDBRANCH   3   7
ENDBRANCH   1   2
BRANCH   1  14
ATOM     14  O   UNL     1      -1.165  -0.701   0.010  0.00  0.00    -0.487 OA
BRANCH  14  20
ATOM     15  C   UNL     1      -0.017   1.383   0.010  0.00  0.00    +0.048 A 
ATOM     16  C   UNL     1       1.171   2.089   0.002  0.00  0.00    +0.038 A 
ATOM     17  C   UNL     1       2.377   1.415  -0.013  0.00  0.00    +0.145 A 
ATOM     18  C   UNL     1       2.400   0.032  -0.021  0.00  0.00    +0.075 A 
ATOM     19  C   UNL     1       1.214  -0.679  -0.013  0.00  0.00    +0.068 A 
ATOM     20  C   UNL     1       0.002  -0.004   0.002  0.00  0.00    +0.123 A 
ATOM     21 CL   UNL     1       3.917  -0.812  -0.040  0.00  0.00    -0.081 Cl
BRANCH  17  22
ATOM     22  N   UNL     1       3.648   2.175  -0.022  0.00  0.00    +0.058 N 
ATOM     23  O   UNL     1       3.630   3.384  -0.015  0.00  0.00    -0.126 OA
ATOM     24  O   UNL     1       4.704   1.586  -0.035  0.00  0.00    -0.126 OA
ENDBRANCH  17  22
ENDBRANCH  14  20
ENDBRANCH   1  14
TORSDOF 7
