REMARK  Name = ZINC63141871
REMARK  10 active torsions:
REMARK  status: ('A' for Active; 'I' for Inactive)
REMARK    1  A    between atoms: C_1  and  C_2
REMARK    2  A    between atoms: C_2  and  O_3
REMARK    3  A    between atoms: O_3  and  C_4
REMARK    4  A    between atoms: C_7  and  C_12
REMARK    5  A    between atoms: C_9  and  O_10
REMARK    6  A    between atoms: O_10  and  C_11
REMARK    7  A    between atoms: N_31  and  C_34
REMARK    8  A    between atoms: C_34  and  C_35
REMARK    9  A    between atoms: C_40  and  O_41
REMARK   10  A    between atoms: O_41  and  C_42
REMARK                            x       y       z     vdW  Elec       q    Type
REMARK                         _______ _______ _______ _____ _____    ______ ____
ROOT
ATOM      1  C   UNL     1      -1.996  -6.097  -0.011  0.00  0.00    +0.134 C 
ATOM      2  C   UNL     1      -1.840  -6.609  -1.442  0.00  0.00    +0.131 C 
ATOM      3  C   UNL     1      -0.343  -6.568  -1.739  0.00  0.00    -0.034 C 
ATOM      4  C   UNL     1      -0.178  -5.740  -2.761  0.00  0.00    -0.001 A 
ATOM      5  C   UNL     1       1.024  -5.325  -3.502  0.00  0.00    +0.010 A 
ATOM      6  C   UNL     1       0.830  -4.438  -4.514  0.00  0.00    +0.001 A 
ATOM      7  C   UNL     1      -0.426  -3.930  -4.859  0.00  0.00    +0.002 A 
ATOM      8  C   UNL     1      -1.585  -4.257  -4.234  0.00  0.00    +0.026 A 
ATOM      9  C   UNL     1      -1.509  -5.183  -3.153  0.00  0.00    +0.043 A 
ATOM     10  N   UNL     1      -2.465  -5.679  -2.393  0.00  0.00    -0.375 N 
ATOM     11  C   UNL     1       0.637  -7.356  -0.914  0.00  0.00    +0.065 C 
ATOM     12  C   UNL     1       0.259  -7.275   0.543  0.00  0.00    +0.167 C 
ATOM     13  N   UNL     1      -1.018  -6.690   0.888  0.00  0.00    -0.279 N 
ATOM     14  C   UNL     1      -1.304  -6.657   2.231  0.00  0.00    +0.234 C 
ATOM     15  O   UNL     1      -2.370  -6.253   2.643  0.00  0.00    -0.274 OA
ATOM     16  C   UNL     1      -0.225  -7.148   3.173  0.00  0.00    +0.204 C 
ATOM     17  N   UNL     1       1.069  -6.594   2.731  0.00  0.00    -0.287 N 
ATOM     18  C   UNL     1       1.342  -6.669   1.400  0.00  0.00    +0.237 C 
ATOM     19  O   UNL     1       2.390  -6.274   0.934  0.00  0.00    -0.274 OA
ATOM     20  H   UNL     1      -3.411  -5.471  -2.441  0.00  0.00    +0.160 HD
ENDROOT
BRANCH   1  24
ATOM     21  C   UNL     1      -1.498  -1.849   0.006  0.00  0.00    +0.162 A 
ATOM     22  C   UNL     1      -0.389  -2.680  -0.003  0.00  0.00    +0.050 A 
ATOM     23  C   UNL     1      -0.553  -4.052  -0.008  0.00  0.00    +0.009 A 
ATOM     24  C   UNL     1      -1.823  -4.600  -0.005  0.00  0.00    -0.021 A 
ATOM     25  C   UNL     1      -2.934  -3.777   0.004  0.00  0.00    +0.055 A 
ATOM     26  C   UNL     1      -2.776  -2.400   0.016  0.00  0.00    +0.162 A 
BRANCH  26  27
ATOM     27  O   UNL     1      -3.868  -1.589   0.030  0.00  0.00    -0.491 OA
ATOM     28  C   UNL     1      -5.148  -2.225   0.039  0.00  0.00    +0.277 C 
ENDBRANCH  26  27
BRANCH  21  29
ATOM     29  O   UNL     1      -1.339  -0.499   0.012  0.00  0.00    -0.489 OA
BRANCH  29  31
ATOM     30  C   UNL     1      -0.019   1.526   0.010  0.00  0.00    +0.048 C 
ATOM     31  C   UNL     1       0.002  -0.004   0.002  0.00  0.00    +0.226 C 
ENDBRANCH  29  31
ENDBRANCH  21  29
ENDBRANCH   1  24
BRANCH  17  32
ATOM     32  C   UNL     1       2.011  -5.993   3.678  0.00  0.00    +0.147 C 
BRANCH  32  33
ATOM     33  C   UNL     1       2.945  -7.055   4.200  0.00  0.00    +0.011 A 
ATOM     34  C   UNL     1       2.720  -7.626   5.438  0.00  0.00    +0.009 A 
ATOM     35  C   UNL     1       3.576  -8.599   5.917  0.00  0.00    +0.001 A 
ATOM     36  C   UNL     1       4.660  -9.005   5.159  0.00  0.00    +0.004 A 
ATOM     37  C   UNL     1       4.889  -8.437   3.921  0.00  0.00    +0.046 A 
ATOM     38  C   UNL     1       4.028  -7.464   3.435  0.00  0.00    +0.125 A 
BRANCH  38  39
ATOM     39  O   UNL     1       4.248  -6.908   2.215  0.00  0.00    -0.495 OA
ATOM     40  C   UNL     1       5.382  -7.378   1.483  0.00  0.00    +0.277 C 
ENDBRANCH  38  39
ENDBRANCH  32  33
ENDBRANCH  17  32
TORSDOF 7
