REMARK  Name = ZINC36051174
REMARK  16 active torsions:
REMARK  status: ('A' for Active; 'I' for Inactive)
REMARK    1  A    between atoms: C_1  and  C_2
REMARK    2  A    between atoms: C_5  and  N_8
REMARK    3  A    between atoms: C_10  and  C_28
REMARK    4  A    between atoms: N_13  and  C_14
REMARK    5  A    between atoms: C_14  and  C_16
REMARK    6  A    between atoms: C_16  and  N_17
REMARK    7  A    between atoms: N_17  and  C_18
REMARK    8  A    between atoms: C_18  and  C_19
REMARK    9  A    between atoms: C_19  and  N_20
REMARK   10  A    between atoms: N_20  and  C_21
REMARK   11  A    between atoms: N_20  and  C_22
REMARK   12  A    between atoms: C_23  and  C_25
REMARK   13  A    between atoms: C_25  and  C_26
REMARK   14  A    between atoms: C_25  and  C_27
REMARK   15  A    between atoms: C_31  and  O_34
REMARK   16  A    between atoms: O_34  and  C_35
REMARK                            x       y       z     vdW  Elec       q    Type
REMARK                         _______ _______ _______ _____ _____    ______ ____
ROOT
ATOM      1  N   UNL     1      -1.162  -6.070  -0.693  0.00  0.00    -0.287 N 
ATOM      2  C   UNL     1      -1.418  -7.151  -1.514  0.00  0.00    +0.120 A 
ATOM      3  C   UNL     1      -1.358  -8.266  -0.766  0.00  0.00    +0.066 A 
ATOM      4  N   UNL     1      -1.061  -7.890   0.538  0.00  0.00    -0.326 N 
ATOM      5  C   UNL     1      -0.939  -6.538   0.565  0.00  0.00    +0.205 A 
ATOM      6  N   UNL     1      -0.653  -5.798   1.636  0.00  0.00    -0.145 NA
ATOM      7  H   UNL     1      -0.956  -8.488   1.295  0.00  0.00    +0.169 HD
ENDROOT
BRANCH   1  12
ATOM      8  C   UNL     1      -1.040  -0.627  -2.292  0.00  0.00    +0.044 C 
ATOM      9  C   UNL     1      -1.072  -2.073  -1.867  0.00  0.00    -0.050 A 
ATOM     10  C   UNL     1      -1.348  -3.059  -2.797  0.00  0.00    +0.005 A 
ATOM     11  C   UNL     1      -1.379  -4.385  -2.411  0.00  0.00    +0.026 A 
ATOM     12  C   UNL     1      -1.131  -4.727  -1.088  0.00  0.00    +0.049 A 
ATOM     13  C   UNL     1      -0.854  -3.734  -0.157  0.00  0.00    +0.026 A 
ATOM     14  C   UNL     1      -0.820  -2.411  -0.551  0.00  0.00    +0.005 A 
ENDBRANCH   1  12
BRANCH   3  15
ATOM     15  C   UNL     1      -1.570  -9.649  -1.247  0.00  0.00    +0.000 A 
ATOM     16  C   UNL     1      -1.858  -9.886  -2.591  0.00  0.00    +0.013 A 
ATOM     17  C   UNL     1      -2.055 -11.177  -3.035  0.00  0.00    +0.046 A 
ATOM     18  C   UNL     1      -1.968 -12.240  -2.147  0.00  0.00    +0.120 A 
ATOM     19  C   UNL     1      -1.682 -12.008  -0.808  0.00  0.00    +0.046 A 
ATOM     20  C   UNL     1      -1.477 -10.721  -0.357  0.00  0.00    +0.013 A 
BRANCH  18  21
ATOM     21  O   UNL     1      -2.163 -13.510  -2.588  0.00  0.00    -0.495 OA
ATOM     22  C   UNL     1      -2.058 -14.556  -1.620  0.00  0.00    +0.277 C 
ENDBRANCH  18  21
ENDBRANCH   3  15
BRANCH   6  23
ATOM     23  C   UNL     1      -0.457  -6.381   2.812  0.00  0.00    +0.256 C 
ATOM     24  O   UNL     1      -0.537  -7.591   2.912  0.00  0.00    -0.272 OA
BRANCH  23  25
ATOM     25  C   UNL     1      -0.134  -5.545   4.024  0.00  0.00    +0.205 C 
BRANCH  25  26
ATOM     26  N   UNL     1       0.036  -6.417   5.188  0.00  0.00    -0.294 N 
ATOM     27  C   UNL     1      -0.999  -6.637   6.022  0.00  0.00    +0.218 C 
ATOM     28  O   UNL     1      -0.836  -7.285   7.034  0.00  0.00    -0.275 OA
BRANCH  27  29
ATOM     29  C   UNL     1      -2.360  -6.077   5.698  0.00  0.00    +0.069 C 
ATOM     30  C   UNL     1      -3.410  -6.736   6.595  0.00  0.00    +0.017 C 
ATOM     31  C   UNL     1      -2.361  -4.566   5.937  0.00  0.00    +0.017 C 
ENDBRANCH  27  29
BRANCH  26  32
ATOM     32  C   UNL     1       1.332  -7.050   5.446  0.00  0.00    +0.090 C 
BRANCH  32  33
ATOM     33  C   UNL     1       2.181  -6.134   6.330  0.00  0.00    -0.060 C 
BRANCH  33  34
ATOM     34  N   UNL     1       3.480  -6.769   6.588  0.00  0.00    +0.377 N 
ATOM     35  C   UNL     1       4.224  -6.892   5.328  0.00  0.00    -0.097 C 
ATOM     36  C   UNL     1       4.248  -5.946   7.532  0.00  0.00    -0.097 C 
ATOM     37  H   UNL     1       3.333  -7.686   6.984  0.00  0.00    -0.083 HD
ENDBRANCH  33  34
ENDBRANCH  32  33
ENDBRANCH  26  32
ENDBRANCH  25  26
ENDBRANCH  23  25
ENDBRANCH   6  23
TORSDOF 10
