REMARK  Name = ZINC02454312
REMARK  9 active torsions:
REMARK  status: ('A' for Active; 'I' for Inactive)
REMARK    1  A    between atoms: C_1  and  C_2
REMARK    2  A    between atoms: N_4  and  C_5
REMARK    3  A    between atoms: C_8  and  C_11
REMARK    4  A    between atoms: N_12  and  N_13
REMARK    5  A    between atoms: C_14  and  C_16
REMARK    6  A    between atoms: C_17  and  C_27
REMARK    7  A    between atoms: C_27  and  N_28
REMARK    8  A    between atoms: N_28  and  C_29
REMARK    9  A    between atoms: N_28  and  C_30
REMARK                            x       y       z     vdW  Elec       q    Type
REMARK                         _______ _______ _______ _____ _____    ______ ____
ROOT
ATOM      1  C   UNL     1       3.112  -3.544   0.015  0.00  0.00    +0.170 A 
ATOM      2  C   UNL     1       3.154  -2.178   0.027  0.00  0.00    +0.063 A 
ATOM      3  N   UNL     1       1.873  -1.749   0.051  0.00  0.00    -0.194 N 
ATOM      4  N   UNL     1       1.062  -2.893   0.043  0.00  0.00    -0.058 NA
ATOM      5  N   UNL     1       1.824  -3.930   0.022  0.00  0.00    -0.124 NA
ATOM      6  C   UNL     1       1.439  -0.418   0.073  0.00  0.00    +0.240 A 
ATOM      7  C   UNL     1       0.043   0.028   0.093  0.00  0.00    +0.206 A 
ATOM      8  N   UNL     1       0.030   1.333   0.110  0.00  0.00    -0.032 NA
ATOM      9  O   UNL     1       1.374   1.780   0.102  0.00  0.00    -0.239 OA
ATOM     10  N   UNL     1       2.207   0.634   0.079  0.00  0.00    -0.027 NA
ATOM     11  N   UNL     1      -1.076  -0.797   0.093  0.00  0.00    -0.337 N 
ATOM     12  H   UNL     1      -2.084  -0.357   0.109  0.00  0.00    +0.144 HD
ATOM     13  H   UNL     1      -0.953  -1.890   0.078  0.00  0.00    +0.144 HD
ENDROOT
BRANCH   1  15
ATOM     14  N   UNL     1       4.105  -5.778  -0.025  0.00  0.00    -0.202 N 
ATOM     15  C   UNL     1       4.281  -4.442  -0.009  0.00  0.00    +0.285 C 
ATOM     16  O   UNL     1       5.405  -3.977  -0.014  0.00  0.00    -0.267 OA
ATOM     17  H   UNL     1       3.088  -6.198  -0.021  0.00  0.00    +0.178 HD
BRANCH  14  19
ATOM     18  C   UNL     1       5.045  -7.918  -0.064  0.00  0.00    +0.138 C 
ATOM     19  N   UNL     1       5.215  -6.631  -0.048  0.00  0.00    -0.187 NA
BRANCH  18  23
ATOM     20  C   UNL     1       8.412 -10.504  -0.133  0.00  0.00    +0.033 A 
ATOM     21  C   UNL     1       7.128 -11.037  -0.128  0.00  0.00    +0.024 A 
ATOM     22  C   UNL     1       6.033 -10.202  -0.105  0.00  0.00    +0.011 A 
ATOM     23  C   UNL     1       6.214  -8.816  -0.088  0.00  0.00    -0.005 A 
ATOM     24  C   UNL     1       7.506  -8.283  -0.099  0.00  0.00    +0.011 A 
ATOM     25  C   UNL     1       8.596  -9.126  -0.116  0.00  0.00    +0.024 A 
BRANCH  20  29
ATOM     26  C   UNL     1      11.785 -11.960  -0.944  0.00  0.00    +0.109 C 
ATOM     27  C   UNL     1      10.630 -10.999  -0.833  0.00  0.00    +0.214 C 
ATOM     28  O   UNL     1      10.698  -9.906  -1.354  0.00  0.00    -0.276 OA
ATOM     29  N   UNL     1       9.520 -11.355  -0.155  0.00  0.00    -0.286 N 
ATOM     30  H   UNL     1       9.487 -12.315   0.381  0.00  0.00    +0.155 HD
ENDBRANCH  20  29
ENDBRANCH  18  23
ENDBRANCH  14  19
ENDBRANCH   1  15
BRANCH   2  31
ATOM     31  C   UNL     1       4.391  -1.317   0.019  0.00  0.00    -0.020 C 
BRANCH  31  32
ATOM     32  N   UNL     1       4.813  -1.053   1.401  0.00  0.00    +0.383 N 
ATOM     33  C   UNL     1       5.252  -2.289   2.062  0.00  0.00    -0.095 C 
ATOM     34  H   UNL     1       3.943  -0.666   1.952  0.00  0.00    -0.081 HD
BRANCH  32  35
ATOM     35  C   UNL     1       5.867  -0.030   1.443  0.00  0.00    -0.068 C 
ATOM     36  C   UNL     1       7.122  -0.563   0.750  0.00  0.00    -0.015 C 
ATOM     37  C   UNL     1       8.220   0.502   0.794  0.00  0.00    -0.002 C 
ATOM     38  C   UNL     1       8.545   0.840   2.251  0.00  0.00    -0.000 C 
ATOM     39  C   UNL     1       7.289   1.372   2.943  0.00  0.00    -0.002 C 
ATOM     40  C   UNL     1       6.192   0.307   2.899  0.00  0.00    -0.015 C 
ENDBRANCH  32  35
ENDBRANCH  31  32
ENDBRANCH   2  31
TORSDOF 7
