REMARK  Name = ZINC39464289
REMARK  7 active torsions:
REMARK  status: ('A' for Active; 'I' for Inactive)
REMARK    1  A    between atoms: C_1  and  C_2
REMARK    2  A    between atoms: C_2  and  O_3
REMARK    3  A    between atoms: O_3  and  C_4
REMARK    4  A    between atoms: C_9  and  C_10
REMARK    5  A    between atoms: C_15  and  O_16
REMARK    6  A    between atoms: P_24  and  C_27
REMARK    7  A    between atoms: C_32  and  O_33
REMARK                            x       y       z     vdW  Elec       q    Type
REMARK                         _______ _______ _______ _____ _____    ______ ____
ROOT
ATOM      1  C   UNL     1       0.777  -1.810  -1.336  0.00  0.00    +0.129 A 
ATOM      2  C   UNL     1       0.245  -2.668  -0.391  0.00  0.00    +0.051 A 
ATOM      3  C   UNL     1       0.350  -4.043  -0.548  0.00  0.00    -0.020 A 
ATOM      4  C   UNL     1       0.988  -4.561  -1.657  0.00  0.00    -0.041 A 
ATOM      5  C   UNL     1       1.524  -3.712  -2.611  0.00  0.00    +0.016 A 
ATOM      6  C   UNL     1       1.418  -2.333  -2.462  0.00  0.00    +0.028 A 
ATOM      7  C   UNL     1       1.119  -6.048  -1.866  0.00  0.00    +0.052 C 
ATOM      8  C   UNL     1       0.899  -6.775  -0.539  0.00  0.00    +0.108 C 
ATOM      9  N   UNL     1      -0.364  -6.309   0.052  0.00  0.00    -0.225 NA
ATOM     10  C   UNL     1      -0.246  -4.927   0.516  0.00  0.00    +0.130 C 
ATOM     11  C   UNL     1      -1.611  -4.365   0.924  0.00  0.00    +0.194 C 
ATOM     12  O   UNL     1      -2.122  -5.146   2.023  0.00  0.00    -0.311 OA
ATOM     13  P   UNL     1      -2.131  -6.766   1.879  0.00  0.00    +0.318 P 
ATOM     14  O   UNL     1      -3.307  -7.203   1.095  0.00  0.00    -0.266 OA
ATOM     15  N   UNL     1      -0.736  -7.149   1.079  0.00  0.00    -0.175 NA
ATOM     16  H   UNL     1      -0.206  -7.926   1.319  0.00  0.00    +0.151 HD
ENDROOT
BRANCH   6  17
ATOM     17  C   UNL     1       1.987  -1.426  -3.488  0.00  0.00    +0.027 A 
ATOM     18  C   UNL     1       1.457  -1.406  -4.777  0.00  0.00    +0.012 A 
ATOM     19  C   UNL     1       1.990  -0.559  -5.727  0.00  0.00    +0.001 A 
ATOM     20  C   UNL     1       3.049   0.272  -5.406  0.00  0.00    +0.004 A 
ATOM     21  C   UNL     1       3.582   0.260  -4.131  0.00  0.00    +0.046 A 
ATOM     22  C   UNL     1       3.053  -0.581  -3.165  0.00  0.00    +0.125 A 
BRANCH  22  23
ATOM     23  O   UNL     1       3.573  -0.589  -1.909  0.00  0.00    -0.506 OA
ATOM     24  H   UNL     1       4.295  -1.220  -1.787  0.00  0.00    +0.292 HD
ENDBRANCH  22  23
ENDBRANCH   6  17
BRANCH  13  25
ATOM     25  C   UNL     1      -2.149  -7.540   3.519  0.00  0.00    +0.094 A 
ATOM     26  C   UNL     1      -0.959  -7.837   4.157  0.00  0.00    +0.018 A 
ATOM     27  C   UNL     1      -0.972  -8.428   5.407  0.00  0.00    +0.001 A 
ATOM     28  C   UNL     1      -2.175  -8.723   6.022  0.00  0.00    +0.004 A 
ATOM     29  C   UNL     1      -3.367  -8.427   5.389  0.00  0.00    +0.046 A 
ATOM     30  C   UNL     1      -3.356  -7.829   4.137  0.00  0.00    +0.131 A 
BRANCH  30  31
ATOM     31  O   UNL     1      -4.527  -7.532   3.515  0.00  0.00    -0.506 OA
ATOM     32  H   UNL     1      -4.868  -8.245   2.958  0.00  0.00    +0.292 HD
ENDBRANCH  30  31
ENDBRANCH  13  25
BRANCH   1  33
ATOM     33  O   UNL     1       0.671  -0.465  -1.174  0.00  0.00    -0.492 OA
BRANCH  33  35
ATOM     34  C   UNL     1      -0.019   1.526   0.010  0.00  0.00    +0.048 C 
ATOM     35  C   UNL     1       0.002  -0.004   0.002  0.00  0.00    +0.226 C 
ENDBRANCH  33  35
ENDBRANCH   1  33
TORSDOF 6
