REMARK  Name = ZINC04266337
REMARK  7 active torsions:
REMARK  status: ('A' for Active; 'I' for Inactive)
REMARK    1  A    between atoms: C_1  and  C_2
REMARK    2  A    between atoms: C_4  and  C_26
REMARK    3  A    between atoms: C_5  and  C_9
REMARK    4  A    between atoms: C_6  and  C_8
REMARK    5  A    between atoms: C_9  and  C_11
REMARK    6  A    between atoms: C_11  and  S_12
REMARK    7  A    between atoms: S_12  and  C_13
REMARK                            x       y       z     vdW  Elec       q    Type
REMARK                         _______ _______ _______ _____ _____    ______ ____
ROOT
ATOM      1  S   UNL     1      -4.988   4.553   0.960  0.00  0.00    -0.078 S 
ENDROOT
BRANCH   1   2
ATOM      2  C   UNL     1      -6.458   3.590   1.083  0.00  0.00    +0.198 A 
ATOM      3  N   UNL     1      -6.547   2.294   0.908  0.00  0.00    -0.120 NA
ATOM      4  N   UNL     1      -7.884   1.921   1.098  0.00  0.00    -0.110 NA
ATOM      5  C   UNL     1      -8.573   3.006   1.373  0.00  0.00    +0.235 A 
ATOM      6  N   UNL     1      -7.709   4.065   1.371  0.00  0.00    -0.255 N 
ATOM      7  C   UNL     1      -8.435   5.222   1.663  0.00  0.00    +0.075 A 
ATOM      8  C   UNL     1      -8.068   6.554   1.788  0.00  0.00    +0.028 A 
ATOM      9  C   UNL     1      -9.022   7.505   2.092  0.00  0.00    +0.002 A 
ATOM     10  C   UNL     1     -10.344   7.136   2.272  0.00  0.00    +0.002 A 
ATOM     11  C   UNL     1     -10.719   5.813   2.151  0.00  0.00    +0.028 A 
ATOM     12  C   UNL     1      -9.767   4.849   1.846  0.00  0.00    +0.066 A 
ATOM     13  N   UNL     1      -9.843   3.472   1.664  0.00  0.00    -0.322 N 
ATOM     14  H   UNL     1     -10.647   2.932   1.729  0.00  0.00    +0.169 HD
ENDBRANCH   1   2
BRANCH   1  15
ATOM     15  C   UNL     1      -3.700   3.340   0.560  0.00  0.00    +0.157 C 
BRANCH  15  16
ATOM     16  C   UNL     1      -2.373   4.042   0.425  0.00  0.00    +0.174 C 
ATOM     17  O   UNL     1      -2.315   5.249   0.513  0.00  0.00    -0.291 OA
BRANCH  16  22
ATOM     18  C   UNL     1       2.409   0.991  -0.506  0.00  0.00    +0.044 C 
ATOM     19  C   UNL     1       1.156   1.791  -0.262  0.00  0.00    -0.050 A 
ATOM     20  C   UNL     1       0.352   2.153  -1.329  0.00  0.00    +0.007 A 
ATOM     21  C   UNL     1      -0.795   2.889  -1.114  0.00  0.00    -0.039 A 
ATOM     22  C   UNL     1      -1.149   3.261   0.186  0.00  0.00    +0.024 A 
ATOM     23  C   UNL     1      -0.331   2.891   1.259  0.00  0.00    -0.039 A 
ATOM     24  C   UNL     1       0.814   2.159   1.028  0.00  0.00    +0.007 A 
ATOM     25  C   UNL     1      -0.701   3.292   2.664  0.00  0.00    +0.044 C 
ATOM     26  C   UNL     1      -1.666   3.287  -2.278  0.00  0.00    +0.044 C 
ENDBRANCH  16  22
ENDBRANCH  15  16
ENDBRANCH   1  15
TORSDOF 4
