REMARK  Name = ZINC24097528
REMARK  9 active torsions:
REMARK  status: ('A' for Active; 'I' for Inactive)
REMARK    1  A    between atoms: C_1  and  C_2
REMARK    2  A    between atoms: C_2  and  C_23
REMARK    3  A    between atoms: N_5  and  C_9
REMARK    4  A    between atoms: C_9  and  C_10
REMARK    5  A    between atoms: C_10  and  C_12
REMARK    6  A    between atoms: C_10  and  O_22
REMARK    7  A    between atoms: C_12  and  O_13
REMARK    8  A    between atoms: O_13  and  C_14
REMARK    9  A    between atoms: C_14  and  C_15
REMARK                            x       y       z     vdW  Elec       q    Type
REMARK                         _______ _______ _______ _____ _____    ______ ____
ROOT
ATOM      1  C   UNL     1      -0.019   1.526   0.010  0.00  0.00    +0.047 C 
ATOM      2  C   UNL     1       0.002  -0.004   0.002  0.00  0.00    +0.135 C 
ATOM      3  C   UNL     1       0.815  -0.520  -1.169  0.00  0.00    +0.251 C 
ATOM      4  O   UNL     1       0.595  -0.342  -2.348  0.00  0.00    -0.272 OA
ATOM      5  N   UNL     1       1.833  -1.217  -0.627  0.00  0.00    -0.221 N 
ATOM      6  C   UNL     1       1.777  -1.214   0.710  0.00  0.00    +0.310 C 
ATOM      7  O   UNL     1       2.586  -1.776   1.421  0.00  0.00    -0.252 OA
ATOM      8  N   UNL     1       0.724  -0.519   1.178  0.00  0.00    -0.281 N 
ATOM      9  H   UNL     1       0.487  -0.383   2.109  0.00  0.00    +0.152 HD
ENDROOT
BRANCH   2  10
ATOM     10  C   UNL     1      -1.401  -0.551  -0.040  0.00  0.00    -0.012 A 
ATOM     11  C   UNL     1      -2.003  -0.814  -1.257  0.00  0.00    +0.010 A 
ATOM     12  C   UNL     1      -3.290  -1.317  -1.300  0.00  0.00    +0.050 A 
ATOM     13  C   UNL     1      -3.981  -1.558  -0.124  0.00  0.00    +0.166 A 
ATOM     14  C   UNL     1      -3.374  -1.294   1.102  0.00  0.00    +0.167 A 
ATOM     15  C   UNL     1      -2.082  -0.795   1.138  0.00  0.00    +0.055 A 
ATOM     16  O   UNL     1      -4.250  -1.612   2.100  0.00  0.00    -0.453 OA
ATOM     17  C   UNL     1      -5.542  -1.687   1.468  0.00  0.00    +0.466 C 
ATOM     18  O   UNL     1      -5.236  -2.042   0.106  0.00  0.00    -0.453 OA
ENDBRANCH   2  10
BRANCH   5  19
ATOM     19  C   UNL     1       2.871  -1.896  -1.406  0.00  0.00    +0.151 C 
BRANCH  19  20
ATOM     20  C   UNL     1       4.037  -0.936  -1.647  0.00  0.00    +0.158 C 
BRANCH  20  21
ATOM     21  O   UNL     1       4.652  -0.610  -0.399  0.00  0.00    -0.388 OA
ATOM     22  H   UNL     1       5.006  -1.374   0.076  0.00  0.00    +0.210 HD
ENDBRANCH  20  21
BRANCH  20  23
ATOM     23  C   UNL     1       5.065  -1.602  -2.564  0.00  0.00    +0.193 C 
BRANCH  23  24
ATOM     24  O   UNL     1       6.096  -0.665  -2.884  0.00  0.00    -0.373 OA
BRANCH  24  25
ATOM     25  C   UNL     1       7.113  -1.189  -3.740  0.00  0.00    +0.195 C 
BRANCH  25  26
ATOM     26  C   UNL     1       8.142  -0.122  -4.010  0.00  0.00    -0.022 A 
ATOM     27  C   UNL     1       7.989   0.729  -5.088  0.00  0.00    +0.007 A 
ATOM     28  C   UNL     1       8.932   1.708  -5.336  0.00  0.00    +0.020 A 
ATOM     29  C   UNL     1      10.030   1.837  -4.505  0.00  0.00    +0.041 A 
ATOM     30  C   UNL     1      10.184   0.985  -3.425  0.00  0.00    +0.020 A 
ATOM     31  C   UNL     1       9.236   0.009  -3.175  0.00  0.00    +0.007 A 
ATOM     32 CL   UNL     1      11.216   3.066  -4.816  0.00  0.00    -0.084 Cl
ENDBRANCH  25  26
ENDBRANCH  24  25
ENDBRANCH  23  24
ENDBRANCH  20  23
ENDBRANCH  19  20
ENDBRANCH   5  19
TORSDOF 8
