REMARK  Name = ZINC49066106
REMARK  8 active torsions:
REMARK  status: ('A' for Active; 'I' for Inactive)
REMARK    1  A    between atoms: C_1  and  C_2
REMARK    2  A    between atoms: C_2  and  C_3
REMARK    3  A    between atoms: C_2  and  C_4
REMARK    4  A    between atoms: C_2  and  N_5
REMARK    5  A    between atoms: C_6  and  C_8
REMARK    6  A    between atoms: C_8  and  O_9
REMARK    7  A    between atoms: O_9  and  N_10
REMARK    8  A    between atoms: C_11  and  C_12
REMARK                            x       y       z     vdW  Elec       q    Type
REMARK                         _______ _______ _______ _____ _____    ______ ____
ROOT
ATOM      1  N   UNL     1       4.798  -0.589  -3.762  0.00  0.00    -0.074 NA
ATOM      2  C   UNL     1       5.998  -0.143  -3.933  0.00  0.00    +0.135 C 
ATOM      3  N   UNL     1       6.734  -0.548  -5.025  0.00  0.00    -0.344 N 
ATOM      4  H   UNL     1       6.350  -1.168  -5.665  0.00  0.00    +0.144 HD
ATOM      5  H   UNL     1       7.635  -0.214  -5.154  0.00  0.00    +0.144 HD
ENDROOT
BRANCH   2   6
ATOM      6  C   UNL     1       6.594   0.820  -2.939  0.00  0.00    +0.055 C 
ATOM      7  C   UNL     1       7.480   1.828  -3.674  0.00  0.00    +0.011 C 
ATOM      8  C   UNL     1       8.085   2.806  -2.664  0.00  0.00    +0.001 C 
ATOM      9  C   UNL     1       8.927   2.033  -1.647  0.00  0.00    +0.000 C 
ATOM     10  C   UNL     1       8.041   1.025  -0.913  0.00  0.00    +0.001 C 
ATOM     11  C   UNL     1       7.436   0.047  -1.922  0.00  0.00    +0.011 C 
ENDBRANCH   2   6
BRANCH   1  12
ATOM     12  O   UNL     1       4.083  -0.261  -2.584  0.00  0.00    -0.383 OA
BRANCH  12  13
ATOM     13  C   UNL     1       2.770  -0.821  -2.527  0.00  0.00    +0.358 C 
BRANCH  13  15
ATOM     14  N   UNL     1       0.851  -0.824  -0.966  0.00  0.00    -0.308 N 
ATOM     15  C   UNL     1       2.104  -0.411  -1.238  0.00  0.00    +0.254 C 
ATOM     16  O   UNL     1       2.697   0.292  -0.447  0.00  0.00    -0.272 OA
ATOM     17  H   UNL     1       0.377  -1.386  -1.599  0.00  0.00    +0.149 HD
BRANCH  14  19
ATOM     18  C   UNL     1       0.112   1.100   0.350  0.00  0.00    +0.031 C 
ATOM     19  C   UNL     1       0.204  -0.425   0.287  0.00  0.00    +0.026 C 
ATOM     20  C   UNL     1       1.028  -0.936   1.471  0.00  0.00    +0.031 C 
ATOM     21  C   UNL     1      -1.202  -1.025   0.348  0.00  0.00    +0.031 C 
ENDBRANCH  14  19
ENDBRANCH  13  15
ENDBRANCH  12  13
ENDBRANCH   1  12
TORSDOF 5
