REMARK  Name = ZINC12650385
REMARK  10 active torsions:
REMARK  status: ('A' for Active; 'I' for Inactive)
REMARK    1  A    between atoms: C_1  and  C_2
REMARK    2  A    between atoms: C_2  and  O_3
REMARK    3  A    between atoms: O_3  and  C_4
REMARK    4  A    between atoms: C_4  and  C_6
REMARK    5  A    between atoms: C_10  and  N_11
REMARK    6  A    between atoms: N_14  and  C_15
REMARK    7  A    between atoms: C_18  and  C_21
REMARK    8  A    between atoms: C_24  and  C_27
REMARK    9  A    between atoms: C_27  and  C_28
REMARK   10  A    between atoms: C_27  and  C_29
REMARK                            x       y       z     vdW  Elec       q    Type
REMARK                         _______ _______ _______ _____ _____    ______ ____
ROOT
ATOM      1  C   UNL     1      -4.100   1.116   3.077  0.00  0.00    +0.091 A 
ATOM      2  C   UNL     1      -2.900   1.639   2.453  0.00  0.00    -0.017 A 
ATOM      3  C   UNL     1      -2.467   2.827   2.936  0.00  0.00    +0.021 A 
ATOM      4  S   UNL     1      -3.628   3.250   4.200  0.00  0.00    -0.075 S 
ATOM      5  C   UNL     1      -4.675   1.872   4.091  0.00  0.00    +0.088 A 
ATOM      6  C   UNL     1      -1.262   3.582   2.469  0.00  0.00    +0.203 C 
ATOM      7  O   UNL     1      -0.834   3.005   1.226  0.00  0.00    -0.371 OA
ATOM      8  C   UNL     1      -0.734   1.579   1.261  0.00  0.00    +0.126 C 
ATOM      9  C   UNL     1      -2.131   0.953   1.329  0.00  0.00    +0.068 C 
ENDROOT
BRANCH   5  10
ATOM     10  N   UNL     1      -5.811   1.593   4.835  0.00  0.00    -0.263 N 
ATOM     11  C   UNL     1      -6.221   2.455   5.787  0.00  0.00    +0.308 C 
ATOM     12  O   UNL     1      -5.596   3.476   5.993  0.00  0.00    -0.252 OA
ATOM     13  N   UNL     1      -7.326   2.183   6.510  0.00  0.00    -0.269 N 
ATOM     14  H   UNL     1      -6.310   0.778   4.670  0.00  0.00    +0.157 HD
ATOM     15  H   UNL     1      -7.863   1.403   6.301  0.00  0.00    +0.156 HD
BRANCH  13  16
ATOM     16  C   UNL     1      -7.698   3.027   7.562  0.00  0.00    +0.035 A 
ATOM     17  C   UNL     1      -8.289   2.499   8.702  0.00  0.00    +0.023 A 
ATOM     18  C   UNL     1      -8.651   3.334   9.741  0.00  0.00    +0.005 A 
ATOM     19  C   UNL     1      -8.435   4.697   9.642  0.00  0.00    -0.050 A 
ATOM     20  C   UNL     1      -7.852   5.226   8.505  0.00  0.00    +0.005 A 
ATOM     21  C   UNL     1      -7.483   4.396   7.465  0.00  0.00    +0.023 A 
ATOM     22  C   UNL     1      -8.836   5.606  10.775  0.00  0.00    +0.044 C 
ENDBRANCH  13  16
ENDBRANCH   5  10
BRANCH   8  23
ATOM     23  C   UNL     1      -0.020   1.089  -0.001  0.00  0.00    +0.012 C 
ATOM     24  C   UNL     1       1.417   1.612  -0.010  0.00  0.00    +0.010 C 
ATOM     25  C   UNL     1      -0.758   1.607  -1.238  0.00  0.00    +0.010 C 
ENDBRANCH   8  23
BRANCH   1  26
ATOM     26  C   UNL     1      -4.682  -0.159   2.655  0.00  0.00    +0.342 C 
ATOM     27  O   UNL     1      -4.334  -1.194   3.190  0.00  0.00    -0.245 OA
BRANCH  26  28
ATOM     28  O   UNL     1      -5.605  -0.186   1.671  0.00  0.00    -0.461 OA
BRANCH  28  30
ATOM     29  C   UNL     1      -7.165  -1.317   0.181  0.00  0.00    +0.048 C 
ATOM     30  C   UNL     1      -6.140  -1.486   1.305  0.00  0.00    +0.229 C 
ENDBRANCH  28  30
ENDBRANCH  26  28
ENDBRANCH   1  26
TORSDOF 6
