REMARK  Name = ZINC21633139
REMARK  15 active torsions:
REMARK  status: ('A' for Active; 'I' for Inactive)
REMARK    1  A    between atoms: C_1  and  C_2
REMARK    2  A    between atoms: C_4  and  S_28
REMARK    3  A    between atoms: C_6  and  N_9
REMARK    4  A    between atoms: C_7  and  C_8
REMARK    5  A    between atoms: N_9  and  S_10
REMARK    6  A    between atoms: S_10  and  C_13
REMARK    7  A    between atoms: C_15  and  C_23
REMARK    8  A    between atoms: C_17  and  O_21
REMARK    9  A    between atoms: C_18  and  O_19
REMARK   10  A    between atoms: O_19  and  C_20
REMARK   11  A    between atoms: O_21  and  C_22
REMARK   12  A    between atoms: C_24  and  C_25
REMARK   13  A    between atoms: S_28  and  N_31
REMARK   14  A    between atoms: N_31  and  C_32
REMARK   15  A    between atoms: N_31  and  C_33
REMARK                            x       y       z     vdW  Elec       q    Type
REMARK                         _______ _______ _______ _____ _____    ______ ____
ROOT
ATOM      1  S   UNL     1      -1.585   2.211  -0.011  0.00  0.00    +0.076 S 
ATOM      2  O   UNL     1      -2.735   1.386   0.123  0.00  0.00    -0.150 OA
ATOM      3  O   UNL     1      -0.316   1.693  -0.384  0.00  0.00    -0.150 OA
ENDROOT
BRANCH   1   4
ATOM      4  C   UNL     1      -1.991   3.451  -1.195  0.00  0.00    +0.154 A 
ATOM      5  C   UNL     1      -1.142   3.696  -2.252  0.00  0.00    +0.040 A 
ATOM      6  C   UNL     1      -1.465   4.677  -3.196  0.00  0.00    -0.019 A 
ATOM      7  C   UNL     1      -2.652   5.407  -3.062  0.00  0.00    +0.057 A 
ATOM      8  C   UNL     1      -3.497   5.156  -2.000  0.00  0.00    +0.164 A 
ATOM      9  C   UNL     1      -3.167   4.176  -1.063  0.00  0.00    +0.188 A 
BRANCH   9  10
ATOM     10  O   UNL     1      -4.000   3.931  -0.018  0.00  0.00    -0.490 OA
ATOM     11  C   UNL     1      -3.873   4.778   1.126  0.00  0.00    +0.277 C 
ENDBRANCH   9  10
BRANCH   8  12
ATOM     12  O   UNL     1      -4.650   5.864  -1.866  0.00  0.00    -0.491 OA
ATOM     13  C   UNL     1      -4.925   6.851  -2.862  0.00  0.00    +0.277 C 
ENDBRANCH   8  12
BRANCH   6  14
ATOM     14  C   UNL     1      -0.562   4.939  -4.325  0.00  0.00    +0.015 C 
ATOM     15  C   UNL     1      -0.876   5.886  -5.236  0.00  0.00    +0.096 C 
BRANCH  15  16
ATOM     16  C   UNL     1      -0.005   6.139  -6.325  0.00  0.00    +0.380 C 
ATOM     17  O   UNL     1       1.026   5.503  -6.440  0.00  0.00    -0.241 OA
ATOM     18  O   UNL     1      -0.319   7.086  -7.234  0.00  0.00    -0.241 OA
ENDBRANCH  15  16
ENDBRANCH   6  14
ENDBRANCH   1   4
BRANCH   1  19
ATOM     19  N   UNL     1      -1.377   2.973   1.445  0.00  0.00    -0.216 N 
ATOM     20  H   UNL     1      -2.092   2.801   2.262  0.00  0.00    +0.174 HD
BRANCH  19  26
ATOM     21  C   UNL     1       2.053   4.865   4.413  0.00  0.00    +0.044 C 
ATOM     22  C   UNL     1       1.390   4.770   3.063  0.00  0.00    -0.044 A 
ATOM     23  C   UNL     1       1.855   5.537   2.010  0.00  0.00    +0.032 A 
ATOM     24  C   UNL     1       1.249   5.453   0.769  0.00  0.00    +0.108 A 
ATOM     25  C   UNL     1       0.177   4.603   0.579  0.00  0.00    +0.053 A 
ATOM     26  C   UNL     1      -0.293   3.832   1.634  0.00  0.00    +0.053 A 
ATOM     27  C   UNL     1       0.315   3.922   2.880  0.00  0.00    -0.025 A 
ATOM     28  C   UNL     1      -0.195   3.092   4.030  0.00  0.00    +0.046 C 
BRANCH  24  29
ATOM     29  S   UNL     1       1.845   6.432  -0.569  0.00  0.00    +0.060 S 
ATOM     30  O   UNL     1       3.202   6.738  -0.275  0.00  0.00    -0.153 OA
ATOM     31  O   UNL     1       1.456   5.767  -1.763  0.00  0.00    -0.153 OA
BRANCH  29  32
ATOM     32  N   UNL     1       1.018   7.866  -0.533  0.00  0.00    -0.183 NA
ATOM     33  C   UNL     1       1.541   8.995   0.240  0.00  0.00    +0.131 C 
ATOM     34  C   UNL     1      -0.237   8.006  -1.276  0.00  0.00    +0.131 C 
ENDBRANCH  29  32
ENDBRANCH  24  29
ENDBRANCH  19  26
ENDBRANCH   1  19
TORSDOF 9
