REMARK  Name = ZINC09211117
REMARK  10 active torsions:
REMARK  status: ('A' for Active; 'I' for Inactive)
REMARK    1  A    between atoms: C_1  and  C_2
REMARK    2  A    between atoms: C_2  and  C_3
REMARK    3  A    between atoms: C_3  and  C_4
REMARK    4  A    between atoms: C_4  and  N_75
REMARK    5  A    between atoms: C_5  and  C_6
REMARK    6  A    between atoms: C_5  and  N_75
REMARK    7  A    between atoms: C_6  and  N_7
REMARK    8  A    between atoms: C_8  and  C_10
REMARK    9  A    between atoms: C_31  and  C_32
REMARK   10  A    between atoms: C_31  and  N_75
REMARK                            x       y       z     vdW  Elec       q    Type
REMARK                         _______ _______ _______ _____ _____    ______ ____
ROOT
ATOM      1  C   UNL     1      -0.007   1.501   0.015  0.00  0.00    +0.092 C 
ATOM      2  C   UNL     1      -0.768   2.004  -1.216  0.00  0.00    +0.016 C 
ATOM      3  C   UNL     1      -0.841   3.533  -1.172  0.00  0.00    +0.020 C 
ATOM      4  C   UNL     1      -1.519   3.970   0.129  0.00  0.00    +0.106 C 
ATOM      5  N   UNL     1      -0.753   3.465   1.275  0.00  0.00    -0.313 N 
ATOM      6  C   UNL     1      -0.710   1.997   1.281  0.00  0.00    +0.119 C 
ATOM      7  C   UNL     1      -1.264   3.950   2.466  0.00  0.00    +0.152 A 
ATOM      8  C   UNL     1      -1.397   5.333   2.681  0.00  0.00    +0.148 A 
ATOM      9  C   UNL     1      -1.924   5.766   3.909  0.00  0.00    +0.166 A 
ATOM     10  N   UNL     1      -2.276   4.860   4.816  0.00  0.00    -0.216 NA
ATOM     11  C   UNL     1      -2.132   3.575   4.572  0.00  0.00    +0.225 A 
ATOM     12  N   UNL     1      -1.647   3.120   3.430  0.00  0.00    -0.218 NA
ATOM     13  N   UNL     1      -1.938   7.136   3.852  0.00  0.00    -0.312 N 
ATOM     14  C   UNL     1      -1.446   7.503   2.634  0.00  0.00    +0.112 A 
ATOM     15  N   UNL     1      -1.126   6.441   1.950  0.00  0.00    -0.227 NA
ATOM     16  C   UNL     1      -1.302   8.927   2.151  0.00  0.00    +0.074 C 
ATOM     17  C   UNL     1      -0.650   9.771   3.248  0.00  0.00    +0.008 C 
ATOM     18  C   UNL     1      -1.729  10.335   4.167  0.00  0.00    +0.002 C 
ATOM     19  C   UNL     1      -2.889   9.349   4.294  0.00  0.00    +0.022 C 
ATOM     20  C   UNL     1      -2.388   8.043   4.913  0.00  0.00    +0.125 C 
ENDROOT
BRANCH   1  22
ATOM     21  N   UNL     1       0.589  -0.667  -1.016  0.00  0.00    -0.317 N 
ATOM     22  C   UNL     1       0.017  -0.005   0.010  0.00  0.00    +0.218 C 
ATOM     23  O   UNL     1      -0.477  -0.623   0.930  0.00  0.00    -0.275 OA
ATOM     24  H   UNL     1       0.984  -0.173  -1.751  0.00  0.00    +0.149 HD
BRANCH  21  25
ATOM     25  C   UNL     1       0.613  -2.132  -1.020  0.00  0.00    +0.085 C 
BRANCH  25  26
ATOM     26  C   UNL     1       1.313  -2.627  -2.287  0.00  0.00    -0.059 C 
BRANCH  26  27
ATOM     27  N   UNL     1       1.455  -4.096  -2.207  0.00  0.00    +0.385 N 
ATOM     28  H   UNL     1       1.740  -4.352  -1.254  0.00  0.00    -0.081 HD
BRANCH  27  29
ATOM     29  C   UNL     1       0.163  -4.745  -2.513  0.00  0.00    -0.078 C 
BRANCH  29  30
ATOM     30  C   UNL     1       0.277  -6.240  -2.206  0.00  0.00    -0.019 C 
BRANCH  30  32
ATOM     31  C   UNL     1      -0.947  -8.418  -2.190  0.00  0.00    +0.004 C 
ATOM     32  C   UNL     1      -1.061  -6.923  -2.497  0.00  0.00    -0.005 C 
ENDBRANCH  30  32
ENDBRANCH  29  30
ENDBRANCH  27  29
BRANCH  27  33
ATOM     33  C   UNL     1       2.489  -4.556  -3.158  0.00  0.00    -0.003 C 
BRANCH  33  34
ATOM     34  C   UNL     1       3.847  -4.255  -2.577  0.00  0.00    +0.089 A 
ATOM     35  C   UNL     1       4.516  -5.027  -1.702  0.00  0.00    +0.042 A 
ATOM     36  C   UNL     1       5.738  -4.370  -1.427  0.00  0.00    +0.041 A 
ATOM     37  C   UNL     1       5.741  -3.236  -2.151  0.00  0.00    +0.195 A 
ATOM     38  O   UNL     1       4.596  -3.175  -2.850  0.00  0.00    -0.470 OA
ENDBRANCH  33  34
ENDBRANCH  27  33
ENDBRANCH  26  27
ENDBRANCH  25  26
ENDBRANCH  21  25
ENDBRANCH   1  22
TORSDOF 9
