REMARK  Name = ZINC07606743
REMARK  9 active torsions:
REMARK  status: ('A' for Active; 'I' for Inactive)
REMARK    1  A    between atoms: C_1  and  C_2
REMARK    2  A    between atoms: C_6  and  N_9
REMARK    3  A    between atoms: C_7  and  C_8
REMARK    4  A    between atoms: C_10  and  C_12
REMARK    5  A    between atoms: C_12  and  N_58
REMARK    6  A    between atoms: C_13  and  N_58
REMARK    7  A    between atoms: C_14  and  C_15
REMARK    8  A    between atoms: C_14  and  N_58
REMARK    9  A    between atoms: C_28  and  C_30
REMARK                            x       y       z     vdW  Elec       q    Type
REMARK                         _______ _______ _______ _____ _____    ______ ____
ROOT
ATOM      1  C   UNL     1      -7.325   3.592  -0.102  0.00  0.00    +0.019 C 
ENDROOT
BRANCH   1   2
ATOM      2  C   UNL     1      -8.413   2.560   0.045  0.00  0.00    +0.204 C 
ATOM      3  O   UNL     1      -8.134   1.379   0.034  0.00  0.00    -0.277 OA
ATOM      4  N   UNL     1      -9.695   2.948   0.189  0.00  0.00    -0.268 N 
ATOM      5  C   UNL     1     -10.033   4.307   0.210  0.00  0.00    +0.058 A 
ATOM      6  C   UNL     1      -9.727   5.096   1.301  0.00  0.00    +0.025 A 
ATOM      7  C   UNL     1     -10.097   6.428   1.314  0.00  0.00    +0.002 A 
ATOM      8  C   UNL     1     -10.771   6.976   0.238  0.00  0.00    +0.002 A 
ATOM      9  C   UNL     1     -11.068   6.198  -0.866  0.00  0.00    +0.025 A 
ATOM     10  C   UNL     1     -10.690   4.866  -0.891  0.00  0.00    +0.055 A 
ATOM     11  N   UNL     1     -10.950   4.065  -2.010  0.00  0.00    -0.284 N 
ATOM     12  C   UNL     1     -11.520   2.848  -1.865  0.00  0.00    +0.219 C 
ATOM     13  O   UNL     1     -11.668   2.134  -2.834  0.00  0.00    -0.275 OA
ATOM     14  C   UNL     1     -11.971   2.372  -0.510  0.00  0.00    +0.118 C 
ATOM     15  C   UNL     1     -10.763   1.958   0.333  0.00  0.00    +0.087 C 
ATOM     16  C   UNL     1     -11.178   1.867   1.803  0.00  0.00    +0.029 C 
ATOM     17  H   UNL     1     -10.719   4.386  -2.896  0.00  0.00    +0.155 HD
ENDBRANCH   1   2
BRANCH   1  19
ATOM     18  C   UNL     1      -5.960   2.161  -1.499  0.00  0.00    -0.095 C 
ATOM     19  N   UNL     1      -6.024   2.901  -0.221  0.00  0.00    +0.389 N 
ATOM     20  H   UNL     1      -5.928   2.235   0.555  0.00  0.00    -0.081 HD
BRANCH  19  21
ATOM     21  C   UNL     1      -4.922   3.883  -0.150  0.00  0.00    +0.019 C 
BRANCH  21  23
ATOM     22  N   UNL     1      -2.456   3.823   0.043  0.00  0.00    -0.287 N 
ATOM     23  C   UNL     1      -3.614   3.140  -0.052  0.00  0.00    +0.201 C 
ATOM     24  O   UNL     1      -3.604   1.927  -0.058  0.00  0.00    -0.278 OA
ATOM     25  H   UNL     1      -2.469   4.789   0.129  0.00  0.00    +0.155 HD
BRANCH  22  31
ATOM     26  C   UNL     1       2.316   3.636   1.212  0.00  0.00    +0.044 C 
ATOM     27  C   UNL     1       1.093   3.025   0.577  0.00  0.00    -0.046 A 
ATOM     28  C   UNL     1       1.177   1.786  -0.032  0.00  0.00    +0.004 A 
ATOM     29  C   UNL     1       0.058   1.222  -0.615  0.00  0.00    +0.002 A 
ATOM     30  C   UNL     1      -1.147   1.897  -0.596  0.00  0.00    +0.023 A 
ATOM     31  C   UNL     1      -1.236   3.139   0.018  0.00  0.00    +0.036 A 
ATOM     32  C   UNL     1      -0.110   3.703   0.604  0.00  0.00    -0.026 A 
ATOM     33  C   UNL     1      -0.201   5.052   1.268  0.00  0.00    +0.046 C 
ENDBRANCH  22  31
ENDBRANCH  21  23
ENDBRANCH  19  21
ENDBRANCH   1  19
TORSDOF 5
