REMARK  Name = ZINC33567583
REMARK  10 active torsions:
REMARK  status: ('A' for Active; 'I' for Inactive)
REMARK    1  A    between atoms: C_1  and  C_2
REMARK    2  A    between atoms: C_7  and  N_8
REMARK    3  A    between atoms: N_11  and  C_12
REMARK    4  A    between atoms: C_12  and  C_14
REMARK    5  A    between atoms: C_12  and  C_15
REMARK    6  A    between atoms: C_18  and  S_29
REMARK    7  A    between atoms: N_19  and  C_20
REMARK    8  A    between atoms: C_23  and  N_26
REMARK    9  A    between atoms: S_29  and  C_30
REMARK   10  A    between atoms: C_30  and  C_31
REMARK                            x       y       z     vdW  Elec       q    Type
REMARK                         _______ _______ _______ _____ _____    ______ ____
ROOT
ATOM      1  C   UNL     1       1.242  -6.669  -1.735  0.00  0.00    +0.159 A 
ATOM      2  N   UNL     1       1.243  -6.375  -0.466  0.00  0.00    -0.131 NA
ATOM      3  N   UNL     1       1.224  -5.099  -0.307  0.00  0.00    -0.122 NA
ATOM      4  C   UNL     1       1.201  -4.503  -1.476  0.00  0.00    +0.196 A 
ATOM      5  N   UNL     1       1.215  -5.487  -2.427  0.00  0.00    -0.273 N 
ENDROOT
BRANCH   5   6
ATOM      6  C   UNL     1       1.205  -5.320  -3.819  0.00  0.00    +0.050 A 
ATOM      7  C   UNL     1       0.124  -5.768  -4.566  0.00  0.00    +0.028 A 
ATOM      8  C   UNL     1       0.115  -5.598  -5.936  0.00  0.00    +0.035 A 
ATOM      9  C   UNL     1       1.186  -4.992  -6.566  0.00  0.00    +0.126 A 
ATOM     10  C   UNL     1       2.267  -4.550  -5.826  0.00  0.00    +0.035 A 
ATOM     11  C   UNL     1       2.279  -4.712  -4.455  0.00  0.00    +0.028 A 
BRANCH   9  12
ATOM     12  N   UNL     1       1.176  -4.816  -8.036  0.00  0.00    +0.056 N 
ATOM     13  O   UNL     1       2.119  -4.283  -8.592  0.00  0.00    -0.126 OA
ATOM     14  O   UNL     1       0.224  -5.205  -8.689  0.00  0.00    -0.126 OA
ENDBRANCH   9  12
ENDBRANCH   5   6
BRANCH   1  15
ATOM     15  C   UNL     1       1.266  -8.053  -2.331  0.00  0.00    +0.140 C 
ATOM     16  C   UNL     1       2.671  -8.642  -2.197  0.00  0.00    +0.036 C 
BRANCH  15  20
ATOM     17  N   UNL     1      -1.102 -10.766  -1.587  0.00  0.00    -0.269 N 
ATOM     18  C   UNL     1      -0.222  -9.980  -2.240  0.00  0.00    +0.304 C 
ATOM     19  O   UNL     1       0.092 -10.241  -3.385  0.00  0.00    -0.252 OA
ATOM     20  N   UNL     1       0.309  -8.906  -1.622  0.00  0.00    -0.290 N 
ATOM     21  H   UNL     1      -1.317 -10.585  -0.524  0.00  0.00    +0.156 HD
ATOM     22  H   UNL     1       0.024  -8.671  -0.586  0.00  0.00    +0.151 HD
BRANCH  17  29
ATOM     23  C   UNL     1      -2.061 -12.966  -0.060  0.00  0.00    +0.045 C 
ATOM     24  C   UNL     1      -2.226 -12.903  -1.557  0.00  0.00    -0.029 A 
ATOM     25  C   UNL     1      -2.858 -13.932  -2.227  0.00  0.00    +0.005 A 
ATOM     26  C   UNL     1      -3.010 -13.875  -3.600  0.00  0.00    +0.000 A 
ATOM     27  C   UNL     1      -2.530 -12.787  -4.307  0.00  0.00    +0.002 A 
ATOM     28  C   UNL     1      -1.901 -11.753  -3.642  0.00  0.00    +0.023 A 
ATOM     29  C   UNL     1      -1.743 -11.810  -2.263  0.00  0.00    +0.038 A 
ENDBRANCH  17  29
ENDBRANCH  15  20
ENDBRANCH   1  15
BRANCH   4  30
ATOM     30  S   UNL     1       1.166  -2.766  -1.767  0.00  0.00    -0.081 S 
BRANCH  30  31
ATOM     31  C   UNL     1       1.163  -2.162  -0.060  0.00  0.00    +0.112 C 
BRANCH  31  32
ATOM     32  C   UNL     1       1.133  -0.655  -0.061  0.00  0.00    -0.037 A 
ATOM     33  C   UNL     1      -0.077   0.012  -0.054  0.00  0.00    +0.007 A 
ATOM     34  C   UNL     1      -0.105   1.394  -0.055  0.00  0.00    +0.038 A 
ATOM     35  C   UNL     1       1.080   2.110  -0.062  0.00  0.00    +0.123 A 
ATOM     36  C   UNL     1       2.292   1.440  -0.068  0.00  0.00    +0.038 A 
ATOM     37  C   UNL     1       2.317   0.059  -0.068  0.00  0.00    +0.007 A 
ATOM     38  F   UNL     1       1.053   3.460  -0.062  0.00  0.00    -0.205 F 
ENDBRANCH  31  32
ENDBRANCH  30  31
ENDBRANCH   4  30
TORSDOF 8
