REMARK  Name = ZINC63608967
REMARK  4 active torsions:
REMARK  status: ('A' for Active; 'I' for Inactive)
REMARK    1  A    between atoms: C_1  and  O_2
REMARK    2  A    between atoms: O_2  and  C_3
REMARK    3  A    between atoms: C_8  and  C_13
REMARK    4  A    between atoms: N_15  and  C_16
REMARK                            x       y       z     vdW  Elec       q    Type
REMARK                         _______ _______ _______ _____ _____    ______ ____
ROOT
ATOM      1  C   UNL     1       1.406  -4.634  -4.928  0.00  0.00    +0.241 C 
ATOM      2  O   UNL     1       0.741  -3.985  -5.708  0.00  0.00    -0.273 OA
ATOM      3  N   UNL     1       1.414  -5.980  -5.007  0.00  0.00    -0.286 N 
ATOM      4  H   UNL     1       1.945  -6.499  -4.383  0.00  0.00    +0.151 HD
ENDROOT
BRANCH   1  10
ATOM      5  C   UNL     1       0.606  -0.607  -1.056  0.00  0.00    +0.121 A 
ATOM      6  C   UNL     1       1.172   0.195  -2.062  0.00  0.00    +0.047 A 
ATOM      7  C   UNL     1       1.790  -0.325  -3.144  0.00  0.00    +0.029 A 
ATOM      8  C   UNL     1       1.886  -1.780  -3.299  0.00  0.00    +0.043 A 
ATOM      9  N   UNL     1       2.419  -2.528  -4.232  0.00  0.00    -0.370 N 
ATOM     10  C   UNL     1       2.222  -3.937  -3.871  0.00  0.00    +0.190 C 
ATOM     11  C   UNL     1       1.476  -3.927  -2.555  0.00  0.00    +0.016 C 
ATOM     12  C   UNL     1       1.290  -2.626  -2.239  0.00  0.00    -0.000 A 
ATOM     13  C   UNL     1       0.646  -1.960  -1.102  0.00  0.00    +0.055 A 
ATOM     14  H   UNL     1       2.869  -2.205  -5.029  0.00  0.00    +0.161 HD
BRANCH   5  16
ATOM     15  C   UNL     1      -0.017   1.425   0.010  0.00  0.00    +0.277 C 
ATOM     16  O   UNL     1       0.002  -0.004   0.002  0.00  0.00    -0.495 OA
ENDBRANCH   5  16
ENDBRANCH   1  10
BRANCH   3  17
ATOM     17  C   UNL     1       0.620  -6.658  -6.035  0.00  0.00    +0.224 C 
ATOM     18  N   UNL     1       0.548  -8.103  -5.779  0.00  0.00    -0.316 N 
ATOM     19  C   UNL     1       1.093  -8.955  -6.739  0.00  0.00    +0.043 A 
ATOM     20  C   UNL     1       1.117 -10.359  -6.668  0.00  0.00    +0.024 A 
ATOM     21  C   UNL     1       1.680 -11.114  -7.671  0.00  0.00    +0.002 A 
ATOM     22  C   UNL     1       2.241 -10.517  -8.784  0.00  0.00    +0.001 A 
ATOM     23  C   UNL     1       2.232  -9.135  -8.882  0.00  0.00    +0.016 A 
ATOM     24  C   UNL     1       1.668  -8.381  -7.877  0.00  0.00    +0.032 A 
ATOM     25  S   UNL     1       1.476  -6.625  -7.660  0.00  0.00    -0.082 S 
ATOM     26  H   UNL     1       0.138  -8.452  -4.972  0.00  0.00    +0.149 HD
ENDBRANCH   3  17
TORSDOF 3
