REMARK  Name = ZINC10419589
REMARK  10 active torsions:
REMARK  status: ('A' for Active; 'I' for Inactive)
REMARK    1  A    between atoms: C_1  and  C_2
REMARK    2  A    between atoms: C_2  and  N_3
REMARK    3  A    between atoms: C_13  and  S_14
REMARK    4  A    between atoms: S_14  and  C_15
REMARK    5  A    between atoms: C_15  and  C_16
REMARK    6  A    between atoms: C_17  and  C_30
REMARK    7  A    between atoms: C_18  and  C_24
REMARK    8  A    between atoms: C_30  and  O_32
REMARK    9  A    between atoms: O_32  and  C_33
REMARK   10  A    between atoms: C_33  and  C_34
REMARK                            x       y       z     vdW  Elec       q    Type
REMARK                         _______ _______ _______ _____ _____    ______ ____
ROOT
ATOM      1  C   UNL     1       2.111   7.631   0.034  0.00  0.00    +0.034 C 
ATOM      2  C   UNL     1       2.495   8.227   1.183  0.00  0.00    +0.079 C 
ATOM      3  C   UNL     1       2.839   9.702   1.131  0.00  0.00    +0.144 C 
ATOM      4  N   UNL     1       2.715  10.370  -0.175  0.00  0.00    -0.288 N 
ATOM      5  C   UNL     1       2.314   9.640  -1.234  0.00  0.00    +0.304 C 
ATOM      6  O   UNL     1       2.209  10.183  -2.316  0.00  0.00    -0.252 OA
ATOM      7  N   UNL     1       2.026   8.336  -1.133  0.00  0.00    -0.272 N 
ATOM      8  H   UNL     1       2.918  11.314  -0.271  0.00  0.00    +0.151 HD
ATOM      9  H   UNL     1       1.742   7.867  -1.932  0.00  0.00    +0.156 HD
ENDROOT
BRANCH   3  10
ATOM     10  C   UNL     1       1.941  10.418   2.107  0.00  0.00    -0.023 A 
ATOM     11  C   UNL     1       0.695  10.859   1.703  0.00  0.00    +0.006 A 
ATOM     12  C   UNL     1      -0.131  11.512   2.599  0.00  0.00    +0.000 A 
ATOM     13  C   UNL     1       0.294  11.733   3.896  0.00  0.00    +0.000 A 
ATOM     14  C   UNL     1       1.542  11.296   4.298  0.00  0.00    +0.000 A 
ATOM     15  C   UNL     1       2.366  10.639   3.404  0.00  0.00    +0.006 A 
ENDBRANCH   3  10
BRANCH   2  16
ATOM     16  C   UNL     1       2.577   7.498   2.393  0.00  0.00    +0.339 C 
ATOM     17  O   UNL     1       2.435   6.290   2.386  0.00  0.00    -0.245 OA
BRANCH  16  18
ATOM     18  O   UNL     1       2.814   8.144   3.554  0.00  0.00    -0.462 OA
BRANCH  18  19
ATOM     19  C   UNL     1       2.884   7.345   4.737  0.00  0.00    +0.229 C 
ATOM     20  C   UNL     1       3.157   8.245   5.944  0.00  0.00    +0.048 C 
ENDBRANCH  18  19
ENDBRANCH  16  18
ENDBRANCH   2  16
BRANCH   1  21
ATOM     21  C   UNL     1       1.764   6.164   0.039  0.00  0.00    +0.128 C 
BRANCH  21  22
ATOM     22  S   UNL     1       3.176   5.208  -0.568  0.00  0.00    -0.082 S 
BRANCH  22  33
ATOM     23  N   UNL     1       3.298   2.529  -0.839  0.00  0.00    -0.288 N 
ATOM     24  C   UNL     1       2.827   1.262  -0.776  0.00  0.00    +0.262 A 
ATOM     25  O   UNL     1       3.513   0.316  -1.116  0.00  0.00    -0.267 OA
ATOM     26  C   UNL     1       1.459   1.071  -0.276  0.00  0.00    +0.065 A 
ATOM     27  C   UNL     1       0.884  -0.195  -0.169  0.00  0.00    +0.015 A 
ATOM     28  C   UNL     1      -0.396  -0.316   0.297  0.00  0.00    +0.001 A 
ATOM     29  C   UNL     1      -1.127   0.806   0.665  0.00  0.00    +0.002 A 
ATOM     30  C   UNL     1      -0.588   2.058   0.570  0.00  0.00    +0.028 A 
ATOM     31  C   UNL     1       0.718   2.216   0.096  0.00  0.00    +0.079 A 
ATOM     32  N   UNL     1       1.289   3.432  -0.014  0.00  0.00    -0.223 NA
ATOM     33  C   UNL     1       2.513   3.579  -0.458  0.00  0.00    +0.172 A 
BRANCH  23  35
ATOM     34  C   UNL     1       5.633   2.749  -0.147  0.00  0.00    +0.027 C 
ATOM     35  C   UNL     1       4.658   2.777  -1.325  0.00  0.00    +0.124 C 
ENDBRANCH  23  35
ENDBRANCH  22  33
ENDBRANCH  21  22
ENDBRANCH   1  21
TORSDOF 8
