REMARK  Name = ZINC08742555
REMARK  7 active torsions:
REMARK  status: ('A' for Active; 'I' for Inactive)
REMARK    1  A    between atoms: C_8  and  O_28
REMARK    2  A    between atoms: N_13  and  C_14
REMARK    3  A    between atoms: C_14  and  C_15
REMARK    4  A    between atoms: C_15  and  C_16
REMARK    5  A    between atoms: N_18  and  C_19
REMARK    6  A    between atoms: C_19  and  C_20
REMARK    7  A    between atoms: C_20  and  C_21
REMARK                            x       y       z     vdW  Elec       q    Type
REMARK                         _______ _______ _______ _____ _____    ______ ____
ROOT
ATOM      1  C   UNL     1      -0.017   1.377   0.010  0.00  0.00    +0.002 A 
ATOM      2  C   UNL     1       1.166   2.095   0.002  0.00  0.00    +0.002 A 
ATOM      3  C   UNL     1       2.383   1.437  -0.010  0.00  0.00    +0.026 A 
ATOM      4  C   UNL     1       2.415   0.056  -0.017  0.00  0.00    +0.064 A 
ATOM      5  C   UNL     1       1.220  -0.679  -0.014  0.00  0.00    +0.089 A 
ATOM      6  C   UNL     1       0.002  -0.004   0.002  0.00  0.00    +0.030 A 
ATOM      7  N   UNL     1       1.268  -2.047  -0.034  0.00  0.00    -0.214 NA
ATOM      8  C   UNL     1       2.355  -2.696   0.235  0.00  0.00    +0.206 C 
ATOM      9  C   UNL     1       3.631  -1.984   0.600  0.00  0.00    +0.210 C 
ATOM     10  N   UNL     1       3.628  -0.649  -0.021  0.00  0.00    -0.245 N 
ATOM     11  C   UNL     1       4.742  -0.127  -0.571  0.00  0.00    +0.307 C 
ATOM     12  O   UNL     1       4.710   0.978  -1.077  0.00  0.00    -0.252 OA
ATOM     13  N   UNL     1       5.893  -0.829  -0.559  0.00  0.00    -0.299 N 
ATOM     14  H   UNL     1       5.918  -1.711  -0.155  0.00  0.00    +0.150 HD
ENDROOT
BRANCH   8  15
ATOM     15  O   UNL     1       2.345  -4.045   0.188  0.00  0.00    -0.494 OA
ATOM     16  H   UNL     1       1.489  -4.423  -0.054  0.00  0.00    +0.293 HD
ENDBRANCH   8  15
BRANCH  13  17
ATOM     17  C   UNL     1       7.104  -0.262  -1.157  0.00  0.00    +0.115 C 
BRANCH  17  18
ATOM     18  C   UNL     1       8.258  -1.255  -1.010  0.00  0.00    +0.114 C 
BRANCH  18  19
ATOM     19  C   UNL     1       9.504  -0.672  -1.625  0.00  0.00    +0.215 C 
ATOM     20  O   UNL     1       9.472   0.430  -2.130  0.00  0.00    -0.276 OA
ATOM     21  N   UNL     1      10.654  -1.374  -1.613  0.00  0.00    -0.315 N 
ATOM     22  H   UNL     1      10.680  -2.256  -1.209  0.00  0.00    +0.149 HD
BRANCH  21  23
ATOM     23  C   UNL     1      11.866  -0.807  -2.211  0.00  0.00    +0.109 C 
BRANCH  23  24
ATOM     24  C   UNL     1      13.020  -1.800  -2.064  0.00  0.00    +0.054 C 
BRANCH  24  25
ATOM     25  C   UNL     1      14.266  -1.216  -2.679  0.00  0.00    -0.046 A 
ATOM     26  C   UNL     1      14.545  -1.435  -4.015  0.00  0.00    +0.005 A 
ATOM     27  C   UNL     1      15.688  -0.900  -4.579  0.00  0.00    +0.020 A 
ATOM     28  C   UNL     1      16.552  -0.145  -3.807  0.00  0.00    +0.041 A 
ATOM     29  C   UNL     1      16.272   0.073  -2.470  0.00  0.00    +0.020 A 
ATOM     30  C   UNL     1      15.127  -0.458  -1.908  0.00  0.00    +0.005 A 
ATOM     31 CL   UNL     1      17.988   0.527  -4.515  0.00  0.00    -0.084 Cl
ENDBRANCH  24  25
ENDBRANCH  23  24
ENDBRANCH  21  23
ENDBRANCH  18  19
ENDBRANCH  17  18
ENDBRANCH  13  17
TORSDOF 7
