REMARK  Name = ZINC59795110
REMARK  7 active torsions:
REMARK  status: ('A' for Active; 'I' for Inactive)
REMARK    1  A    between atoms: C_4  and  N_7
REMARK    2  A    between atoms: N_7  and  C_8
REMARK    3  A    between atoms: C_14  and  C_16
REMARK    4  A    between atoms: C_16  and  S_17
REMARK    5  A    between atoms: S_17  and  C_18
REMARK    6  A    between atoms: C_21  and  C_24
REMARK    7  A    between atoms: N_22  and  N_23
REMARK                            x       y       z     vdW  Elec       q    Type
REMARK                         _______ _______ _______ _____ _____    ______ ____
ROOT
ATOM      1  C   UNL     1       6.058  -0.614  -0.324  0.00  0.00    +0.174 C 
ENDROOT
BRANCH   1   3
ATOM      2  N   UNL     1       3.601  -0.652  -0.040  0.00  0.00    -0.240 N 
ATOM      3  C   UNL     1       4.728   0.077  -0.169  0.00  0.00    +0.234 C 
ATOM      4  O   UNL     1       4.671   1.288  -0.160  0.00  0.00    -0.274 OA
BRANCH   2   8
ATOM      5  C   UNL     1      -0.109   1.244   0.032  0.00  0.00    +0.000 A 
ATOM      6  C   UNL     1       0.268   0.425   1.080  0.00  0.00    +0.002 A 
ATOM      7  C   UNL     1       1.496  -0.205   1.059  0.00  0.00    +0.024 A 
ATOM      8  C   UNL     1       2.354  -0.015  -0.016  0.00  0.00    +0.041 A 
ATOM      9  C   UNL     1       1.973   0.808  -1.067  0.00  0.00    +0.024 A 
ATOM     10  C   UNL     1       0.743   1.435  -1.041  0.00  0.00    +0.002 A 
ENDBRANCH   2   8
BRANCH   2  11
ATOM     11  C   UNL     1       3.678  -2.046   0.070  0.00  0.00    +0.041 A 
ATOM     12  C   UNL     1       4.265  -2.624   1.188  0.00  0.00    +0.024 A 
ATOM     13  C   UNL     1       4.338  -3.999   1.294  0.00  0.00    +0.002 A 
ATOM     14  C   UNL     1       3.829  -4.800   0.288  0.00  0.00    +0.000 A 
ATOM     15  C   UNL     1       3.244  -4.227  -0.826  0.00  0.00    +0.002 A 
ATOM     16  C   UNL     1       3.162  -2.853  -0.935  0.00  0.00    +0.024 A 
ENDBRANCH   2  11
ENDBRANCH   1   3
BRANCH   1  17
ATOM     17  S   UNL     1       7.350   0.624  -0.628  0.00  0.00    -0.075 S 
BRANCH  17  18
ATOM     18  C   UNL     1       8.824  -0.329  -0.785  0.00  0.00    +0.209 A 
ATOM     19  N   UNL     1       8.919  -1.637  -0.701  0.00  0.00    -0.121 NA
ATOM     20  N   UNL     1      10.141  -2.002  -0.864  0.00  0.00    -0.127 NA
ATOM     21  C   UNL     1      10.900  -0.949  -1.062  0.00  0.00    +0.182 A 
ATOM     22  N   UNL     1      10.079   0.154  -1.022  0.00  0.00    -0.224 N 
BRANCH  21  23
ATOM     23  C   UNL     1      12.361  -0.950  -1.290  0.00  0.00    +0.021 A 
ATOM     24  C   UNL     1      13.089   0.235  -1.169  0.00  0.00    +0.013 A 
ATOM     25  C   UNL     1      14.452   0.228  -1.383  0.00  0.00    +0.021 A 
ATOM     26  C   UNL     1      15.097  -0.951  -1.716  0.00  0.00    +0.041 A 
ATOM     27  C   UNL     1      14.380  -2.129  -1.837  0.00  0.00    +0.021 A 
ATOM     28  C   UNL     1      13.018  -2.136  -1.620  0.00  0.00    +0.013 A 
ATOM     29 CL   UNL     1      16.813  -0.951  -1.984  0.00  0.00    -0.084 Cl
ENDBRANCH  21  23
BRANCH  22  30
ATOM     30  N   UNL     1      10.444   1.461  -1.184  0.00  0.00    -0.295 N 
ATOM     31  H   UNL     1      10.688   1.880  -0.300  0.00  0.00    +0.163 HD
ATOM     32  H   UNL     1      11.201   1.545  -1.846  0.00  0.00    +0.163 HD
ENDBRANCH  22  30
ENDBRANCH  17  18
ENDBRANCH   1  17
TORSDOF 7
