REMARK  Name = ZINC09443178
REMARK  5 active torsions:
REMARK  status: ('A' for Active; 'I' for Inactive)
REMARK    1  A    between atoms: C_1  and  C_2
REMARK    2  A    between atoms: C_3  and  C_17
REMARK    3  A    between atoms: C_4  and  C_10
REMARK    4  A    between atoms: N_19  and  C_20
REMARK    5  A    between atoms: C_25  and  C_26
REMARK                            x       y       z     vdW  Elec       q    Type
REMARK                         _______ _______ _______ _____ _____    ______ ____
ROOT
ATOM      1  C   UNL     1      -2.434  -0.458   3.918  0.00  0.00    +0.061 C 
ATOM      2  C   UNL     1      -2.571  -0.456   2.418  0.00  0.00    +0.017 C 
ATOM      3  C   UNL     1      -2.988   0.663   1.791  0.00  0.00    +0.056 C 
ATOM      4  C   UNL     1      -3.112   0.623   0.281  0.00  0.00    +0.141 C 
ATOM      5  N   UNL     1      -2.764  -0.645  -0.383  0.00  0.00    -0.315 N 
ATOM      6  C   UNL     1      -2.362  -1.680   0.382  0.00  0.00    +0.135 C 
ATOM      7  S   UNL     1      -1.955  -3.160  -0.376  0.00  0.00    -0.019 S 
ATOM      8  N   UNL     1      -2.271  -1.587   1.714  0.00  0.00    -0.300 N 
ATOM      9  H   UNL     1      -2.824  -0.734  -1.347  0.00  0.00    +0.149 HD
ATOM     10  H   UNL     1      -1.974  -2.368   2.208  0.00  0.00    +0.154 HD
ENDROOT
BRANCH   4  11
ATOM     11  C   UNL     1      -2.228   1.702  -0.287  0.00  0.00    -0.004 A 
ATOM     12  C   UNL     1      -0.915   1.419  -0.617  0.00  0.00    +0.007 A 
ATOM     13  C   UNL     1      -0.105   2.407  -1.143  0.00  0.00    +0.000 A 
ATOM     14  C   UNL     1      -0.606   3.682  -1.335  0.00  0.00    +0.001 A 
ATOM     15  C   UNL     1      -1.916   3.968  -1.002  0.00  0.00    +0.020 A 
ATOM     16  C   UNL     1      -2.727   2.979  -0.475  0.00  0.00    +0.046 A 
ATOM     17 CL   UNL     1      -4.373   3.337  -0.055  0.00  0.00    -0.083 Cl
ENDBRANCH   4  11
BRANCH   3  18
ATOM     18  C   UNL     1      -3.299   1.837   2.519  0.00  0.00    +0.248 C 
ATOM     19  O   UNL     1      -4.461   2.125   2.742  0.00  0.00    -0.270 OA
ATOM     20  N   UNL     1      -2.309   2.635   2.966  0.00  0.00    -0.281 N 
ATOM     21  H   UNL     1      -1.390   2.453   2.717  0.00  0.00    +0.155 HD
BRANCH  20  22
ATOM     22  C   UNL     1      -2.608   3.725   3.790  0.00  0.00    +0.045 A 
ATOM     23  C   UNL     1      -3.830   4.374   3.670  0.00  0.00    +0.024 A 
ATOM     24  C   UNL     1      -4.124   5.447   4.489  0.00  0.00    +0.002 A 
ATOM     25  C   UNL     1      -3.198   5.881   5.420  0.00  0.00    +0.001 A 
ATOM     26  C   UNL     1      -1.979   5.241   5.538  0.00  0.00    +0.014 A 
ATOM     27  C   UNL     1      -1.681   4.164   4.726  0.00  0.00    +0.076 A 
BRANCH  27  28
ATOM     28  C   UNL     1      -0.351   3.467   4.856  0.00  0.00    +0.419 C 
ATOM     29  F   UNL     1       0.370   4.030   5.914  0.00  0.00    -0.166 F 
ATOM     30  F   UNL     1      -0.561   2.106   5.107  0.00  0.00    -0.166 F 
ATOM     31  F   UNL     1       0.372   3.616   3.668  0.00  0.00    -0.166 F 
ENDBRANCH  27  28
ENDBRANCH  20  22
ENDBRANCH   3  18
TORSDOF 4
