REMARK  Name = ZINC12871356
REMARK  10 active torsions:
REMARK  status: ('A' for Active; 'I' for Inactive)
REMARK    1  A    between atoms: C_1  and  C_2
REMARK    2  A    between atoms: C_2  and  O_3
REMARK    3  A    between atoms: O_3  and  C_4
REMARK    4  A    between atoms: C_4  and  C_6
REMARK    5  A    between atoms: C_7  and  C_31
REMARK    6  A    between atoms: C_9  and  N_11
REMARK    7  A    between atoms: C_12  and  C_14
REMARK    8  A    between atoms: C_14  and  N_15
REMARK    9  A    between atoms: C_19  and  C_27
REMARK   10  A    between atoms: C_24  and  C_26
REMARK                            x       y       z     vdW  Elec       q    Type
REMARK                         _______ _______ _______ _____ _____    ______ ____
ROOT
ATOM      1  C   UNL     1       4.587  -1.658   7.752  0.00  0.00    +0.214 C 
ENDROOT
BRANCH   1   2
ATOM      2  N   UNL     1       4.812  -0.278   8.187  0.00  0.00    -0.215 N 
ATOM      3  C   UNL     1       5.888   0.460   7.842  0.00  0.00    +0.247 C 
ATOM      4  O   UNL     1       6.817   0.121   7.141  0.00  0.00    -0.273 OA
ATOM      5  C   UNL     1       5.691   1.800   8.515  0.00  0.00    +0.118 C 
ATOM      6  C   UNL     1       6.824   2.073   9.498  0.00  0.00    +0.019 C 
ATOM      7  C   UNL     1       6.589   3.418  10.189  0.00  0.00    +0.006 C 
ATOM      8  C   UNL     1       6.527   4.527   9.137  0.00  0.00    +0.001 C 
ATOM      9  C   UNL     1       5.371   4.252   8.172  0.00  0.00    +0.006 C 
ATOM     10  C   UNL     1       5.601   2.909   7.473  0.00  0.00    +0.019 C 
ATOM     11  C   UNL     1       4.436   2.623   6.523  0.00  0.00    +0.010 C 
ATOM     12  C   UNL     1       6.866   0.961  10.548  0.00  0.00    +0.010 C 
ATOM     13  N   UNL     1       4.415   1.657   9.226  0.00  0.00    -0.284 N 
ATOM     14  C   UNL     1       3.973   0.410   8.971  0.00  0.00    +0.310 C 
ATOM     15  O   UNL     1       2.932  -0.041   9.406  0.00  0.00    -0.252 OA
ATOM     16  H   UNL     1       3.974   2.329   9.770  0.00  0.00    +0.151 HD
ENDBRANCH   1   2
BRANCH   1  18
ATOM     17  N   UNL     1       3.501  -2.824   5.859  0.00  0.00    -0.279 N 
ATOM     18  C   UNL     1       3.824  -1.657   6.452  0.00  0.00    +0.236 C 
ATOM     19  O   UNL     1       3.499  -0.607   5.941  0.00  0.00    -0.274 OA
ATOM     20  H   UNL     1       3.760  -3.664   6.269  0.00  0.00    +0.155 HD
BRANCH  17  24
ATOM     21  C   UNL     1       1.474  -2.353   2.429  0.00  0.00    +0.101 A 
ATOM     22  C   UNL     1       1.697  -3.685   2.758  0.00  0.00    -0.028 A 
ATOM     23  C   UNL     1       2.386  -3.907   3.921  0.00  0.00    +0.035 A 
ATOM     24  C   UNL     1       2.797  -2.823   4.662  0.00  0.00    +0.073 A 
ATOM     25  S   UNL     1       2.258  -1.497   3.781  0.00  0.00    -0.067 S 
ATOM     26  C   UNL     1       1.210  -4.815   1.889  0.00  0.00    +0.045 C 
BRANCH  21  27
ATOM     27  C   UNL     1       0.801  -1.815   1.305  0.00  0.00    +0.346 C 
ATOM     28  O   UNL     1       0.321  -2.558   0.469  0.00  0.00    -0.244 OA
BRANCH  27  29
ATOM     29  O   UNL     1       0.693  -0.477   1.160  0.00  0.00    -0.461 OA
BRANCH  29  31
ATOM     30  C   UNL     1      -0.019   1.526   0.010  0.00  0.00    +0.048 C 
ATOM     31  C   UNL     1       0.002  -0.004   0.002  0.00  0.00    +0.229 C 
ENDBRANCH  29  31
ENDBRANCH  27  29
ENDBRANCH  21  27
ENDBRANCH  17  24
ENDBRANCH   1  18
TORSDOF 6
