REMARK  Name = ZINC21608812
REMARK  8 active torsions:
REMARK  status: ('A' for Active; 'I' for Inactive)
REMARK    1  A    between atoms: C_1  and  C_2
REMARK    2  A    between atoms: C_5  and  N_8
REMARK    3  A    between atoms: C_9  and  C_27
REMARK    4  A    between atoms: C_12  and  S_13
REMARK    5  A    between atoms: S_13  and  C_14
REMARK    6  A    between atoms: C_14  and  C_15
REMARK    7  A    between atoms: N_20  and  C_21
REMARK    8  A    between atoms: C_21  and  C_22
REMARK                            x       y       z     vdW  Elec       q    Type
REMARK                         _______ _______ _______ _____ _____    ______ ____
ROOT
ATOM      1  N   UNL     1      -3.764   1.531  -0.159  0.00  0.00    -0.270 N 
ATOM      2  C   UNL     1      -2.500   0.983  -0.132  0.00  0.00    +0.169 A 
ATOM      3  N   UNL     1      -2.643  -0.300   0.108  0.00  0.00    -0.128 NA
ATOM      4  N   UNL     1      -3.889  -0.590   0.226  0.00  0.00    -0.122 NA
ATOM      5  C   UNL     1      -4.622   0.490   0.068  0.00  0.00    +0.197 A 
ENDROOT
BRANCH   1  10
ATOM      6  C   UNL     1      -5.126   6.970  -1.040  0.00  0.00    +0.044 C 
ATOM      7  C   UNL     1      -4.765   5.526  -0.806  0.00  0.00    -0.050 A 
ATOM      8  C   UNL     1      -5.095   4.570  -1.750  0.00  0.00    +0.005 A 
ATOM      9  C   UNL     1      -4.764   3.246  -1.538  0.00  0.00    +0.026 A 
ATOM     10  C   UNL     1      -4.101   2.874  -0.376  0.00  0.00    +0.051 A 
ATOM     11  C   UNL     1      -3.776   3.835   0.572  0.00  0.00    +0.026 A 
ATOM     12  C   UNL     1      -4.104   5.159   0.352  0.00  0.00    +0.005 A 
ENDBRANCH   1  10
BRANCH   2  13
ATOM     13  C   UNL     1      -1.225   1.704  -0.329  0.00  0.00    +0.020 A 
ATOM     14  C   UNL     1      -1.218   2.963  -0.931  0.00  0.00    +0.013 A 
ATOM     15  C   UNL     1      -0.026   3.633  -1.107  0.00  0.00    +0.021 A 
ATOM     16  C   UNL     1       1.163   3.057  -0.693  0.00  0.00    +0.041 A 
ATOM     17  C   UNL     1       1.163   1.806  -0.100  0.00  0.00    +0.021 A 
ATOM     18  C   UNL     1      -0.023   1.126   0.082  0.00  0.00    +0.013 A 
ATOM     19 CL   UNL     1       2.660   3.908  -0.917  0.00  0.00    -0.084 Cl
ENDBRANCH   2  13
BRANCH   5  20
ATOM     20  S   UNL     1      -6.380   0.580   0.143  0.00  0.00    -0.076 S 
BRANCH  20  21
ATOM     21  C   UNL     1      -6.770  -1.155   0.478  0.00  0.00    +0.173 C 
BRANCH  21  22
ATOM     22  C   UNL     1      -8.264  -1.323   0.586  0.00  0.00    +0.231 C 
ATOM     23  O   UNL     1      -8.992  -0.363   0.450  0.00  0.00    -0.274 OA
ATOM     24  N   UNL     1      -8.790  -2.539   0.834  0.00  0.00    -0.239 N 
ATOM     25  C   UNL     1     -10.125  -2.688   0.930  0.00  0.00    +0.306 C 
ATOM     26  O   UNL     1     -10.856  -1.727   0.794  0.00  0.00    -0.252 OA
ATOM     27  N   UNL     1     -10.651  -3.904   1.178  0.00  0.00    -0.292 N 
ATOM     28  H   UNL     1      -8.128  -3.409   0.957  0.00  0.00    +0.159 HD
ATOM     29  H   UNL     1      -9.990  -4.775   1.302  0.00  0.00    +0.151 HD
BRANCH  27  30
ATOM     30  C   UNL     1     -12.103  -4.067   1.283  0.00  0.00    +0.180 C 
BRANCH  30  31
ATOM     31  C   UNL     1     -12.428  -5.512   1.562  0.00  0.00    +0.122 A 
ATOM     32  C   UNL     1     -12.542  -6.072   2.780  0.00  0.00    +0.046 A 
ATOM     33  C   UNL     1     -12.854  -7.436   2.576  0.00  0.00    +0.041 A 
ATOM     34  C   UNL     1     -12.912  -7.628   1.246  0.00  0.00    +0.195 A 
ATOM     35  O   UNL     1     -12.659  -6.458   0.637  0.00  0.00    -0.466 OA
ENDBRANCH  30  31
ENDBRANCH  27  30
ENDBRANCH  21  22
ENDBRANCH  20  21
ENDBRANCH   5  20
TORSDOF 7
