REMARK  Name = ZINC12541615
REMARK  5 active torsions:
REMARK  status: ('A' for Active; 'I' for Inactive)
REMARK    1  A    between atoms: C_1  and  C_2
REMARK    2  A    between atoms: C_4  and  S_9
REMARK    3  A    between atoms: S_9  and  N_12
REMARK    4  A    between atoms: N_12  and  C_13
REMARK    5  A    between atoms: C_18  and  C_19
REMARK                            x       y       z     vdW  Elec       q    Type
REMARK                         _______ _______ _______ _____ _____    ______ ____
ROOT
ATOM      1  C   UNL     1       0.007   3.783  -0.330  0.00  0.00    +0.059 A 
ATOM      2  C   UNL     1       1.028   2.846  -0.407  0.00  0.00    +0.025 A 
ATOM      3  C   UNL     1       0.731   1.497  -0.385  0.00  0.00    +0.002 A 
ATOM      4  C   UNL     1      -0.583   1.071  -0.284  0.00  0.00    +0.001 A 
ATOM      5  C   UNL     1      -1.609   1.990  -0.212  0.00  0.00    +0.013 A 
ATOM      6  C   UNL     1      -1.323   3.355  -0.228  0.00  0.00    +0.042 A 
ENDROOT
BRANCH   6   7
ATOM      7  C   UNL     1      -2.418   4.344  -0.145  0.00  0.00    +0.166 A 
ATOM      8  N   UNL     1      -2.465   5.399   0.641  0.00  0.00    -0.129 NA
ATOM      9  N   UNL     1      -3.563   6.041   0.444  0.00  0.00    -0.134 NA
ATOM     10  C   UNL     1      -4.270   5.441  -0.472  0.00  0.00    +0.134 A 
ATOM     11  N   UNL     1      -3.573   4.343  -0.872  0.00  0.00    -0.311 N 
ATOM     12  C   UNL     1      -4.001   3.351  -1.859  0.00  0.00    +0.125 C 
ATOM     13  C   UNL     1      -4.935   4.019  -2.872  0.00  0.00    +0.022 C 
ATOM     14  C   UNL     1      -6.379   3.924  -2.383  0.00  0.00    +0.002 C 
ATOM     15  C   UNL     1      -6.544   4.655  -1.054  0.00  0.00    +0.008 C 
ATOM     16  C   UNL     1      -5.610   5.869  -1.015  0.00  0.00    +0.076 C 
ENDBRANCH   6   7
BRANCH   1  17
ATOM     17  N   UNL     1       0.304   5.145  -0.352  0.00  0.00    -0.216 N 
ATOM     18  H   UNL     1      -0.221   5.765   0.177  0.00  0.00    +0.174 HD
BRANCH  17  19
ATOM     19  S   UNL     1       1.554   5.704  -1.284  0.00  0.00    +0.072 S 
ATOM     20  O   UNL     1       1.518   7.122  -1.203  0.00  0.00    -0.150 OA
ATOM     21  O   UNL     1       2.701   4.948  -0.921  0.00  0.00    -0.150 OA
BRANCH  19  25
ATOM     22  C   UNL     1      -0.597   6.801  -5.920  0.00  0.00    +0.045 C 
ATOM     23  C   UNL     1       0.181   5.841  -5.058  0.00  0.00    -0.035 A 
ATOM     24  C   UNL     1       0.471   6.168  -3.747  0.00  0.00    +0.033 A 
ATOM     25  C   UNL     1       1.184   5.287  -2.956  0.00  0.00    +0.109 A 
ATOM     26  C   UNL     1       1.613   4.080  -3.478  0.00  0.00    +0.030 A 
ATOM     27  C   UNL     1       1.319   3.750  -4.787  0.00  0.00    +0.017 A 
ATOM     28  C   UNL     1       0.605   4.632  -5.579  0.00  0.00    +0.021 A 
ATOM     29 BR   UNL     1       0.209   4.184  -7.373  0.00  0.00    -0.050 Br
ENDBRANCH  19  25
ENDBRANCH  17  19
ENDBRANCH   1  17
TORSDOF 4
