REMARK  Name = ZINC36491593
REMARK  12 active torsions:
REMARK  status: ('A' for Active; 'I' for Inactive)
REMARK    1  A    between atoms: C_1  and  C_2
REMARK    2  A    between atoms: C_5  and  S_8
REMARK    3  A    between atoms: S_8  and  C_11
REMARK    4  A    between atoms: C_11  and  N_12
REMARK    5  A    between atoms: C_13  and  C_15
REMARK    6  A    between atoms: C_15  and  C_17
REMARK    7  A    between atoms: C_15  and  N_24
REMARK    8  A    between atoms: C_22  and  O_23
REMARK    9  A    between atoms: N_24  and  C_25
REMARK   10  A    between atoms: C_31  and  C_33
REMARK   11  A    between atoms: C_33  and  O_34
REMARK   12  A    between atoms: O_34  and  C_35
REMARK                            x       y       z     vdW  Elec       q    Type
REMARK                         _______ _______ _______ _____ _____    ______ ____
ROOT
ATOM      1  C   UNL     1       3.188  -5.301   3.536  0.00  0.00    +0.196 C 
ENDROOT
BRANCH   1   2
ATOM      2  C   UNL     1       4.493  -4.787   2.983  0.00  0.00    +0.023 A 
ATOM      3  C   UNL     1       4.989  -5.294   1.797  0.00  0.00    +0.009 A 
ATOM      4  C   UNL     1       6.185  -4.824   1.290  0.00  0.00    +0.001 A 
ATOM      5  C   UNL     1       6.889  -3.845   1.967  0.00  0.00    +0.004 A 
ATOM      6  C   UNL     1       6.397  -3.334   3.152  0.00  0.00    +0.046 A 
ATOM      7  C   UNL     1       5.194  -3.801   3.661  0.00  0.00    +0.122 A 
BRANCH   7   8
ATOM      8  O   UNL     1       4.705  -3.297   4.825  0.00  0.00    -0.506 OA
ATOM      9  H   UNL     1       5.000  -3.772   5.614  0.00  0.00    +0.292 HD
ENDBRANCH   7   8
ENDBRANCH   1   2
BRANCH   1  11
ATOM     10  N   UNL     1       2.069  -5.352   1.330  0.00  0.00    -0.294 N 
ATOM     11  C   UNL     1       2.428  -6.015   2.448  0.00  0.00    +0.239 C 
ATOM     12  O   UNL     1       2.139  -7.185   2.578  0.00  0.00    -0.273 OA
ATOM     13  H   UNL     1       2.301  -4.416   1.226  0.00  0.00    +0.150 HD
BRANCH  10  14
ATOM     14  C   UNL     1       1.330  -6.045   0.273  0.00  0.00    +0.278 C 
BRANCH  14  15
ATOM     15  S   UNL     1      -0.448  -5.761   0.491  0.00  0.00    +0.013 S 
ATOM     16  O   UNL     1      -0.815  -5.978   1.847  0.00  0.00    -0.168 OA
ATOM     17  O   UNL     1      -1.175  -6.375  -0.564  0.00  0.00    -0.168 OA
BRANCH  15  22
ATOM     18  C   UNL     1      -1.192   0.164  -0.374  0.00  0.00    +0.044 C 
ATOM     19  C   UNL     1      -1.006  -1.316  -0.158  0.00  0.00    -0.050 A 
ATOM     20  C   UNL     1      -1.094  -2.187  -1.227  0.00  0.00    +0.005 A 
ATOM     21  C   UNL     1      -0.924  -3.545  -1.029  0.00  0.00    +0.027 A 
ATOM     22  C   UNL     1      -0.664  -4.031   0.239  0.00  0.00    +0.090 A 
ATOM     23  C   UNL     1      -0.575  -3.159   1.308  0.00  0.00    +0.027 A 
ATOM     24  C   UNL     1      -0.741  -1.802   1.109  0.00  0.00    +0.005 A 
ENDBRANCH  15  22
ENDBRANCH  14  15
ENDBRANCH  10  14
ENDBRANCH   1  11
BRANCH   1  25
ATOM     25  N   UNL     1       3.457  -6.232   4.635  0.00  0.00    -0.281 N 
ATOM     26  C   UNL     1       4.285  -7.278   4.445  0.00  0.00    +0.242 C 
ATOM     27  O   UNL     1       4.731  -7.506   3.341  0.00  0.00    -0.273 OA
BRANCH  25  28
ATOM     28  C   UNL     1       2.824  -6.026   5.940  0.00  0.00    +0.077 C 
ATOM     29  C   UNL     1       1.808  -7.140   6.196  0.00  0.00    +0.022 C 
ATOM     30  C   UNL     1       1.147  -6.925   7.559  0.00  0.00    +0.002 C 
ATOM     31  C   UNL     1       0.434  -5.571   7.572  0.00  0.00    +0.000 C 
ATOM     32  C   UNL     1       1.451  -4.457   7.316  0.00  0.00    +0.002 C 
ATOM     33  C   UNL     1       2.111  -4.672   5.953  0.00  0.00    +0.022 C 
ENDBRANCH  25  28
BRANCH  26  34
ATOM     34  C   UNL     1       4.658  -8.164   5.606  0.00  0.00    +0.255 C 
BRANCH  34  35
ATOM     35  O   UNL     1       5.638  -9.115   5.184  0.00  0.00    -0.374 OA
ATOM     36  C   UNL     1       6.062 -10.008   6.215  0.00  0.00    +0.194 C 
ENDBRANCH  34  35
ENDBRANCH  26  34
ENDBRANCH   1  25
TORSDOF 10
