REMARK  Name = ZINC60238954
REMARK  11 active torsions:
REMARK  status: ('A' for Active; 'I' for Inactive)
REMARK    1  A    between atoms: C_1  and  C_2
REMARK    2  A    between atoms: C_5  and  C_8
REMARK    3  A    between atoms: C_8  and  C_10
REMARK    4  A    between atoms: C_8  and  N_30
REMARK    5  A    between atoms: C_10  and  N_11
REMARK    6  A    between atoms: C_12  and  C_14
REMARK    7  A    between atoms: C_14  and  C_16
REMARK    8  A    between atoms: C_14  and  N_19
REMARK    9  A    between atoms: C_16  and  C_17
REMARK   10  A    between atoms: C_16  and  C_18
REMARK   11  A    between atoms: C_20  and  C_22
REMARK                            x       y       z     vdW  Elec       q    Type
REMARK                         _______ _______ _______ _____ _____    ______ ____
ROOT
ATOM      1  N   UNL     1      -1.721  -6.012   0.664  0.00  0.00    -0.315 N 
ATOM      2  C   UNL     1      -2.669  -6.862   1.105  0.00  0.00    +0.234 C 
ATOM      3  O   UNL     1      -3.582  -6.450   1.789  0.00  0.00    -0.274 OA
ATOM      4  H   UNL     1      -0.952  -6.352   0.180  0.00  0.00    +0.149 HD
ENDROOT
BRANCH   1   5
ATOM      5  C   UNL     1      -1.851  -4.575   0.916  0.00  0.00    +0.093 C 
BRANCH   5   6
ATOM      6  C   UNL     1      -0.716  -3.829   0.211  0.00  0.00    -0.020 C 
BRANCH   6  11
ATOM      7  C   UNL     1      -1.242  -4.486  -5.506  0.00  0.00    +0.044 C 
ATOM      8  C   UNL     1      -1.105  -4.314  -4.015  0.00  0.00    -0.050 A 
ATOM      9  C   UNL     1      -0.202  -5.089  -3.310  0.00  0.00    +0.003 A 
ATOM     10  C   UNL     1      -0.076  -4.932  -1.942  0.00  0.00    +0.002 A 
ATOM     11  C   UNL     1      -0.853  -3.999  -1.280  0.00  0.00    -0.059 A 
ATOM     12  C   UNL     1      -1.754  -3.224  -1.985  0.00  0.00    +0.002 A 
ATOM     13  C   UNL     1      -1.877  -3.379  -3.353  0.00  0.00    +0.003 A 
ENDBRANCH   6  11
BRANCH   6  14
ATOM     14  N   UNL     1      -0.785  -2.401   0.549  0.00  0.00    +0.385 N 
ATOM     15  C   UNL     1      -0.568  -2.207   2.005  0.00  0.00    -0.078 C 
ATOM     16  C   UNL     1      -0.112  -0.730   2.103  0.00  0.00    -0.020 C 
ATOM     17  C   UNL     1       0.763  -0.554   0.841  0.00  0.00    -0.020 C 
ATOM     18  C   UNL     1       0.307  -1.664  -0.123  0.00  0.00    -0.078 C 
ATOM     19  H   UNL     1      -1.680  -2.021   0.277  0.00  0.00    -0.081 HD
ENDBRANCH   6  14
ENDBRANCH   5   6
ENDBRANCH   1   5
BRANCH   2  20
ATOM     20  C   UNL     1      -2.596  -8.324   0.747  0.00  0.00    +0.162 C 
BRANCH  20  21
ATOM     21  N   UNL     1      -3.935  -8.913   0.823  0.00  0.00    -0.300 N 
ATOM     22  C   UNL     1      -4.231 -10.010   0.097  0.00  0.00    +0.250 C 
ATOM     23  O   UNL     1      -3.386 -10.511  -0.620  0.00  0.00    -0.270 OA
ATOM     24  H   UNL     1      -4.609  -8.514   1.395  0.00  0.00    +0.150 HD
BRANCH  22  25
ATOM     25  C   UNL     1      -5.580 -10.604   0.174  0.00  0.00    +0.107 A 
ATOM     26  C   UNL     1      -6.582 -10.188  -0.710  0.00  0.00    +0.138 A 
ATOM     27  C   UNL     1      -7.842 -10.749  -0.631  0.00  0.00    +0.039 A 
ATOM     28  C   UNL     1      -8.114 -11.719   0.317  0.00  0.00    +0.006 A 
ATOM     29  C   UNL     1      -7.130 -12.135   1.194  0.00  0.00    +0.039 A 
ATOM     30  C   UNL     1      -5.862 -11.589   1.126  0.00  0.00    +0.138 A 
ATOM     31  F   UNL     1      -4.899 -12.001   1.980  0.00  0.00    -0.205 F 
ATOM     32  F   UNL     1      -6.319  -9.240  -1.636  0.00  0.00    -0.205 F 
ENDBRANCH  22  25
ENDBRANCH  20  21
BRANCH  20  33
ATOM     33  C   UNL     1      -1.666  -9.043   1.727  0.00  0.00    +0.012 C 
ATOM     34  C   UNL     1      -0.253  -8.471   1.602  0.00  0.00    +0.009 C 
ATOM     35  C   UNL     1      -2.175  -8.839   3.155  0.00  0.00    +0.009 C 
ENDBRANCH  20  33
ENDBRANCH   2  20
TORSDOF 8
