REMARK  Name = ZINC10758200
REMARK  9 active torsions:
REMARK  status: ('A' for Active; 'I' for Inactive)
REMARK    1  A    between atoms: C_1  and  C_2
REMARK    2  A    between atoms: N_11  and  C_15
REMARK    3  A    between atoms: C_15  and  C_16
REMARK    4  A    between atoms: C_16  and  O_18
REMARK    5  A    between atoms: O_18  and  C_19
REMARK    6  A    between atoms: C_19  and  C_20
REMARK    7  A    between atoms: N_22  and  C_23
REMARK    8  A    between atoms: C_23  and  C_24
REMARK    9  A    between atoms: N_26  and  C_27
REMARK                            x       y       z     vdW  Elec       q    Type
REMARK                         _______ _______ _______ _____ _____    ______ ____
ROOT
ATOM      1  C   UNL     1      -2.397   0.364   7.888  0.00  0.00    +0.327 C 
ENDROOT
BRANCH   1   2
ATOM      2  C   UNL     1      -3.072   0.320   9.235  0.00  0.00    +0.251 C 
ATOM      3  O   UNL     1      -4.282   0.296   9.306  0.00  0.00    -0.272 OA
ATOM      4  N   UNL     1      -2.330   0.307  10.360  0.00  0.00    -0.304 N 
ATOM      5  H   UNL     1      -1.362   0.326  10.303  0.00  0.00    +0.149 HD
BRANCH   4   6
ATOM      6  C   UNL     1      -2.986   0.263  11.669  0.00  0.00    +0.200 C 
BRANCH   6   7
ATOM      7  C   UNL     1      -1.940   0.257  12.755  0.00  0.00    +0.234 C 
ATOM      8  O   UNL     1      -0.763   0.285  12.463  0.00  0.00    -0.274 OA
ATOM      9  N   UNL     1      -2.313   0.219  14.049  0.00  0.00    -0.282 N 
ATOM     10  H   UNL     1      -3.253   0.261  14.285  0.00  0.00    +0.155 HD
BRANCH   9  11
ATOM     11  C   UNL     1      -1.343   0.119  15.055  0.00  0.00    +0.072 A 
ATOM     12  C   UNL     1      -0.112   0.741  14.899  0.00  0.00    +0.029 A 
ATOM     13  C   UNL     1       0.843   0.646  15.893  0.00  0.00    +0.043 A 
ATOM     14  C   UNL     1       0.578  -0.079  17.042  0.00  0.00    +0.161 A 
ATOM     15  C   UNL     1      -0.648  -0.707  17.201  0.00  0.00    +0.195 A 
ATOM     16  C   UNL     1      -1.609  -0.609  16.209  0.00  0.00    +0.182 A 
ATOM     17  F   UNL     1      -2.805  -1.220  16.363  0.00  0.00    -0.200 F 
ATOM     18  F   UNL     1      -0.905  -1.414  18.323  0.00  0.00    -0.199 F 
ATOM     19  F   UNL     1       1.515  -0.174  18.010  0.00  0.00    -0.202 F 
ENDBRANCH   9  11
ENDBRANCH   6   7
ENDBRANCH   4   6
ENDBRANCH   1   2
BRANCH   1  20
ATOM     20  O   UNL     1      -3.405   0.371   6.842  0.00  0.00    -0.454 OA
BRANCH  20  21
ATOM     21  C   UNL     1      -2.966   0.409   5.574  0.00  0.00    +0.326 C 
ATOM     22  O   UNL     1      -1.780   0.436   5.345  0.00  0.00    -0.249 OA
BRANCH  21  23
ATOM     23  C   UNL     1      -3.953   0.418   4.435  0.00  0.00    +0.238 C 
BRANCH  23  33
ATOM     24  C   UNL     1       0.005   1.126   2.514  0.00  0.00    +0.010 C 
ATOM     25  C   UNL     1      -0.721   1.661   1.277  0.00  0.00    +0.018 C 
ATOM     26  C   UNL     1      -0.006   1.173   0.015  0.00  0.00    +0.006 C 
ATOM     27  C   UNL     1      -0.743   1.692  -1.221  0.00  0.00    +0.000 C 
ATOM     28  C   UNL     1      -2.179   1.162  -1.221  0.00  0.00    +0.003 C 
ATOM     29  C   UNL     1      -2.902   1.650   0.037  0.00  0.00    +0.035 C 
ATOM     30  C   UNL     1      -2.160   1.158   1.274  0.00  0.00    +0.115 C 
ATOM     31  C   UNL     1      -2.876   1.600   2.530  0.00  0.00    +0.247 C 
ATOM     32  O   UNL     1      -3.088   2.737   2.892  0.00  0.00    -0.273 OA
ATOM     33  N   UNL     1      -3.230   0.462   3.162  0.00  0.00    -0.213 N 
ATOM     34  C   UNL     1      -2.838  -0.623   2.482  0.00  0.00    +0.310 C 
ATOM     35  O   UNL     1      -3.042  -1.763   2.851  0.00  0.00    -0.252 OA
ATOM     36  N   UNL     1      -2.191  -0.309   1.343  0.00  0.00    -0.285 N 
ATOM     37  H   UNL     1      -1.820  -0.929   0.696  0.00  0.00    +0.151 HD
ENDBRANCH  23  33
ENDBRANCH  21  23
ENDBRANCH  20  21
ENDBRANCH   1  20
TORSDOF 8
