REMARK  Name = ZINC35067761
REMARK  11 active torsions:
REMARK  status: ('A' for Active; 'I' for Inactive)
REMARK    1  A    between atoms: C_1  and  C_2
REMARK    2  A    between atoms: C_2  and  C_3
REMARK    3  A    between atoms: C_3  and  C_5
REMARK    4  A    between atoms: C_3  and  N_23
REMARK    5  A    between atoms: N_15  and  C_16
REMARK    6  A    between atoms: C_20  and  C_22
REMARK    7  A    between atoms: N_23  and  C_24
REMARK    8  A    between atoms: C_24  and  C_25
REMARK    9  A    between atoms: C_26  and  C_28
REMARK   10  A    between atoms: C_28  and  C_29
REMARK   11  A    between atoms: C_28  and  C_30
REMARK                            x       y       z     vdW  Elec       q    Type
REMARK                         _______ _______ _______ _____ _____    ______ ____
ROOT
ATOM      1  C   UNL     1      -0.254  -2.074  -0.841  0.00  0.00    +0.138 A 
ATOM      2  N   UNL     1       0.646  -3.004  -0.948  0.00  0.00    -0.231 NA
ATOM      3  C   UNL     1       0.371  -4.298  -0.649  0.00  0.00    +0.078 A 
ATOM      4  C   UNL     1       1.339  -5.298  -0.763  0.00  0.00    +0.028 A 
ATOM      5  C   UNL     1       1.016  -6.598  -0.449  0.00  0.00    +0.002 A 
ATOM      6  C   UNL     1      -0.263  -6.931  -0.019  0.00  0.00    +0.001 A 
ATOM      7  C   UNL     1      -1.235  -5.962   0.100  0.00  0.00    +0.015 A 
ATOM      8  C   UNL     1      -0.929  -4.639  -0.212  0.00  0.00    +0.065 A 
ATOM      9  C   UNL     1      -1.925  -3.563  -0.102  0.00  0.00    +0.266 A 
ATOM     10  O   UNL     1      -3.062  -3.790   0.269  0.00  0.00    -0.267 OA
ATOM     11  N   UNL     1      -1.527  -2.310  -0.424  0.00  0.00    -0.263 N 
ENDROOT
BRANCH  11  12
ATOM     12  C   UNL     1      -2.436  -1.249  -0.331  0.00  0.00    +0.051 A 
ATOM     13  C   UNL     1      -2.243  -0.247   0.612  0.00  0.00    +0.026 A 
ATOM     14  C   UNL     1      -3.140   0.798   0.700  0.00  0.00    +0.002 A 
ATOM     15  C   UNL     1      -4.231   0.850  -0.150  0.00  0.00    +0.003 A 
ATOM     16  C   UNL     1      -4.426  -0.146  -1.089  0.00  0.00    -0.048 A 
ATOM     17  C   UNL     1      -3.528  -1.192  -1.186  0.00  0.00    +0.029 A 
ATOM     18  C   UNL     1      -5.615  -0.087  -2.012  0.00  0.00    +0.044 C 
ENDBRANCH  11  12
BRANCH   1  19
ATOM     19  C   UNL     1       0.133  -0.660  -1.193  0.00  0.00    +0.142 C 
BRANCH  19  20
ATOM     20  N   UNL     1      -0.426  -0.312  -2.502  0.00  0.00    -0.291 N 
ATOM     21  C   UNL     1      -1.240   0.754  -2.625  0.00  0.00    +0.219 C 
ATOM     22  O   UNL     1      -1.412   1.498  -1.683  0.00  0.00    -0.275 OA
BRANCH  21  23
ATOM     23  C   UNL     1      -1.937   1.023  -3.934  0.00  0.00    +0.069 C 
ATOM     24  C   UNL     1      -3.177   1.883  -3.684  0.00  0.00    +0.017 C 
ATOM     25  C   UNL     1      -0.985   1.762  -4.877  0.00  0.00    +0.017 C 
ENDBRANCH  21  23
BRANCH  20  26
ATOM     26  C   UNL     1      -0.099  -1.124  -3.677  0.00  0.00    +0.105 C 
ATOM     27  C   UNL     1      -1.217  -2.140  -3.922  0.00  0.00    +0.024 C 
ENDBRANCH  20  26
ENDBRANCH  19  20
BRANCH  19  29
ATOM     28  C   UNL     1       2.052   0.916  -1.458  0.00  0.00    +0.006 C 
ATOM     29  C   UNL     1       1.657  -0.546  -1.242  0.00  0.00    +0.027 C 
ENDBRANCH  19  29
ENDBRANCH   1  19
TORSDOF 6
