REMARK  Name = ZINC08952602
REMARK  13 active torsions:
REMARK  status: ('A' for Active; 'I' for Inactive)
REMARK    1  A    between atoms: C_1  and  C_2
REMARK    2  A    between atoms: C_2  and  C_3
REMARK    3  A    between atoms: C_3  and  C_5
REMARK    4  A    between atoms: C_3  and  C_6
REMARK    5  A    between atoms: C_6  and  C_8
REMARK    6  A    between atoms: C_6  and  N_28
REMARK    7  A    between atoms: C_13  and  C_16
REMARK    8  A    between atoms: N_18  and  C_19
REMARK    9  A    between atoms: C_19  and  C_20
REMARK   10  A    between atoms: C_23  and  C_26
REMARK   11  A    between atoms: N_28  and  S_29
REMARK   12  A    between atoms: S_29  and  C_32
REMARK   13  A    between atoms: C_35  and  C_38
REMARK                            x       y       z     vdW  Elec       q    Type
REMARK                         _______ _______ _______ _____ _____    ______ ____
ROOT
ATOM      1  C   UNL     1       0.993  11.363  -7.394  0.00  0.00    +0.234 C 
ATOM      2  O   UNL     1       0.592  12.507  -7.373  0.00  0.00    -0.274 OA
ATOM      3  N   UNL     1       0.578  10.486  -6.458  0.00  0.00    -0.300 N 
ATOM      4  C   UNL     1      -0.267  10.928  -5.341  0.00  0.00    +0.108 C 
ATOM      5  C   UNL     1       0.388  10.497  -4.025  0.00  0.00    +0.032 C 
ATOM      6  C   UNL     1       0.647   8.989  -4.059  0.00  0.00    +0.078 C 
ATOM      7  C   UNL     1       1.604   8.660  -5.207  0.00  0.00    +0.032 C 
ATOM      8  C   UNL     1       0.962   9.070  -6.536  0.00  0.00    +0.108 C 
ENDROOT
BRANCH   6   9
ATOM      9  C   UNL     1       1.261   8.555  -2.753  0.00  0.00    +0.216 C 
ATOM     10  O   UNL     1       1.471   9.371  -1.881  0.00  0.00    -0.276 OA
ATOM     11  N   UNL     1       1.577   7.260  -2.554  0.00  0.00    -0.315 N 
ATOM     12  H   UNL     1       1.409   6.607  -3.252  0.00  0.00    +0.149 HD
BRANCH  11  13
ATOM     13  C   UNL     1       2.174   6.838  -1.284  0.00  0.00    +0.107 C 
BRANCH  13  14
ATOM     14  C   UNL     1       2.432   5.331  -1.318  0.00  0.00    +0.006 C 
ATOM     15  C   UNL     1       3.168   4.911  -0.044  0.00  0.00    +0.006 C 
ATOM     16  C   UNL     1       3.427   3.403  -0.078  0.00  0.00    +0.015 C 
ATOM     17  C   UNL     1       2.093   2.659  -0.166  0.00  0.00    +0.102 C 
ATOM     18  C   UNL     1       1.357   3.079  -1.439  0.00  0.00    +0.015 C 
ATOM     19  C   UNL     1       1.098   4.586  -1.405  0.00  0.00    +0.006 C 
BRANCH  17  20
ATOM     20  C   UNL     1       2.348   1.174  -0.199  0.00  0.00    +0.359 C 
ATOM     21  O   UNL     1       3.480   0.754  -0.157  0.00  0.00    -0.246 OA
ATOM     22  O   UNL     1       1.317   0.318  -0.275  0.00  0.00    -0.246 OA
ENDBRANCH  17  20
ENDBRANCH  13  14
ENDBRANCH  11  13
ENDBRANCH   6   9
BRANCH   1  23
ATOM     23  C   UNL     1       1.956  10.921  -8.466  0.00  0.00    +0.165 C 
BRANCH  23  24
ATOM     24  C   UNL     1       3.346  11.486  -8.167  0.00  0.00    +0.013 C 
ATOM     25  C   UNL     1       3.263  13.009  -8.048  0.00  0.00    +0.009 C 
BRANCH  24  27
ATOM     26  C   UNL     1       4.134   9.404  -7.032  0.00  0.00    +0.004 C 
ATOM     27  C   UNL     1       3.864  10.899  -6.852  0.00  0.00    +0.002 C 
ENDBRANCH  24  27
ENDBRANCH  23  24
BRANCH  23  28
ATOM     28  N   UNL     1       1.498  11.414  -9.767  0.00  0.00    -0.178 NA
ATOM     29  H   UNL     1       1.078  12.286  -9.835  0.00  0.00    +0.149 HD
BRANCH  28  30
ATOM     30  S   UNL     1       1.698  10.483 -11.122  0.00  0.00    +0.059 S 
ATOM     31  O   UNL     1       1.114  11.204 -12.199  0.00  0.00    -0.153 OA
ATOM     32  O   UNL     1       3.056  10.066 -11.132  0.00  0.00    -0.153 OA
BRANCH  30  33
ATOM     33  C   UNL     1       0.726   9.030 -10.903  0.00  0.00    +0.105 A 
ATOM     34  C   UNL     1       1.280   7.911 -10.310  0.00  0.00    +0.029 A 
ATOM     35  C   UNL     1       0.516   6.772 -10.134  0.00  0.00    +0.005 A 
ATOM     36  C   UNL     1      -0.798   6.749 -10.561  0.00  0.00    -0.050 A 
ATOM     37  C   UNL     1      -1.351   7.866 -11.159  0.00  0.00    +0.005 A 
ATOM     38  C   UNL     1      -0.589   9.006 -11.330  0.00  0.00    +0.029 A 
ATOM     39  C   UNL     1      -1.629   5.505 -10.374  0.00  0.00    +0.044 C 
ENDBRANCH  30  33
ENDBRANCH  28  30
ENDBRANCH  23  28
ENDBRANCH   1  23
TORSDOF 10
