REMARK  Name = ZINC63830539
REMARK  10 active torsions:
REMARK  status: ('A' for Active; 'I' for Inactive)
REMARK    1  A    between atoms: C_1  and  C_2
REMARK    2  A    between atoms: C_2  and  O_3
REMARK    3  A    between atoms: O_3  and  C_4
REMARK    4  A    between atoms: C_9  and  C_10
REMARK    5  A    between atoms: C_10  and  N_11
REMARK    6  A    between atoms: C_12  and  C_14
REMARK    7  A    between atoms: C_14  and  S_15
REMARK    8  A    between atoms: S_15  and  C_16
REMARK    9  A    between atoms: C_19  and  C_21
REMARK   10  A    between atoms: C_31  and  C_34
REMARK                            x       y       z     vdW  Elec       q    Type
REMARK                         _______ _______ _______ _____ _____    ______ ____
ROOT
ATOM      1  N   UNL     1       3.290  -0.901  -3.023  0.00  0.00    -0.310 N 
ATOM      2  C   UNL     1       3.997  -0.047  -3.790  0.00  0.00    +0.224 C 
ATOM      3  O   UNL     1       3.560   0.309  -4.864  0.00  0.00    -0.275 OA
ATOM      4  H   UNL     1       3.640  -1.185  -2.165  0.00  0.00    +0.149 HD
ENDROOT
BRANCH   1   5
ATOM      5  C   UNL     1       1.993  -1.399  -3.487  0.00  0.00    +0.143 C 
BRANCH   5  11
ATOM      6  C   UNL     1       0.777  -1.811  -1.336  0.00  0.00    +0.126 A 
ATOM      7  C   UNL     1       0.243  -2.672  -0.388  0.00  0.00    +0.053 A 
ATOM      8  C   UNL     1       0.352  -4.034  -0.558  0.00  0.00    +0.001 A 
ATOM      9  C   UNL     1       0.985  -4.564  -1.675  0.00  0.00    +0.125 A 
ATOM     10  C   UNL     1       1.523  -3.695  -2.620  0.00  0.00    +0.054 A 
ATOM     11  C   UNL     1       1.413  -2.330  -2.454  0.00  0.00    +0.015 A 
ATOM     12  O   UNL     1       0.961  -5.926  -1.656  0.00  0.00    -0.488 OA
ATOM     13  C   UNL     1       0.703  -6.376  -0.315  0.00  0.00    +0.175 C 
ATOM     14  C   UNL     1      -0.108  -5.205   0.289  0.00  0.00    +0.083 C 
ATOM     15  C   UNL     1       2.013  -6.583   0.449  0.00  0.00    +0.052 C 
BRANCH   6  16
ATOM     16  O   UNL     1       0.671  -0.465  -1.174  0.00  0.00    -0.492 OA
BRANCH  16  18
ATOM     17  C   UNL     1      -0.019   1.526   0.010  0.00  0.00    +0.048 C 
ATOM     18  C   UNL     1       0.002  -0.004   0.002  0.00  0.00    +0.225 C 
ENDBRANCH  16  18
ENDBRANCH   6  16
ENDBRANCH   5  11
ENDBRANCH   1   5
BRANCH   2  19
ATOM     19  C   UNL     1       5.332   0.466  -3.313  0.00  0.00    +0.174 C 
BRANCH  19  20
ATOM     20  S   UNL     1       6.029   1.586  -4.557  0.00  0.00    -0.056 S 
BRANCH  20  21
ATOM     21  C   UNL     1       7.566   2.093  -3.861  0.00  0.00    +0.278 A 
ATOM     22  N   UNL     1       8.060   1.710  -2.693  0.00  0.00    -0.101 NA
ATOM     23  N   UNL     1       9.200   2.276  -2.506  0.00  0.00    -0.107 NA
ATOM     24  C   UNL     1       9.482   3.045  -3.546  0.00  0.00    +0.248 A 
ATOM     25  O   UNL     1       8.453   2.934  -4.420  0.00  0.00    -0.411 OA
BRANCH  24  26
ATOM     26  C   UNL     1      10.635   3.825  -3.714  0.00  0.00    +0.044 C 
ATOM     27  C   UNL     1      11.710   3.942  -2.833  0.00  0.00    +0.008 A 
ATOM     28  C   UNL     1      11.978   3.364  -1.574  0.00  0.00    +0.010 A 
ATOM     29  C   UNL     1      13.133   3.665  -0.926  0.00  0.00    +0.001 A 
ATOM     30  C   UNL     1      14.072   4.542  -1.475  0.00  0.00    +0.002 A 
ATOM     31  C   UNL     1      13.880   5.134  -2.679  0.00  0.00    +0.026 A 
ATOM     32  C   UNL     1      12.697   4.866  -3.416  0.00  0.00    +0.043 A 
ATOM     33  N   UNL     1      12.280   5.306  -4.587  0.00  0.00    -0.380 N 
ATOM     34  C   UNL     1      10.977   4.709  -4.893  0.00  0.00    +0.154 C 
ATOM     35  H   UNL     1      12.762   5.926  -5.158  0.00  0.00    +0.160 HD
ENDBRANCH  24  26
ENDBRANCH  20  21
ENDBRANCH  19  20
ENDBRANCH   2  19
TORSDOF 8
