REMARK  Name = ZINC12530994
REMARK  4 active torsions:
REMARK  status: ('A' for Active; 'I' for Inactive)
REMARK    1  A    between atoms: C_7  and  C_11
REMARK    2  A    between atoms: C_11  and  O_13
REMARK    3  A    between atoms: O_13  and  C_14
REMARK    4  A    between atoms: C_14  and  C_15
REMARK                            x       y       z     vdW  Elec       q    Type
REMARK                         _______ _______ _______ _____ _____    ______ ____
ROOT
ATOM      1  C   UNL     1       3.417   3.414   0.701  0.00  0.00    +0.262 C 
ATOM      2  O   UNL     1       3.354   2.265   1.088  0.00  0.00    -0.271 OA
ATOM      3  N   UNL     1       2.293   4.069   0.348  0.00  0.00    -0.235 N 
ATOM      4  C   UNL     1       1.075   3.378   0.346  0.00  0.00    +0.055 A 
ATOM      5  C   UNL     1       1.021   2.056  -0.066  0.00  0.00    +0.025 A 
ATOM      6  C   UNL     1      -0.186   1.381  -0.068  0.00  0.00    +0.002 A 
ATOM      7  C   UNL     1      -1.345   2.017   0.334  0.00  0.00    +0.001 A 
ATOM      8  C   UNL     1      -1.303   3.336   0.754  0.00  0.00    +0.017 A 
ATOM      9  C   UNL     1      -0.098   4.015   0.758  0.00  0.00    +0.035 A 
ATOM     10  S   UNL     1      -0.013   5.699   1.282  0.00  0.00    -0.086 S 
ATOM     11  C   UNL     1       1.365   6.311   0.363  0.00  0.00    +0.035 A 
ATOM     12  C   UNL     1       2.376   5.421  -0.006  0.00  0.00    +0.055 A 
ATOM     13  C   UNL     1       3.463   5.889  -0.728  0.00  0.00    +0.025 A 
ATOM     14  C   UNL     1       3.538   7.226  -1.076  0.00  0.00    +0.002 A 
ATOM     15  C   UNL     1       2.534   8.103  -0.708  0.00  0.00    +0.001 A 
ATOM     16  C   UNL     1       1.444   7.646   0.013  0.00  0.00    +0.017 A 
ENDROOT
BRANCH   1  17
ATOM     17  C   UNL     1       4.752   4.107   0.615  0.00  0.00    +0.329 C 
BRANCH  17  18
ATOM     18  O   UNL     1       5.741   3.349   1.361  0.00  0.00    -0.451 OA
BRANCH  18  19
ATOM     19  C   UNL     1       6.997   3.838   1.385  0.00  0.00    +0.361 C 
ATOM     20  O   UNL     1       7.258   4.869   0.798  0.00  0.00    -0.243 OA
BRANCH  19  27
ATOM     21  C   UNL     1      11.570   4.618   2.108  0.00  0.00    +0.001 A 
ATOM     22  C   UNL     1      12.140   3.623   2.892  0.00  0.00    +0.002 A 
ATOM     23  C   UNL     1      11.391   2.579   3.356  0.00  0.00    +0.028 A 
ATOM     24  C   UNL     1      10.037   2.506   3.041  0.00  0.00    +0.067 A 
ATOM     25  C   UNL     1       9.463   3.512   2.241  0.00  0.00    +0.034 A 
ATOM     26  C   UNL     1      10.243   4.571   1.784  0.00  0.00    +0.012 A 
ATOM     27  C   UNL     1       8.051   3.121   2.121  0.00  0.00    +0.177 A 
ATOM     28  N   UNL     1       7.919   2.000   2.798  0.00  0.00    -0.166 NA
ATOM     29  N   UNL     1       9.026   1.627   3.330  0.00  0.00    -0.276 N 
ATOM     30  H   UNL     1       9.136   0.802   3.884  0.00  0.00    +0.189 HD
ENDBRANCH  19  27
ENDBRANCH  18  19
ENDBRANCH  17  18
ENDBRANCH   1  17
TORSDOF 4
