REMARK  Name = ZINC12489090
REMARK  15 active torsions:
REMARK  status: ('A' for Active; 'I' for Inactive)
REMARK    1  A    between atoms: C_1  and  C_2
REMARK    2  A    between atoms: C_2  and  C_3
REMARK    3  A    between atoms: C_3  and  C_4
REMARK    4  A    between atoms: C_3  and  C_5
REMARK    5  A    between atoms: C_3  and  N_6
REMARK    6  A    between atoms: C_7  and  C_9
REMARK    7  A    between atoms: C_9  and  C_11
REMARK    8  A    between atoms: C_9  and  N_18
REMARK    9  A    between atoms: C_14  and  C_17
REMARK   10  A    between atoms: N_18  and  C_19
REMARK   11  A    between atoms: C_23  and  C_26
REMARK   12  A    between atoms: C_24  and  C_25
REMARK   13  A    between atoms: C_27  and  C_29
REMARK   14  A    between atoms: C_29  and  N_30
REMARK   15  A    between atoms: C_31  and  C_33
REMARK                            x       y       z     vdW  Elec       q    Type
REMARK                         _______ _______ _______ _____ _____    ______ ____
ROOT
ATOM      1  N   UNL     1      -6.486   1.244   0.242  0.00  0.00    -0.254 N 
ATOM      2  C   UNL     1      -5.788   0.690  -0.769  0.00  0.00    +0.238 C 
ATOM      3  O   UNL     1      -6.279   0.615  -1.876  0.00  0.00    -0.274 OA
ENDROOT
BRANCH   1   4
ATOM      4  C   UNL     1      -5.919   1.330   1.518  0.00  0.00    +0.041 A 
ATOM      5  C   UNL     1      -5.210   2.465   1.889  0.00  0.00    +0.024 A 
ATOM      6  C   UNL     1      -4.657   2.550   3.152  0.00  0.00    +0.002 A 
ATOM      7  C   UNL     1      -4.799   1.502   4.043  0.00  0.00    +0.004 A 
ATOM      8  C   UNL     1      -5.499   0.368   3.674  0.00  0.00    -0.046 A 
ATOM      9  C   UNL     1      -6.060   0.279   2.415  0.00  0.00    -0.026 A 
ATOM     10  C   UNL     1      -6.824  -0.956   2.015  0.00  0.00    +0.046 C 
ATOM     11  C   UNL     1      -5.651  -0.772   4.648  0.00  0.00    +0.044 C 
ENDBRANCH   1   4
BRANCH   1  12
ATOM     12  C   UNL     1      -7.838   1.755   0.005  0.00  0.00    +0.197 C 
BRANCH  12  13
ATOM     13  C   UNL     1      -7.790   2.832  -1.049  0.00  0.00    -0.018 A 
ATOM     14  C   UNL     1      -6.817   3.812  -0.992  0.00  0.00    +0.006 A 
ATOM     15  C   UNL     1      -6.771   4.797  -1.961  0.00  0.00    +0.004 A 
ATOM     16  C   UNL     1      -7.703   4.807  -2.981  0.00  0.00    -0.050 A 
ATOM     17  C   UNL     1      -8.679   3.829  -3.035  0.00  0.00    +0.004 A 
ATOM     18  C   UNL     1      -8.723   2.842  -2.069  0.00  0.00    +0.006 A 
ATOM     19  C   UNL     1      -7.656   5.884  -4.034  0.00  0.00    +0.044 C 
ENDBRANCH  12  13
BRANCH  12  21
ATOM     20  N   UNL     1      -9.661   2.065   1.648  0.00  0.00    -0.308 N 
ATOM     21  C   UNL     1      -8.390   2.329   1.284  0.00  0.00    +0.239 C 
ATOM     22  O   UNL     1      -7.690   3.027   1.987  0.00  0.00    -0.273 OA
ATOM     23  H   UNL     1     -10.220   1.506   1.086  0.00  0.00    +0.149 HD
BRANCH  20  24
ATOM     24  C   UNL     1     -10.197   2.623   2.892  0.00  0.00    +0.029 C 
ATOM     25  C   UNL     1      -9.363   2.126   4.075  0.00  0.00    +0.031 C 
ATOM     26  C   UNL     1     -10.139   4.150   2.833  0.00  0.00    +0.031 C 
BRANCH  24  28
ATOM     27  C   UNL     1     -12.210   2.756   4.367  0.00  0.00    +0.006 C 
ATOM     28  C   UNL     1     -11.649   2.174   3.067  0.00  0.00    +0.022 C 
ENDBRANCH  24  28
ENDBRANCH  20  24
ENDBRANCH  12  21
ENDBRANCH   1  12
BRANCH   2  29
ATOM     29  C   UNL     1      -4.397   0.164  -0.525  0.00  0.00    +0.201 C 
BRANCH  29  30
ATOM     30  N   UNL     1      -3.856  -0.384  -1.772  0.00  0.00    -0.302 N 
ATOM     31  C   UNL     1      -2.617  -0.913  -1.794  0.00  0.00    +0.251 C 
ATOM     32  O   UNL     1      -1.947  -0.937  -0.778  0.00  0.00    -0.270 OA
ATOM     33  H   UNL     1      -4.389  -0.365  -2.582  0.00  0.00    +0.150 HD
BRANCH  31  34
ATOM     34  C   UNL     1      -2.076  -1.461  -3.041  0.00  0.00    +0.074 A 
ATOM     35  C   UNL     1      -0.838  -2.039  -3.277  0.00  0.00    +0.021 A 
ATOM     36  C   UNL     1      -0.583  -2.469  -4.555  0.00  0.00    +0.008 A 
ATOM     37  C   UNL     1      -1.536  -2.312  -5.511  0.00  0.00    +0.046 A 
ATOM     38  S   UNL     1      -2.835  -1.551  -4.652  0.00  0.00    -0.092 S 
ENDBRANCH  31  34
ENDBRANCH  29  30
ENDBRANCH   2  29
TORSDOF 9
