REMARK  Name = ZINC08606561
REMARK  12 active torsions:
REMARK  status: ('A' for Active; 'I' for Inactive)
REMARK    1  A    between atoms: C_1  and  O_2
REMARK    2  A    between atoms: O_2  and  C_3
REMARK    3  A    between atoms: C_7  and  C_9
REMARK    4  A    between atoms: C_12  and  C_32
REMARK    5  A    between atoms: N_19  and  C_20
REMARK    6  A    between atoms: C_20  and  C_21
REMARK    7  A    between atoms: C_21  and  C_22
REMARK    8  A    between atoms: C_25  and  O_30
REMARK    9  A    between atoms: C_26  and  O_28
REMARK   10  A    between atoms: O_28  and  C_29
REMARK   11  A    between atoms: O_30  and  C_31
REMARK   12  A    between atoms: C_37  and  O_38
REMARK                            x       y       z     vdW  Elec       q    Type
REMARK                         _______ _______ _______ _____ _____    ______ ____
ROOT
ATOM      1  C   UNL     1       1.343  -4.066  -2.306  0.00  0.00    +0.141 C 
ATOM      2  C   UNL     1       2.731  -4.571  -2.023  0.00  0.00    +0.035 A 
ATOM      3  C   UNL     1       3.792  -4.660  -1.116  0.00  0.00    +0.102 A 
ATOM      4  N   UNL     1       4.755  -5.346  -1.700  0.00  0.00    -0.173 NA
ATOM      5  N   UNL     1       4.407  -5.698  -2.887  0.00  0.00    -0.272 N 
ATOM      6  H   UNL     1       4.958  -6.210  -3.500  0.00  0.00    +0.189 HD
ATOM      7  C   UNL     1       3.147  -5.245  -3.156  0.00  0.00    +0.126 A 
ATOM      8  C   UNL     1       2.072  -5.189  -4.153  0.00  0.00    +0.265 C 
ATOM      9  O   UNL     1       2.126  -5.688  -5.261  0.00  0.00    -0.268 OA
ATOM     10  N   UNL     1       1.018  -4.505  -3.669  0.00  0.00    -0.285 N 
ENDROOT
BRANCH   1  15
ATOM     11  C   UNL     1       0.575  -0.554  -1.141  0.00  0.00    +0.120 A 
ATOM     12  C   UNL     1       1.260   0.203  -2.082  0.00  0.00    +0.045 A 
ATOM     13  C   UNL     1       1.967  -0.425  -3.089  0.00  0.00    +0.004 A 
ATOM     14  C   UNL     1       1.994  -1.805  -3.160  0.00  0.00    +0.006 A 
ATOM     15  C   UNL     1       1.312  -2.562  -2.225  0.00  0.00    -0.019 A 
ATOM     16  C   UNL     1       0.608  -1.939  -1.212  0.00  0.00    +0.051 A 
BRANCH  11  18
ATOM     17  C   UNL     1      -0.111   1.490  -0.139  0.00  0.00    +0.277 C 
ATOM     18  O   UNL     1      -0.121   0.061  -0.149  0.00  0.00    -0.495 OA
ENDBRANCH  11  18
ENDBRANCH   1  15
BRANCH   3  19
ATOM     19  C   UNL     1       3.828  -4.088   0.253  0.00  0.00    +0.044 A 
ATOM     20  C   UNL     1       2.689  -3.497   0.793  0.00  0.00    +0.014 A 
ATOM     21  C   UNL     1       2.726  -2.966   2.067  0.00  0.00    +0.001 A 
ATOM     22  C   UNL     1       3.893  -3.019   2.810  0.00  0.00    +0.004 A 
ATOM     23  C   UNL     1       5.029  -3.603   2.282  0.00  0.00    +0.046 A 
ATOM     24  C   UNL     1       5.003  -4.145   1.007  0.00  0.00    +0.126 A 
BRANCH  24  25
ATOM     25  O   UNL     1       6.117  -4.726   0.490  0.00  0.00    -0.506 OA
ATOM     26  H   UNL     1       6.691  -4.115   0.008  0.00  0.00    +0.292 HD
ENDBRANCH  24  25
ENDBRANCH   3  19
BRANCH  10  27
ATOM     27  C   UNL     1      -0.237  -4.245  -4.378  0.00  0.00    +0.114 C 
BRANCH  27  28
ATOM     28  C   UNL     1      -0.122  -2.930  -5.152  0.00  0.00    +0.054 C 
BRANCH  28  29
ATOM     29  C   UNL     1      -1.413  -2.662  -5.881  0.00  0.00    -0.042 A 
ATOM     30  C   UNL     1      -1.591  -3.140  -7.166  0.00  0.00    +0.007 A 
ATOM     31  C   UNL     1      -2.774  -2.897  -7.840  0.00  0.00    +0.049 A 
ATOM     32  C   UNL     1      -3.784  -2.173  -7.227  0.00  0.00    +0.161 A 
ATOM     33  C   UNL     1      -3.604  -1.691  -5.934  0.00  0.00    +0.162 A 
ATOM     34  C   UNL     1      -2.419  -1.943  -5.263  0.00  0.00    +0.053 A 
BRANCH  33  35
ATOM     35  O   UNL     1      -4.593  -0.979  -5.329  0.00  0.00    -0.491 OA
ATOM     36  C   UNL     1      -4.339  -0.517  -4.001  0.00  0.00    +0.277 C 
ENDBRANCH  33  35
BRANCH  32  37
ATOM     37  O   UNL     1      -4.947  -1.932  -7.889  0.00  0.00    -0.491 OA
ATOM     38  C   UNL     1      -5.061  -2.456  -9.213  0.00  0.00    +0.277 C 
ENDBRANCH  32  37
ENDBRANCH  28  29
ENDBRANCH  27  28
ENDBRANCH  10  27
TORSDOF 9
