REMARK  Name = ZINC46132862
REMARK  7 active torsions:
REMARK  status: ('A' for Active; 'I' for Inactive)
REMARK    1  A    between atoms: C_1  and  C_2
REMARK    2  A    between atoms: C_7  and  N_8
REMARK    3  A    between atoms: C_9  and  N_10
REMARK    4  A    between atoms: N_10  and  C_11
REMARK    5  A    between atoms: C_11  and  C_12
REMARK    6  A    between atoms: N_18  and  C_19
REMARK    7  A    between atoms: C_19  and  C_21
REMARK                            x       y       z     vdW  Elec       q    Type
REMARK                         _______ _______ _______ _____ _____    ______ ____
ROOT
ATOM      1  N   UNL     1       0.158   0.020   2.425  0.00  0.00    -0.326 N 
ATOM      2  C   UNL     1      -0.019  -0.660   3.595  0.00  0.00    +0.216 C 
ATOM      3  N   UNL     1      -0.186   0.004   4.728  0.00  0.00    -0.141 NA
ATOM      4  H   UNL     1       0.075   0.986   2.408  0.00  0.00    +0.169 HD
ENDROOT
BRANCH   1  11
ATOM      5  C   UNL     1      -1.232   0.731   0.046  0.00  0.00    +0.046 C 
ATOM      6  C   UNL     1      -0.195  -0.361   0.066  0.00  0.00    -0.026 A 
ATOM      7  C   UNL     1       0.110  -1.047  -1.094  0.00  0.00    +0.025 A 
ATOM      8  C   UNL     1       1.061  -2.051  -1.077  0.00  0.00    +0.041 A 
ATOM      9  C   UNL     1       1.712  -2.371   0.102  0.00  0.00    +0.022 A 
ATOM     10  C   UNL     1       1.412  -1.689   1.265  0.00  0.00    +0.027 A 
ATOM     11  C   UNL     1       0.460  -0.677   1.249  0.00  0.00    +0.045 A 
ATOM     12 CL   UNL     1       1.441  -2.911  -2.536  0.00  0.00    -0.084 Cl
ENDBRANCH   1  11
BRANCH   3  13
ATOM     13  C   UNL     1      -0.464  -0.659   5.859  0.00  0.00    +0.270 C 
ATOM     14  O   UNL     1      -0.479  -1.877   5.862  0.00  0.00    -0.268 OA
BRANCH  13  15
ATOM     15  C   UNL     1      -0.753   0.089   7.103  0.00  0.00    +0.039 A 
ATOM     16  C   UNL     1      -0.742   1.484   7.100  0.00  0.00    +0.016 A 
ATOM     17  C   UNL     1      -1.012   2.176   8.262  0.00  0.00    +0.039 A 
ATOM     18  C   UNL     1      -1.293   1.487   9.432  0.00  0.00    +0.123 A 
ATOM     19  C   UNL     1      -1.305   0.101   9.440  0.00  0.00    +0.039 A 
ATOM     20  C   UNL     1      -1.043  -0.600   8.282  0.00  0.00    +0.016 A 
ATOM     21  F   UNL     1      -1.557   2.170  10.568  0.00  0.00    -0.205 F 
ENDBRANCH  13  15
ENDBRANCH   3  13
BRANCH   2  22
ATOM     22  N   UNL     1      -0.024  -2.025   3.597  0.00  0.00    -0.250 NA
BRANCH  22  23
ATOM     23  C   UNL     1      -0.970  -2.755   2.751  0.00  0.00    +0.176 C 
BRANCH  23  24
ATOM     24  C   UNL     1      -0.829  -4.257   3.006  0.00  0.00    +0.140 C 
ATOM     25  C   UNL     1      -1.735  -5.041   2.033  0.00  0.00    +0.035 C 
ATOM     26  C   UNL     1      -2.280  -6.181   2.937  0.00  0.00    +0.031 C 
ATOM     27  C   UNL     1      -2.385  -5.452   4.300  0.00  0.00    +0.160 C 
ATOM     28  O   UNL     1      -1.252  -4.565   4.339  0.00  0.00    -0.375 OA
ENDBRANCH  23  24
ENDBRANCH  22  23
ENDBRANCH   2  22
TORSDOF 6
