REMARK  Name = ZINC16753743
REMARK  8 active torsions:
REMARK  status: ('A' for Active; 'I' for Inactive)
REMARK    1  A    between atoms: C_1  and  C_2
REMARK    2  A    between atoms: N_15  and  C_27
REMARK    3  A    between atoms: C_16  and  C_18
REMARK    4  A    between atoms: C_21  and  C_24
REMARK    5  A    between atoms: C_24  and  C_25
REMARK    6  A    between atoms: C_24  and  C_26
REMARK    7  A    between atoms: C_27  and  C_28
REMARK    8  A    between atoms: C_28  and  O_29
REMARK                            x       y       z     vdW  Elec       q    Type
REMARK                         _______ _______ _______ _____ _____    ______ ____
ROOT
ATOM      1  C   UNL     1      -2.894   5.897   8.731  0.00  0.00    +0.044 C 
ATOM      2  C   UNL     1      -1.892   5.560   7.657  0.00  0.00    -0.050 A 
ATOM      3  C   UNL     1      -0.534   5.662   7.924  0.00  0.00    +0.007 A 
ATOM      4  C   UNL     1       0.399   5.359   6.957  0.00  0.00    +0.047 A 
ATOM      5  C   UNL     1      -0.019   4.945   5.695  0.00  0.00    +0.139 A 
ATOM      6  C   UNL     1      -1.396   4.845   5.435  0.00  0.00    +0.065 A 
ATOM      7  C   UNL     1      -2.326   5.156   6.425  0.00  0.00    +0.018 A 
ATOM      8  C   UNL     1      -1.819   4.404   4.091  0.00  0.00    +0.199 A 
ATOM      9  O   UNL     1      -2.996   4.295   3.794  0.00  0.00    -0.287 OA
ATOM     10  C   UNL     1      -0.753   4.104   3.131  0.00  0.00    +0.072 A 
ATOM     11  C   UNL     1       0.545   4.238   3.500  0.00  0.00    +0.199 A 
ATOM     12  O   UNL     1       0.880   4.645   4.740  0.00  0.00    -0.450 OA
ATOM     13  C   UNL     1       1.400   3.872   2.343  0.00  0.00    +0.283 C 
ATOM     14  O   UNL     1       2.615   3.885   2.345  0.00  0.00    -0.267 OA
ATOM     15  N   UNL     1       0.636   3.522   1.294  0.00  0.00    -0.282 N 
ATOM     16  C   UNL     1      -0.770   3.644   1.696  0.00  0.00    +0.145 C 
ENDROOT
BRANCH  16  17
ATOM     17  C   UNL     1      -1.458   2.307   1.591  0.00  0.00    -0.022 A 
ATOM     18  C   UNL     1      -0.843   1.172   2.086  0.00  0.00    +0.006 A 
ATOM     19  C   UNL     1      -1.476  -0.053   1.994  0.00  0.00    +0.004 A 
ATOM     20  C   UNL     1      -2.720  -0.145   1.398  0.00  0.00    -0.045 A 
ATOM     21  C   UNL     1      -3.333   0.989   0.899  0.00  0.00    +0.004 A 
ATOM     22  C   UNL     1      -2.702   2.215   0.995  0.00  0.00    +0.006 A 
BRANCH  20  23
ATOM     23  C   UNL     1      -3.408  -1.482   1.293  0.00  0.00    +0.013 C 
ATOM     24  C   UNL     1      -2.537  -2.441   0.479  0.00  0.00    +0.012 C 
ATOM     25  C   UNL     1      -3.625  -2.055   2.695  0.00  0.00    +0.012 C 
ENDBRANCH  20  23
ENDBRANCH  16  17
BRANCH  15  26
ATOM     26  C   UNL     1       1.122   3.099  -0.022  0.00  0.00    +0.137 C 
BRANCH  26  27
ATOM     27  C   UNL     1       1.153   4.304  -0.966  0.00  0.00    +0.175 C 
BRANCH  27  28
ATOM     28  O   UNL     1       2.118   5.249  -0.500  0.00  0.00    -0.393 OA
ATOM     29  H   UNL     1       2.192   6.040  -1.051  0.00  0.00    +0.209 HD
ENDBRANCH  27  28
ENDBRANCH  26  27
ENDBRANCH  15  26
TORSDOF 5
