REMARK  Name = ZINC36832644
REMARK  10 active torsions:
REMARK  status: ('A' for Active; 'I' for Inactive)
REMARK    1  A    between atoms: C_1  and  C_2
REMARK    2  A    between atoms: C_2  and  C_3
REMARK    3  A    between atoms: C_3  and  N_4
REMARK    4  A    between atoms: C_5  and  C_25
REMARK    5  A    between atoms: C_8  and  S_9
REMARK    6  A    between atoms: S_9  and  C_10
REMARK    7  A    between atoms: C_10  and  C_11
REMARK    8  A    between atoms: N_13  and  C_14
REMARK    9  A    between atoms: C_14  and  C_16
REMARK   10  A    between atoms: C_14  and  C_17
REMARK                            x       y       z     vdW  Elec       q    Type
REMARK                         _______ _______ _______ _____ _____    ______ ____
ROOT
ATOM      1  S   UNL     1      -0.646  -2.713   2.547  0.00  0.00    -0.077 S 
ENDROOT
BRANCH   1   6
ATOM      2  N   UNL     1      -0.661  -2.525  -0.242  0.00  0.00    -0.302 N 
ATOM      3  C   UNL     1      -0.667  -3.410  -1.297  0.00  0.00    +0.165 A 
ATOM      4  N   UNL     1      -0.675  -4.619  -0.786  0.00  0.00    -0.128 NA
ATOM      5  N   UNL     1      -0.675  -4.552   0.498  0.00  0.00    -0.122 NA
ATOM      6  C   UNL     1      -0.660  -3.295   0.884  0.00  0.00    +0.192 A 
BRANCH   3   7
ATOM      7  C   UNL     1      -0.665  -3.063  -2.733  0.00  0.00    +0.022 A 
ATOM      8  C   UNL     1      -0.270  -1.792  -3.167  0.00  0.00    +0.031 A 
ATOM      9  C   UNL     1      -0.283  -1.512  -4.517  0.00  0.00    +0.111 A 
ATOM     10  N   UNL     1      -0.661  -2.423  -5.394  0.00  0.00    -0.263 NA
ATOM     11  C   UNL     1      -1.041  -3.632  -5.029  0.00  0.00    +0.111 A 
ATOM     12  C   UNL     1      -1.053  -4.000  -3.700  0.00  0.00    +0.031 A 
ENDBRANCH   3   7
BRANCH   2  13
ATOM     13  C   UNL     1      -0.651  -1.062  -0.315  0.00  0.00    +0.125 C 
BRANCH  13  15
ATOM     14  C   UNL     1       0.801   0.971  -0.301  0.00  0.00    +0.005 C 
ATOM     15  C   UNL     1       0.791  -0.557  -0.226  0.00  0.00    +0.018 C 
ENDBRANCH  13  15
ENDBRANCH   2  13
ENDBRANCH   1   6
BRANCH   1  16
ATOM     16  C   UNL     1      -0.651  -4.229   3.543  0.00  0.00    +0.173 C 
BRANCH  16  17
ATOM     17  C   UNL     1      -0.641  -3.870   5.006  0.00  0.00    +0.224 C 
ATOM     18  O   UNL     1      -0.630  -2.705   5.344  0.00  0.00    -0.275 OA
ATOM     19  N   UNL     1      -0.642  -4.842   5.939  0.00  0.00    -0.308 N 
ATOM     20  H   UNL     1      -0.650  -5.774   5.669  0.00  0.00    +0.149 HD
BRANCH  19  21
ATOM     21  C   UNL     1      -0.632  -4.493   7.362  0.00  0.00    +0.102 C 
ATOM     22  C   UNL     1      -2.070  -4.350   7.863  0.00  0.00    +0.033 C 
BRANCH  21  23
ATOM     23  C   UNL     1       0.066  -5.578   8.141  0.00  0.00    -0.009 A 
ATOM     24  C   UNL     1       0.083  -6.873   7.658  0.00  0.00    +0.008 A 
ATOM     25  C   UNL     1       0.723  -7.869   8.371  0.00  0.00    +0.020 A 
ATOM     26  C   UNL     1       1.346  -7.570   9.570  0.00  0.00    +0.042 A 
ATOM     27  C   UNL     1       1.329  -6.274  10.054  0.00  0.00    +0.040 A 
ATOM     28  C   UNL     1       0.693  -5.277   9.337  0.00  0.00    +0.047 A 
ATOM     29 CL   UNL     1       0.676  -3.649   9.940  0.00  0.00    -0.083 Cl
ATOM     30 CL   UNL     1       2.148  -8.821  10.467  0.00  0.00    -0.083 Cl
ENDBRANCH  21  23
ENDBRANCH  19  21
ENDBRANCH  16  17
ENDBRANCH   1  16
TORSDOF 8
