REMARK  Name = ZINC23076482
REMARK  13 active torsions:
REMARK  status: ('A' for Active; 'I' for Inactive)
REMARK    1  A    between atoms: C_1  and  C_2
REMARK    2  A    between atoms: C_2  and  C_3
REMARK    3  A    between atoms: C_3  and  C_4
REMARK    4  A    between atoms: C_4  and  N_5
REMARK    5  A    between atoms: C_6  and  N_37
REMARK    6  A    between atoms: C_7  and  N_14
REMARK    7  A    between atoms: N_14  and  C_15
REMARK    8  A    between atoms: C_15  and  C_16
REMARK    9  A    between atoms: C_16  and  O_17
REMARK   10  A    between atoms: O_17  and  C_18
REMARK   11  A    between atoms: C_19  and  C_21
REMARK   12  A    between atoms: C_25  and  S_27
REMARK   13  A    between atoms: S_27  and  N_30
REMARK                            x       y       z     vdW  Elec       q    Type
REMARK                         _______ _______ _______ _____ _____    ______ ____
ROOT
ATOM      1  N   UNL     1       0.610  -3.978  -5.915  0.00  0.00    -0.258 N 
ATOM      2  C   UNL     1      -0.446  -3.167  -6.126  0.00  0.00    +0.251 C 
ATOM      3  O   UNL     1      -0.708  -2.792  -7.253  0.00  0.00    -0.270 OA
ENDROOT
BRANCH   1   6
ATOM      4  N   UNL     1       2.502  -4.323  -2.785  0.00  0.00    -0.280 N 
ATOM      5  C   UNL     1       2.182  -3.954  -4.071  0.00  0.00    +0.127 A 
ATOM      6  C   UNL     1       0.967  -4.341  -4.600  0.00  0.00    +0.140 A 
ATOM      7  C   UNL     1       0.092  -5.104  -3.804  0.00  0.00    +0.277 A 
ATOM      8  O   UNL     1      -0.987  -5.460  -4.246  0.00  0.00    -0.266 OA
ATOM      9  N   UNL     1       0.455  -5.439  -2.550  0.00  0.00    -0.273 N 
ATOM     10  H   UNL     1      -0.148  -5.965  -2.001  0.00  0.00    +0.173 HD
ATOM     11  C   UNL     1       1.645  -5.057  -2.053  0.00  0.00    +0.331 A 
ATOM     12  O   UNL     1       1.949  -5.377  -0.920  0.00  0.00    -0.246 OA
BRANCH   5  13
ATOM     13  N   UNL     1       3.060  -3.208  -4.819  0.00  0.00    -0.343 N 
ATOM     14  H   UNL     1       3.909  -2.933  -4.439  0.00  0.00    +0.144 HD
ATOM     15  H   UNL     1       2.832  -2.957  -5.728  0.00  0.00    +0.144 HD
ENDBRANCH   5  13
BRANCH   4  16
ATOM     16  C   UNL     1       3.788  -3.918  -2.211  0.00  0.00    +0.128 C 
BRANCH  16  17
ATOM     17  C   UNL     1       4.841  -4.987  -2.514  0.00  0.00    +0.021 C 
BRANCH  17  19
ATOM     18  C   UNL     1       7.236  -5.632  -2.219  0.00  0.00    +0.004 C 
ATOM     19  C   UNL     1       6.184  -4.564  -1.915  0.00  0.00    -0.002 C 
ENDBRANCH  17  19
ENDBRANCH  16  17
ENDBRANCH   4  16
ENDBRANCH   1   6
BRANCH   2  20
ATOM     20  C   UNL     1      -1.284  -2.733  -4.989  0.00  0.00    +0.039 A 
ATOM     21  C   UNL     1      -0.731  -2.622  -3.712  0.00  0.00    +0.013 A 
ATOM     22  C   UNL     1      -1.518  -2.216  -2.655  0.00  0.00    +0.003 A 
ATOM     23  C   UNL     1      -2.854  -1.919  -2.858  0.00  0.00    +0.028 A 
ATOM     24  C   UNL     1      -3.409  -2.027  -4.121  0.00  0.00    +0.106 A 
ATOM     25  C   UNL     1      -2.631  -2.426  -5.188  0.00  0.00    +0.041 A 
BRANCH  24  26
ATOM     26  S   UNL     1      -5.112  -1.646  -4.368  0.00  0.00    +0.061 S 
ATOM     27  O   UNL     1      -5.520  -2.350  -5.533  0.00  0.00    -0.153 OA
ATOM     28  O   UNL     1      -5.753  -1.816  -3.112  0.00  0.00    -0.153 OA
BRANCH  26  29
ATOM     29  N   UNL     1      -5.205  -0.033  -4.732  0.00  0.00    -0.177 NA
ATOM     30  C   UNL     1      -5.356   0.914  -3.650  0.00  0.00    +0.109 C 
ATOM     31  C   UNL     1      -6.862   1.132  -3.358  0.00  0.00    +0.017 C 
ATOM     32  C   UNL     1      -7.487   1.899  -4.446  0.00  0.00    +0.001 C 
ATOM     33  C   UNL     1      -7.463   1.200  -5.802  0.00  0.00    +0.001 C 
ATOM     34  C   UNL     1      -6.148   1.481  -6.487  0.00  0.00    +0.017 C 
ATOM     35  C   UNL     1      -5.123   0.379  -6.147  0.00  0.00    +0.109 C 
ENDBRANCH  26  29
ENDBRANCH  24  26
ENDBRANCH   2  20
BRANCH   1  36
ATOM     36  C   UNL     1       1.385  -4.484  -7.051  0.00  0.00    +0.142 C 
BRANCH  36  37
ATOM     37  C   UNL     1       0.870  -5.870  -7.443  0.00  0.00    +0.179 C 
BRANCH  37  38
ATOM     38  O   UNL     1      -0.473  -5.763  -7.919  0.00  0.00    -0.381 OA
ATOM     39  C   UNL     1      -1.051  -7.009  -8.314  0.00  0.00    +0.194 C 
ENDBRANCH  37  38
ENDBRANCH  36  37
ENDBRANCH   1  36
TORSDOF 11
