REMARK  Name = ZINC36502226
REMARK  15 active torsions:
REMARK  status: ('A' for Active; 'I' for Inactive)
REMARK    1  A    between atoms: C_1  and  C_2
REMARK    2  A    between atoms: C_2  and  C_4
REMARK    3  A    between atoms: C_2  and  C_10
REMARK    4  A    between atoms: C_10  and  C_12
REMARK    5  A    between atoms: C_10  and  N_19
REMARK    6  A    between atoms: N_14  and  C_15
REMARK    7  A    between atoms: C_15  and  C_16
REMARK    8  A    between atoms: C_15  and  C_17
REMARK    9  A    between atoms: C_15  and  C_18
REMARK   10  A    between atoms: N_19  and  C_20
REMARK   11  A    between atoms: C_20  and  C_21
REMARK   12  A    between atoms: C_26  and  C_28
REMARK   13  A    between atoms: C_28  and  C_29
REMARK   14  A    between atoms: C_28  and  C_35
REMARK   15  A    between atoms: C_28  and  O_41
REMARK                            x       y       z     vdW  Elec       q    Type
REMARK                         _______ _______ _______ _____ _____    ______ ____
ROOT
ATOM      1  N   UNL     1       2.835   1.046  -1.201  0.00  0.00    -0.279 N 
ATOM      2  C   UNL     1       2.869   1.390  -2.504  0.00  0.00    +0.258 C 
ATOM      3  O   UNL     1       1.871   1.818  -3.044  0.00  0.00    -0.272 OA
ENDROOT
BRANCH   1   4
ATOM      4  C   UNL     1       1.570   1.088  -0.465  0.00  0.00    +0.169 C 
BRANCH   4   5
ATOM      5  C   UNL     1       1.270  -0.277   0.097  0.00  0.00    +0.235 C 
ATOM      6  O   UNL     1       2.122  -1.140   0.082  0.00  0.00    -0.274 OA
ATOM      7  N   UNL     1       0.055  -0.540   0.618  0.00  0.00    -0.309 N 
ATOM      8  H   UNL     1      -0.627   0.150   0.631  0.00  0.00    +0.149 HD
BRANCH   7   9
ATOM      9  C   UNL     1      -0.237  -1.867   1.165  0.00  0.00    +0.026 C 
ATOM     10  C   UNL     1       0.730  -2.170   2.311  0.00  0.00    +0.031 C 
ATOM     11  C   UNL     1      -1.674  -1.899   1.688  0.00  0.00    +0.031 C 
ATOM     12  C   UNL     1      -0.070  -2.919   0.066  0.00  0.00    +0.031 C 
ENDBRANCH   7   9
ENDBRANCH   4   5
BRANCH   4  14
ATOM     13  C   UNL     1       2.070   3.466   0.117  0.00  0.00    +0.015 C 
ATOM     14  C   UNL     1       1.679   2.098   0.679  0.00  0.00    +0.045 C 
BRANCH  14  15
ATOM     15  C   UNL     1       0.351   2.205   1.383  0.00  0.00    -0.042 A 
ATOM     16  C   UNL     1      -0.772   2.607   0.683  0.00  0.00    +0.004 A 
ATOM     17  C   UNL     1      -1.990   2.705   1.329  0.00  0.00    +0.000 A 
ATOM     18  C   UNL     1      -2.086   2.402   2.674  0.00  0.00    +0.000 A 
ATOM     19  C   UNL     1      -0.964   2.000   3.374  0.00  0.00    +0.000 A 
ATOM     20  C   UNL     1       0.254   1.897   2.727  0.00  0.00    +0.004 A 
ENDBRANCH  14  15
ENDBRANCH   4  14
ENDBRANCH   1   4
BRANCH   1  21
ATOM     21  C   UNL     1       4.065   0.630  -0.522  0.00  0.00    +0.182 C 
BRANCH  21  22
ATOM     22  C   UNL     1       4.690   1.820   0.160  0.00  0.00    +0.122 A 
ATOM     23  C   UNL     1       4.544   2.150   1.455  0.00  0.00    +0.046 A 
ATOM     24  C   UNL     1       5.298   3.329   1.664  0.00  0.00    +0.041 A 
ATOM     25  C   UNL     1       5.858   3.647   0.484  0.00  0.00    +0.195 A 
ATOM     26  O   UNL     1       5.491   2.727  -0.422  0.00  0.00    -0.466 OA
ENDBRANCH  21  22
ENDBRANCH   1  21
BRANCH   2  27
ATOM     27  C   UNL     1       4.147   1.244  -3.289  0.00  0.00    +0.192 C 
BRANCH  27  28
ATOM     28  C   UNL     1       4.381  -0.212  -3.600  0.00  0.00    -0.003 A 
ATOM     29  C   UNL     1       3.318  -1.025  -3.943  0.00  0.00    +0.007 A 
ATOM     30  C   UNL     1       3.533  -2.361  -4.229  0.00  0.00    +0.000 A 
ATOM     31  C   UNL     1       4.812  -2.882  -4.172  0.00  0.00    +0.000 A 
ATOM     32  C   UNL     1       5.876  -2.068  -3.830  0.00  0.00    +0.000 A 
ATOM     33  C   UNL     1       5.661  -0.732  -3.549  0.00  0.00    +0.007 A 
ENDBRANCH  27  28
BRANCH  27  34
ATOM     34  C   UNL     1       4.038   2.022  -4.576  0.00  0.00    -0.003 A 
ATOM     35  C   UNL     1       2.926   1.869  -5.383  0.00  0.00    +0.007 A 
ATOM     36  C   UNL     1       2.826   2.582  -6.563  0.00  0.00    +0.000 A 
ATOM     37  C   UNL     1       3.837   3.448  -6.935  0.00  0.00    +0.000 A 
ATOM     38  C   UNL     1       4.948   3.602  -6.127  0.00  0.00    +0.000 A 
ATOM     39  C   UNL     1       5.046   2.892  -4.945  0.00  0.00    +0.007 A 
ENDBRANCH  27  34
BRANCH  27  40
ATOM     40  O   UNL     1       5.240   1.749  -2.519  0.00  0.00    -0.371 OA
ATOM     41  H   UNL     1       5.156   2.682  -2.282  0.00  0.00    +0.212 HD
ENDBRANCH  27  40
ENDBRANCH   2  27
TORSDOF 11
