REMARK  Name = ZINC55857748
REMARK  9 active torsions:
REMARK  status: ('A' for Active; 'I' for Inactive)
REMARK    1  A    between atoms: C_1  and  C_2
REMARK    2  A    between atoms: C_2  and  N_3
REMARK    3  A    between atoms: C_4  and  C_6
REMARK    4  A    between atoms: C_9  and  C_29
REMARK    5  A    between atoms: C_10  and  N_12
REMARK    6  A    between atoms: N_12  and  C_13
REMARK    7  A    between atoms: C_13  and  C_14
REMARK    8  A    between atoms: N_19  and  C_20
REMARK    9  A    between atoms: C_26  and  C_28
REMARK                            x       y       z     vdW  Elec       q    Type
REMARK                         _______ _______ _______ _____ _____    ______ ____
ROOT
ATOM      1  C   UNL     1       2.009  -6.457   3.182  0.00  0.00    +0.198 C 
ENDROOT
BRANCH   1   2
ATOM      2  C   UNL     1       2.313  -7.859   3.644  0.00  0.00    +0.237 C 
ATOM      3  O   UNL     1       2.925  -8.037   4.676  0.00  0.00    -0.274 OA
ATOM      4  N   UNL     1       1.906  -8.914   2.911  0.00  0.00    -0.239 N 
ATOM      5  C   UNL     1       2.178 -10.167   3.325  0.00  0.00    +0.306 C 
ATOM      6  O   UNL     1       2.791 -10.346   4.359  0.00  0.00    -0.252 OA
ATOM      7  N   UNL     1       1.770 -11.222   2.592  0.00  0.00    -0.296 N 
ATOM      8  H   UNL     1       1.417  -8.771   2.086  0.00  0.00    +0.159 HD
ATOM      9  H   UNL     1       1.281 -11.079   1.766  0.00  0.00    +0.151 HD
BRANCH   7  10
ATOM     10  C   UNL     1       2.066 -12.585   3.041  0.00  0.00    +0.077 C 
ATOM     11  C   UNL     1       0.989 -13.041   4.028  0.00  0.00    +0.022 C 
ATOM     12  C   UNL     1       1.298 -14.464   4.497  0.00  0.00    +0.002 C 
ATOM     13  C   UNL     1       1.317 -15.406   3.292  0.00  0.00    +0.000 C 
ATOM     14  C   UNL     1       2.394 -14.950   2.305  0.00  0.00    +0.005 C 
ATOM     15  C   UNL     1       2.085 -13.527   1.836  0.00  0.00    +0.006 C 
ATOM     16  C   UNL     1       3.162 -13.070   0.849  0.00  0.00    +0.009 C 
ENDBRANCH   7  10
ENDBRANCH   1   2
BRANCH   1  17
ATOM     17  N   UNL     1       2.554  -5.496   4.144  0.00  0.00    -0.335 N 
ATOM     18  H   UNL     1       3.025  -5.812   4.932  0.00  0.00    +0.147 HD
BRANCH  17  23
ATOM     19  C   UNL     1       1.569  -2.304   2.592  0.00  0.00    +0.038 A 
ATOM     20  C   UNL     1       2.092  -1.396   3.515  0.00  0.00    +0.013 A 
ATOM     21  C   UNL     1       2.759  -1.856   4.632  0.00  0.00    +0.006 A 
ATOM     22  C   UNL     1       2.913  -3.213   4.841  0.00  0.00    -0.030 A 
ATOM     23  C   UNL     1       2.396  -4.125   3.929  0.00  0.00    +0.031 A 
ATOM     24  C   UNL     1       1.718  -3.673   2.806  0.00  0.00    +0.036 A 
ATOM     25  C   UNL     1       3.643  -3.707   6.064  0.00  0.00    +0.045 C 
BRANCH  19  27
ATOM     26  N   UNL     1       0.711  -0.489   1.189  0.00  0.00    -0.312 N 
ATOM     27  C   UNL     1       0.854  -1.814   1.394  0.00  0.00    +0.244 C 
ATOM     28  O   UNL     1       0.395  -2.606   0.594  0.00  0.00    -0.270 OA
ATOM     29  H   UNL     1       1.077   0.142   1.827  0.00  0.00    +0.149 HD
BRANCH  26  31
ATOM     30  C   UNL     1      -0.019   1.526   0.010  0.00  0.00    +0.024 C 
ATOM     31  C   UNL     1       0.002  -0.004   0.002  0.00  0.00    +0.101 C 
ENDBRANCH  26  31
ENDBRANCH  19  27
ENDBRANCH  17  23
ENDBRANCH   1  17
TORSDOF 6
