REMARK  Name = ZINC62166208
REMARK  7 active torsions:
REMARK  status: ('A' for Active; 'I' for Inactive)
REMARK    1  A    between atoms: C_4  and  N_7
REMARK    2  A    between atoms: C_9  and  C_14
REMARK    3  A    between atoms: C_20  and  C_22
REMARK    4  A    between atoms: C_22  and  C_23
REMARK    5  A    between atoms: C_23  and  C_24
REMARK    6  A    between atoms: C_24  and  S_25
REMARK    7  A    between atoms: S_25  and  C_28
REMARK                            x       y       z     vdW  Elec       q    Type
REMARK                         _______ _______ _______ _____ _____    ______ ____
ROOT
ATOM      1  C   UNL     1       5.202  -2.721  -1.912  0.00  0.00    +0.224 A 
ATOM      2  N   UNL     1       4.825  -1.917  -2.864  0.00  0.00    -0.111 NA
ATOM      3  N   UNL     1       4.971  -2.500  -4.002  0.00  0.00    -0.092 NA
ATOM      4  C   UNL     1       5.449  -3.705  -3.813  0.00  0.00    +0.314 A 
ATOM      5  O   UNL     1       5.610  -3.868  -2.487  0.00  0.00    -0.409 OA
ATOM      6  N   UNL     1       5.740  -4.637  -4.798  0.00  0.00    -0.238 N 
ATOM      7  C   UNL     1       5.532  -4.335  -6.095  0.00  0.00    +0.221 C 
ATOM      8  O   UNL     1       5.091  -3.247  -6.401  0.00  0.00    -0.275 OA
ATOM      9  H   UNL     1       6.093  -5.507  -4.554  0.00  0.00    +0.159 HD
ENDROOT
BRANCH   1  12
ATOM     10  N   UNL     1       3.622  -0.651  -0.037  0.00  0.00    -0.271 N 
ATOM     11  C   UNL     1       3.757  -2.109   0.053  0.00  0.00    +0.127 C 
ATOM     12  C   UNL     1       5.189  -2.421  -0.436  0.00  0.00    +0.103 C 
ATOM     13  C   UNL     1       5.921  -1.092  -0.134  0.00  0.00    +0.110 C 
ATOM     14  C   UNL     1       4.821  -0.054  -0.144  0.00  0.00    +0.221 C 
ATOM     15  O   UNL     1       4.997   1.143  -0.232  0.00  0.00    -0.275 OA
BRANCH  10  19
ATOM     16  C   UNL     1      -0.017   1.379   0.010  0.00  0.00    +0.000 A 
ATOM     17  C   UNL     1       1.170   2.089   0.016  0.00  0.00    +0.002 A 
ATOM     18  C   UNL     1       2.377   1.419   0.001  0.00  0.00    +0.023 A 
ATOM     19  C   UNL     1       2.400   0.031  -0.021  0.00  0.00    +0.036 A 
ATOM     20  C   UNL     1       1.206  -0.680  -0.028  0.00  0.00    +0.023 A 
ATOM     21  C   UNL     1       0.002  -0.004  -0.012  0.00  0.00    +0.002 A 
ENDBRANCH  10  19
ENDBRANCH   1  12
BRANCH   7  22
ATOM     22  C   UNL     1       5.848  -5.348  -7.165  0.00  0.00    +0.098 C 
BRANCH  22  23
ATOM     23  C   UNL     1       5.524  -4.757  -8.539  0.00  0.00    +0.032 C 
BRANCH  23  24
ATOM     24  C   UNL     1       5.845  -5.785  -9.625  0.00  0.00    +0.172 C 
BRANCH  24  25
ATOM     25  S   UNL     1       5.460  -5.085 -11.254  0.00  0.00    -0.003 S 
ATOM     26  O   UNL     1       4.057  -4.910 -11.392  0.00  0.00    -0.169 OA
ATOM     27  O   UNL     1       6.356  -4.023 -11.553  0.00  0.00    -0.169 OA
BRANCH  25  28
ATOM     28  C   UNL     1       5.870  -6.356 -12.402  0.00  0.00    +0.088 A 
ATOM     29  C   UNL     1       7.148  -6.428 -12.926  0.00  0.00    +0.028 A 
ATOM     30  C   UNL     1       7.470  -7.426 -13.827  0.00  0.00    +0.022 A 
ATOM     31  C   UNL     1       6.514  -8.352 -14.204  0.00  0.00    +0.041 A 
ATOM     32  C   UNL     1       5.236  -8.280 -13.680  0.00  0.00    +0.022 A 
ATOM     33  C   UNL     1       4.917  -7.285 -12.774  0.00  0.00    +0.028 A 
ATOM     34 CL   UNL     1       6.918  -9.605 -15.336  0.00  0.00    -0.084 Cl
ENDBRANCH  25  28
ENDBRANCH  24  25
ENDBRANCH  23  24
ENDBRANCH  22  23
ENDBRANCH   7  22
TORSDOF 7
