REMARK  Name = ZINC63392735
REMARK  8 active torsions:
REMARK  status: ('A' for Active; 'I' for Inactive)
REMARK    1  A    between atoms: C_1  and  C_2
REMARK    2  A    between atoms: C_2  and  O_3
REMARK    3  A    between atoms: O_3  and  C_4
REMARK    4  A    between atoms: C_10  and  C_21
REMARK    5  A    between atoms: C_12  and  C_15
REMARK    6  A    between atoms: N_23  and  C_24
REMARK    7  A    between atoms: C_24  and  C_25
REMARK    8  A    between atoms: C_25  and  C_26
REMARK                            x       y       z     vdW  Elec       q    Type
REMARK                         _______ _______ _______ _____ _____    ______ ____
ROOT
ATOM      1  C   UNL     1      -1.556  -1.677   0.252  0.00  0.00    +0.121 A 
ATOM      2  C   UNL     1      -0.422  -2.477   0.244  0.00  0.00    +0.049 A 
ATOM      3  C   UNL     1      -0.538  -3.847   0.147  0.00  0.00    +0.049 A 
ATOM      4  C   UNL     1      -1.794  -4.442   0.058  0.00  0.00    +0.126 A 
ATOM      5  C   UNL     1      -2.924  -3.634   0.075  0.00  0.00    +0.013 A 
ATOM      6  C   UNL     1      -2.811  -2.265   0.172  0.00  0.00    +0.053 A 
ATOM      7  C   UNL     1      -4.128  -4.552  -0.010  0.00  0.00    +0.153 C 
ATOM      8  C   UNL     1      -3.507  -5.928   0.326  0.00  0.00    +0.220 C 
ATOM      9  O   UNL     1      -2.131  -5.757  -0.055  0.00  0.00    -0.483 OA
ENDROOT
BRANCH   8  10
ATOM     10  C   UNL     1      -4.157  -7.019  -0.484  0.00  0.00    -0.006 A 
ATOM     11  C   UNL     1      -3.668  -7.335  -1.738  0.00  0.00    +0.007 A 
ATOM     12  C   UNL     1      -4.265  -8.337  -2.481  0.00  0.00    +0.000 A 
ATOM     13  C   UNL     1      -5.351  -9.022  -1.970  0.00  0.00    +0.000 A 
ATOM     14  C   UNL     1      -5.840  -8.707  -0.716  0.00  0.00    +0.000 A 
ATOM     15  C   UNL     1      -5.240  -7.709   0.029  0.00  0.00    +0.007 A 
ENDBRANCH   8  10
BRANCH   7  16
ATOM     16  C   UNL     1      -4.710  -4.548  -1.400  0.00  0.00    +0.225 C 
ATOM     17  O   UNL     1      -3.993  -4.348  -2.357  0.00  0.00    -0.275 OA
ATOM     18  N   UNL     1      -6.028  -4.766  -1.579  0.00  0.00    -0.314 N 
ATOM     19  H   UNL     1      -6.602  -4.926  -0.813  0.00  0.00    +0.149 HD
BRANCH  18  20
ATOM     20  C   UNL     1      -6.595  -4.762  -2.930  0.00  0.00    +0.108 C 
BRANCH  20  21
ATOM     21  C   UNL     1      -8.098  -5.033  -2.854  0.00  0.00    +0.052 C 
BRANCH  21  22
ATOM     22  C   UNL     1      -8.681  -5.029  -4.244  0.00  0.00    -0.040 C 
ATOM     23  C   UNL     1      -8.899  -6.103  -5.037  0.00  0.00    -0.001 A 
ATOM     24  C   UNL     1      -8.668  -7.540  -4.851  0.00  0.00    +0.010 A 
ATOM     25  C   UNL     1      -8.995  -8.392  -5.849  0.00  0.00    +0.001 A 
ATOM     26  C   UNL     1      -9.548  -7.937  -7.054  0.00  0.00    +0.002 A 
ATOM     27  C   UNL     1      -9.790  -6.632  -7.299  0.00  0.00    +0.026 A 
ATOM     28  C   UNL     1      -9.485  -5.648  -6.318  0.00  0.00    +0.043 A 
ATOM     29  N   UNL     1      -9.623  -4.345  -6.317  0.00  0.00    -0.380 N 
ATOM     30  C   UNL     1      -9.146  -3.824  -5.031  0.00  0.00    +0.144 C 
ATOM     31  H   UNL     1      -9.984  -3.813  -7.044  0.00  0.00    +0.160 HD
ENDBRANCH  21  22
ENDBRANCH  20  21
ENDBRANCH  18  20
ENDBRANCH   7  16
BRANCH   1  32
ATOM     32  O   UNL     1      -1.439  -0.326   0.344  0.00  0.00    -0.492 OA
BRANCH  32  34
ATOM     33  C   UNL     1      -0.184   1.732   0.520  0.00  0.00    +0.048 C 
ATOM     34  C   UNL     1      -0.115   0.207   0.423  0.00  0.00    +0.225 C 
ENDBRANCH  32  34
ENDBRANCH   1  32
TORSDOF 7
