REMARK  Name = ZINC04906083
REMARK  7 active torsions:
REMARK  status: ('A' for Active; 'I' for Inactive)
REMARK    1  A    between atoms: C_1  and  C_2
REMARK    2  A    between atoms: C_7  and  N_12
REMARK    3  A    between atoms: C_9  and  C_11
REMARK    4  A    between atoms: N_12  and  C_13
REMARK    5  A    between atoms: C_16  and  S_22
REMARK    6  A    between atoms: C_18  and  N_19
REMARK    7  A    between atoms: S_22  and  C_25
REMARK                            x       y       z     vdW  Elec       q    Type
REMARK                         _______ _______ _______ _____ _____    ______ ____
ROOT
ATOM      1  C   UNL     1       1.376   0.105   5.093  0.00  0.00    +0.058 A 
ATOM      2  C   UNL     1       1.678   1.361   4.582  0.00  0.00    +0.027 A 
ATOM      3  C   UNL     1       1.123   1.769   3.385  0.00  0.00    +0.029 A 
ATOM      4  C   UNL     1       0.268   0.929   2.695  0.00  0.00    +0.090 A 
ATOM      5  C   UNL     1      -0.039  -0.320   3.204  0.00  0.00    +0.061 A 
ATOM      6  C   UNL     1       0.517  -0.736   4.397  0.00  0.00    +0.149 A 
ENDROOT
BRANCH   4   7
ATOM      7  S   UNL     1      -0.438   1.454   1.168  0.00  0.00    -0.006 S 
ATOM      8  O   UNL     1      -0.456   2.872   1.245  0.00  0.00    -0.170 OA
ATOM      9  O   UNL     1      -1.648   0.718   1.056  0.00  0.00    -0.170 OA
ATOM     10  C   UNL     1       0.741   0.912  -0.101  0.00  0.00    +0.200 C 
ENDBRANCH   4   7
BRANCH   6  11
ATOM     11  N   UNL     1       0.193  -2.075   4.938  0.00  0.00    +0.058 N 
ATOM     12  O   UNL     1       1.052  -2.729   5.502  0.00  0.00    -0.126 OA
ATOM     13  O   UNL     1      -0.934  -2.523   4.820  0.00  0.00    -0.126 OA
ENDBRANCH   6  11
BRANCH   1  14
ATOM     14  N   UNL     1       1.935  -0.311   6.303  0.00  0.00    -0.339 N 
ATOM     15  H   UNL     1       1.661  -1.152   6.700  0.00  0.00    +0.146 HD
BRANCH  14  21
ATOM     16  C   UNL     1       3.971   0.793  10.671  0.00  0.00    +0.008 C 
ATOM     17  C   UNL     1       3.976   1.094   9.171  0.00  0.00    -0.009 C 
ATOM     18  C   UNL     1       5.361   0.790   8.595  0.00  0.00    +0.003 C 
ATOM     19  C   UNL     1       5.367   1.091   7.095  0.00  0.00    +0.002 C 
ATOM     20  C   UNL     1       4.321   0.220   6.396  0.00  0.00    +0.022 C 
ATOM     21  C   UNL     1       2.937   0.524   6.972  0.00  0.00    +0.074 C 
ATOM     22  C   UNL     1       2.931   0.223   8.472  0.00  0.00    +0.009 C 
ATOM     23  C   UNL     1       1.546   0.526   9.048  0.00  0.00    +0.009 C 
ENDBRANCH  14  21
ENDBRANCH   1  14
TORSDOF 4
