REMARK  Name = ZINC22009913
REMARK  4 active torsions:
REMARK  status: ('A' for Active; 'I' for Inactive)
REMARK    1  A    between atoms: C_1  and  C_2
REMARK    2  A    between atoms: C_2  and  C_4
REMARK    3  A    between atoms: C_2  and  N_18
REMARK    4  A    between atoms: N_10  and  C_11
REMARK                            x       y       z     vdW  Elec       q    Type
REMARK                         _______ _______ _______ _____ _____    ______ ____
ROOT
ATOM      1  C   UNL     1      -0.426   1.554   1.440  0.00  0.00    +0.156 A 
ATOM      2  N   UNL     1      -0.573   2.851   1.647  0.00  0.00    -0.198 NA
ATOM      3  C   UNL     1      -1.282   3.284   2.687  0.00  0.00    +0.217 A 
ATOM      4  N   UNL     1      -1.842   2.411   3.517  0.00  0.00    -0.181 NA
ATOM      5  C   UNL     1      -1.693   1.108   3.305  0.00  0.00    +0.224 A 
ATOM      6  N   UNL     1      -0.986   0.683   2.260  0.00  0.00    -0.197 NA
ATOM      7  N   UNL     1      -2.274   0.197   4.164  0.00  0.00    -0.284 N 
ATOM      8  N   UNL     1      -1.434   4.639   2.903  0.00  0.00    -0.327 N 
ATOM      9  H   UNL     1      -2.229  -0.879   3.938  0.00  0.00    +0.155 HD
ATOM     10  H   UNL     1      -2.020   4.996   3.762  0.00  0.00    +0.145 HD
ATOM     11  H   UNL     1      -0.969   5.361   2.215  0.00  0.00    +0.145 HD
ENDROOT
BRANCH   7  12
ATOM     12  C   UNL     1      -2.919   0.641   5.323  0.00  0.00    +0.034 A 
ATOM     13  C   UNL     1      -2.435   1.748   6.008  0.00  0.00    +0.023 A 
ATOM     14  C   UNL     1      -3.078   2.187   7.149  0.00  0.00    +0.002 A 
ATOM     15  C   UNL     1      -4.196   1.520   7.615  0.00  0.00    +0.000 A 
ATOM     16  C   UNL     1      -4.677   0.415   6.938  0.00  0.00    +0.002 A 
ATOM     17  C   UNL     1      -4.042  -0.027   5.793  0.00  0.00    +0.023 A 
ENDBRANCH   7  12
BRANCH   1  19
ATOM     18  C   UNL     1      -0.156   1.712  -1.020  0.00  0.00    +0.036 C 
ATOM     19  C   UNL     1       0.377   1.067   0.261  0.00  0.00    +0.138 C 
BRANCH  19  20
ATOM     20  N   UNL     1       1.788   1.435   0.444  0.00  0.00    -0.320 N 
ATOM     21  C   UNL     1       1.933   2.881   0.627  0.00  0.00    +0.106 C 
ATOM     22  C   UNL     1       3.424   3.208   0.784  0.00  0.00    +0.024 C 
ATOM     23  C   UNL     1       4.107   2.945  -0.559  0.00  0.00    +0.038 C 
ATOM     24  C   UNL     1       3.676   1.602  -1.094  0.00  0.00    -0.026 A 
ATOM     25  C   UNL     1       2.574   0.932  -0.592  0.00  0.00    +0.033 A 
ATOM     26  C   UNL     1       2.219  -0.304  -1.133  0.00  0.00    +0.023 A 
ATOM     27  C   UNL     1       2.959  -0.857  -2.155  0.00  0.00    +0.002 A 
ATOM     28  C   UNL     1       4.062  -0.186  -2.650  0.00  0.00    +0.000 A 
ATOM     29  C   UNL     1       4.417   1.039  -2.120  0.00  0.00    +0.005 A 
ENDBRANCH  19  20
ENDBRANCH   1  19
TORSDOF 3
