REMARK  Name = ZINC62930808
REMARK  10 active torsions:
REMARK  status: ('A' for Active; 'I' for Inactive)
REMARK    1  A    between atoms: C_1  and  C_2
REMARK    2  A    between atoms: C_2  and  C_3
REMARK    3  A    between atoms: C_2  and  N_4
REMARK    4  A    between atoms: N_7  and  N_8
REMARK    5  A    between atoms: N_8  and  S_9
REMARK    6  A    between atoms: S_9  and  C_12
REMARK    7  A    between atoms: C_15  and  O_22
REMARK    8  A    between atoms: O_22  and  C_23
REMARK    9  A    between atoms: C_23  and  C_24
REMARK   10  A    between atoms: C_23  and  C_25
REMARK                            x       y       z     vdW  Elec       q    Type
REMARK                         _______ _______ _______ _____ _____    ______ ____
ROOT
ATOM      1  S   UNL     1      -5.430  -0.652   0.642  0.00  0.00    +0.074 S 
ATOM      2  O   UNL     1      -4.103  -0.782   0.152  0.00  0.00    -0.152 OA
ATOM      3  O   UNL     1      -5.864  -1.276   1.843  0.00  0.00    -0.152 OA
ENDROOT
BRANCH   1   4
ATOM      4  C   UNL     1      -6.497  -1.226  -0.637  0.00  0.00    +0.115 A 
ATOM      5  C   UNL     1      -7.495  -2.108  -0.350  0.00  0.00    +0.033 A 
ATOM      6  C   UNL     1      -8.349  -2.574  -1.346  0.00  0.00    +0.048 A 
ATOM      7  C   UNL     1      -8.211  -2.159  -2.641  0.00  0.00    +0.129 A 
ATOM      8  C   UNL     1      -7.190  -1.246  -2.973  0.00  0.00    +0.026 A 
ATOM      9  C   UNL     1      -6.326  -0.771  -1.956  0.00  0.00    +0.012 A 
ATOM     10  C   UNL     1      -5.310   0.143  -2.286  0.00  0.00    +0.010 A 
ATOM     11  C   UNL     1      -5.174   0.561  -3.574  0.00  0.00    +0.001 A 
ATOM     12  C   UNL     1      -6.028   0.098  -4.573  0.00  0.00    +0.001 A 
ATOM     13  C   UNL     1      -7.015  -0.797  -4.292  0.00  0.00    +0.012 A 
BRANCH   7  14
ATOM     14  O   UNL     1      -9.052  -2.624  -3.600  0.00  0.00    -0.489 OA
BRANCH  14  15
ATOM     15  C   UNL     1     -10.137  -3.448  -3.169  0.00  0.00    +0.167 C 
ATOM     16  C   UNL     1     -11.295  -3.327  -4.161  0.00  0.00    +0.051 C 
ATOM     17  C   UNL     1      -9.674  -4.905  -3.100  0.00  0.00    +0.051 C 
ENDBRANCH  14  15
ENDBRANCH   7  14
ENDBRANCH   1   4
BRANCH   1  18
ATOM     18  N   UNL     1      -5.711   0.970   0.823  0.00  0.00    -0.107 NA
ATOM     19  H   UNL     1      -4.978   1.601   0.747  0.00  0.00    +0.172 HD
BRANCH  18  23
ATOM     20  N   UNL     1      -6.230   2.526   2.996  0.00  0.00    -0.296 N 
ATOM     21  C   UNL     1      -7.242   2.201   2.168  0.00  0.00    +0.315 C 
ATOM     22  O   UNL     1      -8.367   2.601   2.397  0.00  0.00    -0.251 OA
ATOM     23  N   UNL     1      -7.008   1.431   1.087  0.00  0.00    -0.216 N 
ATOM     24  H   UNL     1      -5.332   2.207   2.813  0.00  0.00    +0.151 HD
ATOM     25  H   UNL     1      -7.736   1.197   0.491  0.00  0.00    +0.172 HD
BRANCH  20  27
ATOM     26  C   UNL     1      -6.955   2.483   5.331  0.00  0.00    +0.027 C 
ATOM     27  C   UNL     1      -6.485   3.363   4.171  0.00  0.00    +0.068 C 
ATOM     28  C   UNL     1      -5.198   4.088   4.571  0.00  0.00    +0.027 C 
ENDBRANCH  20  27
ENDBRANCH  18  23
ENDBRANCH   1  18
TORSDOF 6
