REMARK  Name = ZINC10812108
REMARK  9 active torsions:
REMARK  status: ('A' for Active; 'I' for Inactive)
REMARK    1  A    between atoms: C_1  and  C_2
REMARK    2  A    between atoms: C_2  and  C_33
REMARK    3  A    between atoms: C_5  and  C_31
REMARK    4  A    between atoms: C_6  and  N_12
REMARK    5  A    between atoms: C_9  and  C_10
REMARK    6  A    between atoms: C_9  and  C_11
REMARK    7  A    between atoms: C_13  and  C_15
REMARK    8  A    between atoms: N_21  and  S_22
REMARK    9  A    between atoms: S_22  and  C_25
REMARK                            x       y       z     vdW  Elec       q    Type
REMARK                         _______ _______ _______ _____ _____    ______ ____
ROOT
ATOM      1  N   UNL     1       3.063   6.568   0.208  0.00  0.00    -0.278 N 
ATOM      2  C   UNL     1       4.332   6.672   0.650  0.00  0.00    +0.236 C 
ATOM      3  O   UNL     1       4.779   5.841   1.411  0.00  0.00    -0.274 OA
ATOM      4  H   UNL     1       2.706   7.233  -0.401  0.00  0.00    +0.155 HD
ENDROOT
BRANCH   1  10
ATOM      5  C   UNL     1      -0.232   1.450  -0.453  0.00  0.00    -0.010 C 
ATOM      6  C   UNL     1      -1.051   2.028   0.704  0.00  0.00    -0.069 C 
ATOM      7  C   UNL     1      -1.071   3.557   0.595  0.00  0.00    +0.024 C 
ATOM      8  C   UNL     1       0.346   4.053   0.854  0.00  0.00    -0.021 A 
ATOM      9  C   UNL     1       0.950   5.236   0.281  0.00  0.00    +0.084 A 
ATOM     10  C   UNL     1       2.268   5.510   0.624  0.00  0.00    +0.090 A 
ATOM     11  S   UNL     1       2.676   4.213   1.698  0.00  0.00    -0.078 S 
ATOM     12  C   UNL     1       1.138   3.338   1.687  0.00  0.00    -0.015 A 
ATOM     13  C   UNL     1       0.764   2.091   2.419  0.00  0.00    -0.041 C 
ATOM     14  C   UNL     1       0.699   2.412   3.924  0.00  0.00    -0.005 C 
ATOM     15  C   UNL     1       1.853   1.030   2.208  0.00  0.00    -0.005 C 
ATOM     16  C   UNL     1      -2.499   1.525   0.556  0.00  0.00    -0.010 C 
ATOM     17  N   UNL     1      -0.564   1.541   2.021  0.00  0.00    +0.389 N 
ATOM     18  H   UNL     1      -0.490   0.518   1.979  0.00  0.00    -0.084 HD
ATOM     19  H   UNL     1      -1.251   1.806   2.736  0.00  0.00    -0.084 HD
BRANCH   9  20
ATOM     20  C   UNL     1       0.228   6.101  -0.603  0.00  0.00    +0.102 C 
ATOM     21  N   UNL     1      -0.345   6.787  -1.304  0.00  0.00    -0.191 NA
ENDBRANCH   9  20
ENDBRANCH   1  10
BRANCH   2  22
ATOM     22  C   UNL     1       5.196   7.821   0.198  0.00  0.00    +0.166 C 
ATOM     23  C   UNL     1       5.591   8.674   1.407  0.00  0.00    +0.030 C 
ATOM     24  C   UNL     1       6.578   9.756   0.964  0.00  0.00    +0.003 C 
ATOM     25  C   UNL     1       7.841   9.097   0.404  0.00  0.00    +0.017 C 
ATOM     26  C   UNL     1       7.472   8.249  -0.817  0.00  0.00    +0.110 C 
ATOM     27  N   UNL     1       6.415   7.302  -0.436  0.00  0.00    -0.164 NA
BRANCH  27  28
ATOM     28  S   UNL     1       6.597   5.679  -0.713  0.00  0.00    +0.068 S 
ATOM     29  O   UNL     1       5.289   5.126  -0.759  0.00  0.00    -0.152 OA
ATOM     30  O   UNL     1       7.517   5.550  -1.788  0.00  0.00    -0.152 OA
BRANCH  28  31
ATOM     31  C   UNL     1       7.383   4.994   0.708  0.00  0.00    +0.144 A 
ATOM     32  C   UNL     1       6.828   4.350   1.763  0.00  0.00    +0.038 A 
ATOM     33  C   UNL     1       7.649   3.887   2.774  0.00  0.00    +0.030 A 
ATOM     34  C   UNL     1       8.986   4.103   2.685  0.00  0.00    +0.080 A 
ATOM     35  S   UNL     1       9.117   4.975   1.133  0.00  0.00    -0.057 S 
ATOM     36 CL   UNL     1      10.242   3.647   3.793  0.00  0.00    -0.076 Cl
ENDBRANCH  28  31
ENDBRANCH  27  28
ENDBRANCH   2  22
TORSDOF 5
