REMARK  Name = ZINC32073963
REMARK  6 active torsions:
REMARK  status: ('A' for Active; 'I' for Inactive)
REMARK    1  A    between atoms: C_10  and  C_15
REMARK    2  A    between atoms: C_12  and  O_14
REMARK    3  A    between atoms: C_15  and  C_16
REMARK    4  A    between atoms: N_18  and  C_19
REMARK    5  A    between atoms: C_19  and  C_20
REMARK    6  A    between atoms: C_20  and  C_21
REMARK                            x       y       z     vdW  Elec       q    Type
REMARK                         _______ _______ _______ _____ _____    ______ ____
ROOT
ATOM      1  C   UNL     1      -0.017   1.371   0.010  0.00  0.00    +0.001 A 
ATOM      2  C   UNL     1       1.172   2.085   0.002  0.00  0.00    +0.002 A 
ATOM      3  C   UNL     1       2.377   1.423  -0.007  0.00  0.00    +0.028 A 
ATOM      4  C   UNL     1       2.421   0.020  -0.009  0.00  0.00    +0.079 A 
ATOM      5  C   UNL     1       1.221  -0.701  -0.013  0.00  0.00    +0.062 A 
ATOM      6  C   UNL     1       0.002  -0.004   0.002  0.00  0.00    +0.015 A 
ATOM      7  C   UNL     1       1.167  -2.167  -0.044  0.00  0.00    +0.247 C 
ATOM      8  O   UNL     1       0.324  -2.722   0.635  0.00  0.00    -0.270 OA
ATOM      9  N   UNL     1       1.988  -2.928  -0.772  0.00  0.00    -0.299 N 
ATOM     10  C   UNL     1       3.046  -2.328  -1.586  0.00  0.00    +0.167 C 
ATOM     11  C   UNL     1       3.995  -1.594  -0.680  0.00  0.00    +0.209 C 
ATOM     12  N   UNL     1       3.647  -0.566  -0.002  0.00  0.00    -0.215 NA
ATOM     13  H   UNL     1       1.881  -3.892  -0.761  0.00  0.00    +0.150 HD
ENDROOT
BRANCH  11  14
ATOM     14  O   UNL     1       5.263  -2.037  -0.579  0.00  0.00    -0.494 OA
ATOM     15  H   UNL     1       5.815  -1.516   0.021  0.00  0.00    +0.293 HD
ENDBRANCH  11  14
BRANCH  10  16
ATOM     16  C   UNL     1       2.429  -1.350  -2.588  0.00  0.00    +0.127 C 
BRANCH  16  17
ATOM     17  C   UNL     1       1.562  -2.107  -3.560  0.00  0.00    +0.215 C 
ATOM     18  O   UNL     1       1.447  -3.310  -3.461  0.00  0.00    -0.276 OA
ATOM     19  N   UNL     1       0.912  -1.447  -4.540  0.00  0.00    -0.315 N 
ATOM     20  H   UNL     1       1.004  -0.485  -4.619  0.00  0.00    +0.149 HD
BRANCH  19  21
ATOM     21  C   UNL     1       0.069  -2.183  -5.485  0.00  0.00    +0.108 C 
BRANCH  21  22
ATOM     22  C   UNL     1      -0.547  -1.205  -6.487  0.00  0.00    +0.049 C 
BRANCH  22  23
ATOM     23  C   UNL     1      -1.415  -1.963  -7.459  0.00  0.00    -0.072 C 
ATOM     24  C   UNL     1      -2.683  -2.036  -7.211  0.00  0.00    -0.028 C 
ATOM     25  C   UNL     1      -3.669  -2.763  -8.078  0.00  0.00    +0.027 C 
ATOM     26  C   UNL     1      -3.066  -3.019  -9.461  0.00  0.00    +0.004 C 
ATOM     27  C   UNL     1      -1.675  -3.638  -9.276  0.00  0.00    +0.005 C 
ATOM     28  C   UNL     1      -0.756  -2.579  -8.658  0.00  0.00    +0.030 C 
ENDBRANCH  22  23
ENDBRANCH  21  22
ENDBRANCH  19  21
ENDBRANCH  16  17
ENDBRANCH  10  16
TORSDOF 6
