REMARK  Name = ZINC24144520
REMARK  10 active torsions:
REMARK  status: ('A' for Active; 'I' for Inactive)
REMARK    1  A    between atoms: C_1  and  C_2
REMARK    2  A    between atoms: C_2  and  C_3
REMARK    3  A    between atoms: C_3  and  C_29
REMARK    4  A    between atoms: N_6  and  N_10
REMARK    5  A    between atoms: C_11  and  C_13
REMARK    6  A    between atoms: C_13  and  S_14
REMARK    7  A    between atoms: S_14  and  C_15
REMARK    8  A    between atoms: C_18  and  C_22
REMARK    9  A    between atoms: N_19  and  C_20
REMARK   10  A    between atoms: C_20  and  C_21
REMARK                            x       y       z     vdW  Elec       q    Type
REMARK                         _______ _______ _______ _____ _____    ______ ____
ROOT
ATOM      1  N   UNL     1       5.018   4.755   4.449  0.00  0.00    -0.223 N 
ATOM      2  C   UNL     1       4.000   4.473   3.612  0.00  0.00    +0.240 C 
ATOM      3  O   UNL     1       3.764   5.205   2.674  0.00  0.00    -0.273 OA
ATOM      4  H   UNL     1       5.232   4.091   5.299  0.00  0.00    +0.174 HD
ENDROOT
BRANCH   1   8
ATOM      5  C   UNL     1       6.750   7.968   4.382  0.00  0.00    +0.139 C 
ATOM      6  C   UNL     1       5.722   7.021   4.968  0.00  0.00    +0.268 C 
ATOM      7  O   UNL     1       4.979   7.233   5.902  0.00  0.00    -0.271 OA
ATOM      8  N   UNL     1       5.806   5.894   4.234  0.00  0.00    -0.137 N 
ATOM      9  C   UNL     1       6.737   5.994   3.279  0.00  0.00    +0.327 C 
ATOM     10  O   UNL     1       6.998   5.105   2.493  0.00  0.00    -0.251 OA
ATOM     11  N   UNL     1       7.350   7.192   3.283  0.00  0.00    -0.280 N 
ATOM     12  H   UNL     1       8.142   7.638   2.663  0.00  0.00    +0.152 HD
BRANCH   5  13
ATOM     13  C   UNL     1       7.791   8.325   5.412  0.00  0.00    -0.015 A 
ATOM     14  C   UNL     1       7.614   9.434   6.218  0.00  0.00    +0.006 A 
ATOM     15  C   UNL     1       8.566   9.758   7.166  0.00  0.00    +0.000 A 
ATOM     16  C   UNL     1       9.700   8.979   7.302  0.00  0.00    +0.000 A 
ATOM     17  C   UNL     1       9.879   7.873   6.493  0.00  0.00    +0.000 A 
ATOM     18  C   UNL     1       8.925   7.546   5.548  0.00  0.00    +0.006 A 
ENDBRANCH   5  13
BRANCH   5  20
ATOM     19  C   UNL     1       5.061   8.845   2.763  0.00  0.00    +0.007 C 
ATOM     20  C   UNL     1       6.074   9.230   3.844  0.00  0.00    +0.037 C 
ENDBRANCH   5  20
ENDBRANCH   1   8
BRANCH   2  21
ATOM     21  C   UNL     1       3.153   3.248   3.843  0.00  0.00    +0.174 C 
BRANCH  21  22
ATOM     22  S   UNL     1       1.878   3.146   2.562  0.00  0.00    -0.077 S 
BRANCH  22  23
ATOM     23  C   UNL     1       1.060   1.667   3.061  0.00  0.00    +0.192 A 
ATOM     24  N   UNL     1       1.369   0.916   4.095  0.00  0.00    -0.122 NA
ATOM     25  N   UNL     1       0.568  -0.087   4.167  0.00  0.00    -0.128 NA
ATOM     26  C   UNL     1      -0.304  -0.035   3.188  0.00  0.00    +0.165 A 
ATOM     27  N   UNL     1      -0.012   1.087   2.446  0.00  0.00    -0.302 N 
BRANCH  26  28
ATOM     28  C   UNL     1      -1.392  -1.001   2.928  0.00  0.00    +0.021 A 
ATOM     29  C   UNL     1      -1.981  -1.070   1.664  0.00  0.00    +0.011 A 
ATOM     30  C   UNL     1      -2.996  -1.974   1.428  0.00  0.00    +0.002 A 
ATOM     31  C   UNL     1      -3.430  -2.812   2.440  0.00  0.00    +0.020 A 
ATOM     32  C   UNL     1      -2.851  -2.749   3.695  0.00  0.00    +0.042 A 
ATOM     33  C   UNL     1      -1.830  -1.852   3.943  0.00  0.00    +0.031 A 
ATOM     34 CL   UNL     1      -3.403  -3.804   4.959  0.00  0.00    -0.084 Cl
ENDBRANCH  26  28
BRANCH  27  35
ATOM     35  C   UNL     1      -0.710   1.563   1.249  0.00  0.00    +0.122 C 
ATOM     36  C   UNL     1      -0.014   1.016   0.001  0.00  0.00    +0.027 C 
ENDBRANCH  27  35
ENDBRANCH  22  23
ENDBRANCH  21  22
ENDBRANCH   2  21
TORSDOF 8
