REMARK  Name = ZINC21811100
REMARK  10 active torsions:
REMARK  status: ('A' for Active; 'I' for Inactive)
REMARK    1  A    between atoms: C_1  and  C_2
REMARK    2  A    between atoms: C_2  and  C_3
REMARK    3  A    between atoms: N_9  and  C_10
REMARK    4  A    between atoms: C_10  and  C_11
REMARK    5  A    between atoms: C_11  and  C_12
REMARK    6  A    between atoms: C_12  and  N_13
REMARK    7  A    between atoms: C_22  and  C_23
REMARK    8  A    between atoms: C_22  and  C_24
REMARK    9  A    between atoms: N_26  and  C_27
REMARK   10  A    between atoms: C_30  and  C_33
REMARK                            x       y       z     vdW  Elec       q    Type
REMARK                         _______ _______ _______ _____ _____    ______ ____
ROOT
ATOM      1  N   UNL     1      -1.390   0.413   3.640  0.00  0.00    -0.281 N 
ATOM      2  C   UNL     1      -2.427  -0.438   3.822  0.00  0.00    +0.264 C 
ATOM      3  O   UNL     1      -2.527  -1.472   3.189  0.00  0.00    -0.268 OA
ATOM      4  C   UNL     1      -3.426  -0.046   4.825  0.00  0.00    +0.109 A 
ATOM      5  C   UNL     1      -4.467  -0.744   5.360  0.00  0.00    +0.079 A 
ATOM      6  C   UNL     1      -5.101   0.093   6.291  0.00  0.00    +0.153 A 
ATOM      7  C   UNL     1      -4.418   1.309   6.300  0.00  0.00    +0.088 A 
ATOM      8  N   UNL     1      -3.403   1.225   5.395  0.00  0.00    -0.331 N 
ATOM      9  C   UNL     1      -2.412   2.229   4.995  0.00  0.00    +0.157 C 
ATOM     10  C   UNL     1      -1.128   1.518   4.555  0.00  0.00    +0.128 C 
ATOM     11  C   UNL     1      -0.216   2.530   3.859  0.00  0.00    +0.043 C 
ATOM     12  C   UNL     1      -5.075   2.122   7.254  0.00  0.00    +0.067 A 
ATOM     13  C   UNL     1      -6.089   1.400   7.762  0.00  0.00    +0.198 A 
ATOM     14  O   UNL     1      -6.108   0.187   7.186  0.00  0.00    -0.461 OA
ENDROOT
BRANCH  10  15
ATOM     15  C   UNL     1      -0.419   0.984   5.773  0.00  0.00    +0.238 C 
ATOM     16  O   UNL     1       0.422   1.658   6.328  0.00  0.00    -0.273 OA
ATOM     17  N   UNL     1      -0.721  -0.242   6.245  0.00  0.00    -0.311 N 
ATOM     18  H   UNL     1      -1.484  -0.853   5.741  0.00  0.00    +0.149 HD
BRANCH  17  19
ATOM     19  C   UNL     1      -0.031  -0.761   7.428  0.00  0.00    +0.073 C 
ATOM     20  C   UNL     1       1.290  -1.408   7.007  0.00  0.00    +0.022 C 
ATOM     21  C   UNL     1       2.009  -1.950   8.243  0.00  0.00    +0.005 C 
ATOM     22  C   UNL     1       1.127  -2.994   8.931  0.00  0.00    -0.014 C 
ATOM     23  C   UNL     1      -0.194  -2.346   9.352  0.00  0.00    +0.005 C 
ATOM     24  C   UNL     1      -0.914  -1.804   8.116  0.00  0.00    +0.022 C 
ATOM     25  C   UNL     1       1.847  -3.536  10.167  0.00  0.00    +0.007 C 
ENDBRANCH  17  19
ENDBRANCH  10  15
BRANCH   1  26
ATOM     26  C   UNL     1      -0.501   0.214   2.493  0.00  0.00    +0.107 C 
BRANCH  26  27
ATOM     27  C   UNL     1      -1.034   1.000   1.293  0.00  0.00    +0.000 C 
BRANCH  27  28
ATOM     28  C   UNL     1      -0.105   0.793   0.095  0.00  0.00    -0.077 C 
BRANCH  28  34
ATOM     29  C   UNL     1       0.303   1.453  -2.198  0.00  0.00    -0.069 C 
ATOM     30  C   UNL     1      -0.327   2.125  -3.420  0.00  0.00    -0.015 C 
ATOM     31  C   UNL     1      -0.619   3.593  -3.095  0.00  0.00    -0.003 C 
ATOM     32  C   UNL     1      -1.541   3.663  -1.875  0.00  0.00    -0.019 C 
ATOM     33  C   UNL     1      -0.875   2.947  -0.697  0.00  0.00    -0.078 C 
ATOM     34  N   UNL     1      -0.617   1.547  -1.058  0.00  0.00    +0.382 N 
ATOM     35  H   UNL     1      -1.574   1.097  -1.361  0.00  0.00    -0.081 HD
BRANCH  29  37
ATOM     36  C   UNL     1       1.637  -0.117  -3.612  0.00  0.00    +0.002 C 
ATOM     37  C   UNL     1       0.579  -0.019  -2.511  0.00  0.00    -0.019 C 
ENDBRANCH  29  37
ENDBRANCH  28  34
ENDBRANCH  27  28
ENDBRANCH  26  27
ENDBRANCH   1  26
TORSDOF 7
