REMARK  Name = ZINC03400086
REMARK  7 active torsions:
REMARK  status: ('A' for Active; 'I' for Inactive)
REMARK    1  A    between atoms: C_1  and  C_2
REMARK    2  A    between atoms: C_2  and  C_4
REMARK    3  A    between atoms: C_2  and  S_6
REMARK    4  A    between atoms: S_6  and  C_7
REMARK    5  A    between atoms: C_10  and  C_15
REMARK    6  A    between atoms: N_11  and  C_12
REMARK    7  A    between atoms: C_12  and  C_13
REMARK                            x       y       z     vdW  Elec       q    Type
REMARK                         _______ _______ _______ _____ _____    ______ ____
ROOT
ATOM      1  C   UNL     1      -2.798   0.641   1.655  0.00  0.00    +0.193 A 
ATOM      2  N   UNL     1      -3.177   0.834   2.898  0.00  0.00    -0.122 NA
ATOM      3  N   UNL     1      -2.637   1.904   3.363  0.00  0.00    -0.128 NA
ATOM      4  C   UNL     1      -1.875   2.455   2.447  0.00  0.00    +0.165 A 
ATOM      5  N   UNL     1      -1.952   1.662   1.326  0.00  0.00    -0.298 N 
ENDROOT
BRANCH   4   6
ATOM      6  C   UNL     1      -1.084   3.696   2.593  0.00  0.00    +0.019 A 
ATOM      7  C   UNL     1      -0.028   3.960   1.719  0.00  0.00    +0.013 A 
ATOM      8  C   UNL     1       0.703   5.122   1.857  0.00  0.00    +0.021 A 
ATOM      9  C   UNL     1       0.397   6.020   2.866  0.00  0.00    +0.041 A 
ATOM     10  C   UNL     1      -0.646   5.761   3.739  0.00  0.00    +0.021 A 
ATOM     11  C   UNL     1      -1.387   4.605   3.608  0.00  0.00    +0.013 A 
ATOM     12 CL   UNL     1       1.326   7.476   3.037  0.00  0.00    -0.084 Cl
ENDBRANCH   4   6
BRANCH   1  13
ATOM     13  S   UNL     1      -3.286  -0.690   0.608  0.00  0.00    -0.068 S 
BRANCH  13  15
ATOM     14  C   UNL     1      -3.566  -2.136   2.909  0.00  0.00    +0.035 C 
ATOM     15  C   UNL     1      -4.380  -1.590   1.734  0.00  0.00    +0.153 C 
BRANCH  15  16
ATOM     16  C   UNL     1      -5.013  -2.708   1.015  0.00  0.00    +0.077 C 
ATOM     17  N   UNL     1      -5.501  -3.571   0.460  0.00  0.00    -0.195 NA
ENDBRANCH  15  16
ENDBRANCH  13  15
ENDBRANCH   1  13
BRANCH   5  18
ATOM     18  C   UNL     1      -1.274   1.871   0.045  0.00  0.00    +0.152 C 
BRANCH  18  19
ATOM     19  C   UNL     1       0.034   1.122   0.040  0.00  0.00    -0.013 C 
ATOM     20  C   UNL     1       1.148   1.751  -0.239  0.00  0.00    +0.005 C 
ENDBRANCH  18  19
ENDBRANCH   5  18
TORSDOF 6
