REMARK  Name = ZINC12321602
REMARK  5 active torsions:
REMARK  status: ('A' for Active; 'I' for Inactive)
REMARK    1  A    between atoms: C_4  and  N_7
REMARK    2  A    between atoms: C_17  and  S_19
REMARK    3  A    between atoms: S_19  and  C_20
REMARK    4  A    between atoms: C_20  and  C_21
REMARK    5  A    between atoms: N_23  and  C_24
REMARK                            x       y       z     vdW  Elec       q    Type
REMARK                         _______ _______ _______ _____ _____    ______ ____
ROOT
ATOM      1  N   UNL     1       3.188  -1.057   3.112  0.00  0.00    -0.214 N 
ATOM      2  C   UNL     1       2.062  -0.298   3.236  0.00  0.00    +0.169 A 
ATOM      3  C   UNL     1       1.836  -0.141   4.610  0.00  0.00    +0.077 A 
ATOM      4  C   UNL     1       2.859  -0.828   5.286  0.00  0.00    +0.148 A 
ATOM      5  N   UNL     1       3.651  -1.365   4.398  0.00  0.00    -0.172 NA
ATOM      6  C   UNL     1       0.670   0.647   5.037  0.00  0.00    +0.113 C 
ATOM      7  C   UNL     1      -0.717   1.594   6.781  0.00  0.00    +0.115 C 
ATOM      8  C   UNL     1      -1.849   1.515   5.751  0.00  0.00    +0.040 C 
ATOM      9  C   UNL     1      -1.305   1.986   4.397  0.00  0.00    +0.116 C 
ATOM     10  N   UNL     1      -0.128   1.186   4.050  0.00  0.00    -0.266 N 
ATOM     11  C   UNL     1       0.182   0.971   2.735  0.00  0.00    +0.164 C 
ATOM     12  N   UNL     1       1.218   0.263   2.358  0.00  0.00    -0.206 NA
ATOM     13  N   UNL     1       0.478   0.777   6.362  0.00  0.00    -0.372 N 
ATOM     14  H   UNL     1       1.109   0.345   7.047  0.00  0.00    +0.161 HD
ENDROOT
BRANCH   1  18
ATOM     15  C   UNL     1       4.946  -2.256  -0.471  0.00  0.00    +0.000 A 
ATOM     16  C   UNL     1       5.740  -1.958   0.622  0.00  0.00    +0.002 A 
ATOM     17  C   UNL     1       5.160  -1.561   1.811  0.00  0.00    +0.028 A 
ATOM     18  C   UNL     1       3.779  -1.460   1.908  0.00  0.00    +0.068 A 
ATOM     19  C   UNL     1       2.984  -1.766   0.811  0.00  0.00    +0.028 A 
ATOM     20  C   UNL     1       3.570  -2.157  -0.377  0.00  0.00    +0.002 A 
ENDBRANCH   1  18
BRANCH  11  21
ATOM     21  S   UNL     1      -0.858   1.671   1.497  0.00  0.00    -0.081 S 
BRANCH  21  22
ATOM     22  C   UNL     1      -0.009   1.091   0.008  0.00  0.00    +0.173 C 
BRANCH  22  23
ATOM     23  C   UNL     1      -0.743   1.583  -1.213  0.00  0.00    +0.227 C 
ATOM     24  O   UNL     1      -1.742   2.260  -1.088  0.00  0.00    -0.275 OA
ATOM     25  N   UNL     1      -0.288   1.272  -2.443  0.00  0.00    -0.285 N 
ATOM     26  H   UNL     1       0.546   0.789  -2.544  0.00  0.00    +0.155 HD
BRANCH  25  27
ATOM     27  C   UNL     1      -1.022   1.647  -3.575  0.00  0.00    +0.033 A 
ATOM     28  C   UNL     1      -1.045   0.822  -4.692  0.00  0.00    +0.025 A 
ATOM     29  C   UNL     1      -1.773   1.192  -5.806  0.00  0.00    +0.022 A 
ATOM     30  C   UNL     1      -2.471   2.387  -5.813  0.00  0.00    +0.041 A 
ATOM     31  C   UNL     1      -2.445   3.212  -4.703  0.00  0.00    +0.022 A 
ATOM     32  C   UNL     1      -1.723   2.845  -3.585  0.00  0.00    +0.025 A 
ATOM     33 CL   UNL     1      -3.380   2.851  -7.217  0.00  0.00    -0.084 Cl
ENDBRANCH  25  27
ENDBRANCH  22  23
ENDBRANCH  21  22
ENDBRANCH  11  21
TORSDOF 5
