REMARK  Name = ZINC12322198
REMARK  5 active torsions:
REMARK  status: ('A' for Active; 'I' for Inactive)
REMARK    1  A    between atoms: C_1  and  N_2
REMARK    2  A    between atoms: C_4  and  C_16
REMARK    3  A    between atoms: C_5  and  C_10
REMARK    4  A    between atoms: N_21  and  N_22
REMARK    5  A    between atoms: C_23  and  C_24
REMARK                            x       y       z     vdW  Elec       q    Type
REMARK                         _______ _______ _______ _____ _____    ______ ____
ROOT
ATOM      1  C   UNL     1      -1.991  -4.269  -0.002  0.00  0.00    +0.080 A 
ATOM      2  C   UNL     1      -0.707  -4.746  -0.017  0.00  0.00    +0.076 A 
ATOM      3  S   UNL     1       0.217  -3.216  -0.017  0.00  0.00    -0.059 S 
ATOM      4  C   UNL     1      -1.183  -2.105   0.002  0.00  0.00    +0.178 A 
ATOM      5  N   UNL     1      -2.195  -2.954   0.013  0.00  0.00    -0.224 NA
ATOM      6  N   UNL     1      -1.202  -0.721   0.010  0.00  0.00    -0.215 N 
ATOM      7  H   UNL     1      -2.048  -0.247   0.020  0.00  0.00    +0.176 HD
ENDROOT
BRANCH   1  11
ATOM      8  C   UNL     1      -3.739  -8.841  -0.008  0.00  0.00    +0.139 C 
ATOM      9  N   UNL     1      -4.016  -7.403   0.001  0.00  0.00    -0.265 N 
ATOM     10  C   UNL     1      -2.944  -6.527  -0.005  0.00  0.00    +0.087 C 
ATOM     11  C   UNL     1      -3.135  -5.203   0.004  0.00  0.00    +0.017 C 
ATOM     12  C   UNL     1      -4.560  -4.692   0.026  0.00  0.00    +0.138 C 
ATOM     13  N   UNL     1      -5.635  -5.698   0.024  0.00  0.00    -0.288 N 
ATOM     14  C   UNL     1      -5.295  -7.003   0.015  0.00  0.00    +0.307 C 
ATOM     15  O   UNL     1      -6.175  -7.841   0.018  0.00  0.00    -0.252 OA
ATOM     16  H   UNL     1      -6.566  -5.429   0.034  0.00  0.00    +0.151 HD
BRANCH  12  17
ATOM     17  C   UNL     1      -4.725  -3.833   1.252  0.00  0.00    -0.023 A 
ATOM     18  C   UNL     1      -4.938  -4.421   2.485  0.00  0.00    +0.006 A 
ATOM     19  C   UNL     1      -5.085  -3.632   3.611  0.00  0.00    +0.000 A 
ATOM     20  C   UNL     1      -5.029  -2.255   3.503  0.00  0.00    +0.000 A 
ATOM     21  C   UNL     1      -4.821  -1.667   2.269  0.00  0.00    +0.000 A 
ATOM     22  C   UNL     1      -4.669  -2.456   1.144  0.00  0.00    +0.006 A 
ENDBRANCH  12  17
ENDBRANCH   1  11
BRANCH   6  23
ATOM     23  N   UNL     1       0.002  -0.004   0.002  0.00  0.00    -0.188 NA
ATOM     24  C   UNL     1      -0.015   1.294   0.009  0.00  0.00    +0.138 C 
BRANCH  24  25
ATOM     25  C   UNL     1       1.251   2.049   0.001  0.00  0.00    -0.005 A 
ATOM     26  C   UNL     1       2.472   1.370  -0.008  0.00  0.00    +0.011 A 
ATOM     27  C   UNL     1       3.653   2.082  -0.022  0.00  0.00    +0.020 A 
ATOM     28  C   UNL     1       3.631   3.466  -0.014  0.00  0.00    +0.041 A 
ATOM     29  C   UNL     1       2.424   4.145   0.001  0.00  0.00    +0.020 A 
ATOM     30  C   UNL     1       1.236   3.446   0.009  0.00  0.00    +0.011 A 
ATOM     31 CL   UNL     1       5.122   4.355  -0.024  0.00  0.00    -0.084 Cl
ENDBRANCH  24  25
ENDBRANCH   6  23
TORSDOF 4
