REMARK  Name = ZINC37787173
REMARK  5 active torsions:
REMARK  status: ('A' for Active; 'I' for Inactive)
REMARK    1  A    between atoms: C_1  and  N_2
REMARK    2  A    between atoms: C_3  and  C_5
REMARK    3  A    between atoms: C_5  and  N_6
REMARK    4  A    between atoms: C_8  and  N_11
REMARK    5  A    between atoms: N_11  and  C_12
REMARK                            x       y       z     vdW  Elec       q    Type
REMARK                         _______ _______ _______ _____ _____    ______ ____
ROOT
ATOM      1  N   UNL     1       3.731  -4.487  -4.053  0.00  0.00    -0.339 N 
ATOM      2  H   UNL     1       4.290  -4.979  -3.431  0.00  0.00    +0.146 HD
ENDROOT
BRANCH   1   3
ATOM      3  C   UNL     1       3.974  -4.588  -5.494  0.00  0.00    +0.071 C 
ATOM      4  C   UNL     1       4.863  -3.427  -5.944  0.00  0.00    +0.022 C 
ATOM      5  C   UNL     1       6.196  -3.486  -5.196  0.00  0.00    +0.005 C 
ATOM      6  C   UNL     1       6.895  -4.812  -5.503  0.00  0.00    -0.008 C 
ATOM      7  C   UNL     1       8.229  -4.871  -4.755  0.00  0.00    +0.004 C 
ATOM      8  C   UNL     1       8.927  -6.197  -5.063  0.00  0.00    +0.000 C 
ATOM      9  C   UNL     1       8.038  -7.359  -4.613  0.00  0.00    +0.000 C 
ATOM     10  C   UNL     1       6.705  -7.299  -5.361  0.00  0.00    +0.004 C 
ATOM     11  C   UNL     1       6.006  -5.973  -5.054  0.00  0.00    -0.006 C 
ATOM     12  C   UNL     1       4.673  -5.914  -5.802  0.00  0.00    +0.026 C 
ENDBRANCH   1   3
BRANCH   1  15
ATOM     13  N   UNL     1       1.291  -2.644  -2.232  0.00  0.00    -0.261 N 
ATOM     14  C   UNL     1       2.351  -3.495  -2.268  0.00  0.00    +0.131 A 
ATOM     15  C   UNL     1       2.685  -3.677  -3.571  0.00  0.00    +0.065 A 
ATOM     16  C   UNL     1       1.803  -2.916  -4.351  0.00  0.00    +0.157 A 
ATOM     17  N   UNL     1       0.968  -2.304  -3.551  0.00  0.00    -0.177 NA
BRANCH  13  18
ATOM     18  C   UNL     1       0.606  -2.171  -1.026  0.00  0.00    +0.239 C 
BRANCH  18  21
ATOM     19  C   UNL     1      -0.018   1.461   0.010  0.00  0.00    +0.128 C 
ATOM     20  N   UNL     1       0.002  -0.004   0.002  0.00  0.00    -0.317 N 
ATOM     21  C   UNL     1       0.585  -0.664  -1.018  0.00  0.00    +0.234 C 
ATOM     22  O   UNL     1       1.093  -0.046  -1.929  0.00  0.00    -0.274 OA
ATOM     23  H   UNL     1      -0.404  -0.499   0.731  0.00  0.00    +0.148 HD
ENDBRANCH  18  21
ENDBRANCH  13  18
ENDBRANCH   1  15
TORSDOF 4
