REMARK  Name = ZINC25039974
REMARK  7 active torsions:
REMARK  status: ('A' for Active; 'I' for Inactive)
REMARK    1  A    between atoms: C_1  and  C_2
REMARK    2  A    between atoms: C_2  and  C_3
REMARK    3  A    between atoms: C_3  and  C_4
REMARK    4  A    between atoms: C_8  and  S_10
REMARK    5  A    between atoms: S_10  and  C_11
REMARK    6  A    between atoms: C_11  and  C_12
REMARK    7  A    between atoms: N_14  and  C_15
REMARK                            x       y       z     vdW  Elec       q    Type
REMARK                         _______ _______ _______ _____ _____    ______ ____
ROOT
ATOM      1  C   UNL     1      -0.967  -4.047  -5.337  0.00  0.00    +0.227 C 
ATOM      2  O   UNL     1      -0.930  -5.248  -5.499  0.00  0.00    -0.275 OA
ATOM      3  N   UNL     1      -0.897  -3.221  -6.400  0.00  0.00    -0.285 N 
ATOM      4  H   UNL     1      -0.995  -2.264  -6.277  0.00  0.00    +0.155 HD
ENDROOT
BRANCH   3   5
ATOM      5  C   UNL     1      -0.684  -3.745  -7.681  0.00  0.00    +0.037 A 
ATOM      6  C   UNL     1       0.082  -3.041  -8.601  0.00  0.00    +0.027 A 
ATOM      7  C   UNL     1       0.294  -3.556  -9.865  0.00  0.00    +0.051 A 
ATOM      8  C   UNL     1      -0.256  -4.777 -10.219  0.00  0.00    +0.167 A 
ATOM      9  C   UNL     1      -1.026  -5.486  -9.299  0.00  0.00    +0.169 A 
ATOM     10  C   UNL     1      -1.234  -4.971  -8.030  0.00  0.00    +0.072 A 
ATOM     11  O   UNL     1      -1.449  -6.647  -9.883  0.00  0.00    -0.447 OA
ATOM     12  C   UNL     1      -1.243  -6.462 -11.286  0.00  0.00    +0.254 C 
ATOM     13  O   UNL     1      -0.196  -5.493 -11.383  0.00  0.00    -0.448 OA
ATOM     14  C   UNL     1      -2.522  -5.961 -11.970  0.00  0.00    +0.093 C 
ATOM     15  C   UNL     1      -2.496  -6.641 -13.363  0.00  0.00    +0.008 C 
ATOM     16  C   UNL     1      -1.912  -8.043 -13.051  0.00  0.00    +0.008 C 
ATOM     17  C   UNL     1      -0.846  -7.776 -11.965  0.00  0.00    +0.093 C 
ENDBRANCH   3   5
BRANCH   1  18
ATOM     18  C   UNL     1      -1.092  -3.478  -3.947  0.00  0.00    +0.173 C 
BRANCH  18  19
ATOM     19  S   UNL     1      -1.163  -4.833  -2.743  0.00  0.00    -0.078 S 
BRANCH  19  24
ATOM     20  C   UNL     1      -1.443  -2.040   0.002  0.00  0.00    +0.049 A 
ATOM     21  C   UNL     1      -1.525  -2.729   1.178  0.00  0.00    +0.093 A 
ATOM     22  C   UNL     1      -1.494  -4.134   1.146  0.00  0.00    +0.252 A 
ATOM     23  N   UNL     1      -1.385  -4.754  -0.048  0.00  0.00    -0.302 N 
ATOM     24  C   UNL     1      -1.307  -4.015  -1.189  0.00  0.00    +0.170 A 
ATOM     25  N   UNL     1      -1.341  -2.697  -1.151  0.00  0.00    -0.228 NA
ATOM     26  O   UNL     1      -1.565  -4.781   2.178  0.00  0.00    -0.268 OA
ATOM     27  H   UNL     1      -1.362  -5.723  -0.093  0.00  0.00    +0.171 HD
BRANCH  20  28
ATOM     28  C   UNL     1      -1.474  -0.534   0.009  0.00  0.00    +0.055 C 
BRANCH  28  30
ATOM     29  C   UNL     1      -0.073   1.535   0.011  0.00  0.00    +0.004 C 
ATOM     30  C   UNL     1      -0.042   0.006   0.003  0.00  0.00    +0.003 C 
ENDBRANCH  28  30
ENDBRANCH  20  28
ENDBRANCH  19  24
ENDBRANCH  18  19
ENDBRANCH   1  18
TORSDOF 6
