REMARK  Name = ZINC03653305
REMARK  5 active torsions:
REMARK  status: ('A' for Active; 'I' for Inactive)
REMARK    1  A    between atoms: C_1  and  C_2
REMARK    2  A    between atoms: C_2  and  S_3
REMARK    3  A    between atoms: S_3  and  C_4
REMARK    4  A    between atoms: C_17  and  C_20
REMARK    5  A    between atoms: C_23  and  C_25
REMARK                            x       y       z     vdW  Elec       q    Type
REMARK                         _______ _______ _______ _____ _____    ______ ____
ROOT
ATOM      1  C   UNL     1      -0.015   4.126   0.009  0.00  0.00    +0.212 A 
ATOM      2  N   UNL     1       1.163   3.510  -0.001  0.00  0.00    -0.184 NA
ATOM      3  C   UNL     1       1.201   2.188   0.002  0.00  0.00    +0.248 A 
ATOM      4  C   UNL     1      -0.018   1.473   0.010  0.00  0.00    +0.156 A 
ATOM      5  N   UNL     1      -1.157   2.148   0.019  0.00  0.00    -0.141 NA
ATOM      6  N   UNL     1      -1.149   3.436   0.022  0.00  0.00    -0.122 NA
ATOM      7  C   UNL     1       0.002  -0.004   0.002  0.00  0.00    +0.028 A 
ATOM      8  C   UNL     1      -0.776  -0.748   0.881  0.00  0.00    +0.012 A 
ATOM      9  C   UNL     1      -0.738  -2.127   0.832  0.00  0.00    +0.001 A 
ATOM     10  C   UNL     1       0.069  -2.774  -0.088  0.00  0.00    +0.002 A 
ATOM     11  C   UNL     1       0.852  -2.047  -0.965  0.00  0.00    +0.024 A 
ATOM     12  C   UNL     1       0.831  -0.665  -0.924  0.00  0.00    +0.039 A 
ATOM     13  N   UNL     1       1.636   0.102  -1.772  0.00  0.00    -0.305 N 
ATOM     14  C   UNL     1       2.750   0.849  -1.197  0.00  0.00    +0.300 C 
ATOM     15  O   UNL     1       2.377   1.516   0.003  0.00  0.00    -0.448 OA
ATOM     16  H   UNL     1       1.458   0.136  -2.725  0.00  0.00    +0.150 HD
ENDROOT
BRANCH  14  17
ATOM     17  C   UNL     1       3.879  -0.104  -0.899  0.00  0.00    +0.049 A 
ATOM     18  C   UNL     1       5.214   0.129  -0.894  0.00  0.00    +0.017 A 
ATOM     19  C   UNL     1       6.074  -0.908  -0.586  0.00  0.00    +0.011 A 
ATOM     20  C   UNL     1       5.557  -2.127  -0.297  0.00  0.00    -0.013 A 
ATOM     21  S   UNL     1       3.804  -1.831  -0.451  0.00  0.00    -0.093 S 
ATOM     22  C   UNL     1       6.276  -3.402   0.065  0.00  0.00    +0.051 C 
ENDBRANCH  14  17
BRANCH   1  23
ATOM     23  S   UNL     1      -0.072   5.887   0.004  0.00  0.00    -0.085 S 
BRANCH  23  25
ATOM     24  C   UNL     1      -2.164   7.644   0.020  0.00  0.00    +0.016 C 
ATOM     25  C   UNL     1      -1.864   6.144   0.022  0.00  0.00    +0.074 C 
ENDBRANCH  23  25
ENDBRANCH   1  23
TORSDOF 3
