REMARK  Name = ZINC39684355
REMARK  10 active torsions:
REMARK  status: ('A' for Active; 'I' for Inactive)
REMARK    1  A    between atoms: C_1  and  C_2
REMARK    2  A    between atoms: C_2  and  C_4
REMARK    3  A    between atoms: C_2  and  N_8
REMARK    4  A    between atoms: C_4  and  C_5
REMARK    5  A    between atoms: C_4  and  C_6
REMARK    6  A    between atoms: C_4  and  C_7
REMARK    7  A    between atoms: C_9  and  C_11
REMARK    8  A    between atoms: C_22  and  C_24
REMARK    9  A    between atoms: C_29  and  O_30
REMARK   10  A    between atoms: O_30  and  C_31
REMARK                            x       y       z     vdW  Elec       q    Type
REMARK                         _______ _______ _______ _____ _____    ______ ____
ROOT
ATOM      1  C   UNL     1      -3.459  -1.168  -1.129  0.00  0.00    +0.100 C 
ATOM      2  C   UNL     1      -3.481  -2.658  -0.720  0.00  0.00    +0.121 C 
ATOM      3  N   UNL     1      -4.545  -3.261  -1.556  0.00  0.00    -0.296 N 
ATOM      4  C   UNL     1      -4.389  -2.608  -2.878  0.00  0.00    +0.115 C 
ATOM      5  C   UNL     1      -4.055  -1.140  -2.547  0.00  0.00    -0.004 C 
ATOM      6  C   UNL     1      -3.032  -0.595  -3.539  0.00  0.00    -0.010 C 
ATOM      7  C   UNL     1      -3.667  -0.521  -4.931  0.00  0.00    -0.082 C 
ATOM      8  N   UNL     1      -4.847   0.350  -4.887  0.00  0.00    +0.379 N 
ATOM      9  C   UNL     1      -5.864  -0.230  -4.001  0.00  0.00    -0.082 C 
ATOM     10  C   UNL     1      -5.322  -0.291  -2.570  0.00  0.00    -0.010 C 
ATOM     11  C   UNL     1      -5.451  -4.192  -1.196  0.00  0.00    +0.250 C 
ATOM     12  O   UNL     1      -5.516  -4.562  -0.040  0.00  0.00    -0.270 OA
ATOM     13  H   UNL     1      -4.580   1.259  -4.540  0.00  0.00    -0.086 HD
ATOM     14  H   UNL     1      -5.228   0.445  -5.816  0.00  0.00    -0.086 HD
ENDROOT
BRANCH  11  15
ATOM     15  C   UNL     1      -6.364  -4.761  -2.206  0.00  0.00    +0.078 A 
ATOM     16  C   UNL     1      -5.924  -4.964  -3.516  0.00  0.00    +0.017 A 
ATOM     17  C   UNL     1      -6.782  -5.496  -4.454  0.00  0.00    +0.001 A 
ATOM     18  C   UNL     1      -8.079  -5.833  -4.104  0.00  0.00    +0.004 A 
ATOM     19  C   UNL     1      -8.527  -5.638  -2.812  0.00  0.00    +0.046 A 
ATOM     20  C   UNL     1      -7.676  -5.108  -1.854  0.00  0.00    +0.132 A 
BRANCH  20  21
ATOM     21  O   UNL     1      -8.112  -4.920  -0.583  0.00  0.00    -0.494 OA
ATOM     22  C   UNL     1      -9.461  -5.297  -0.299  0.00  0.00    +0.277 C 
ENDBRANCH  20  21
ENDBRANCH  11  15
BRANCH   1  24
ATOM     23  N   UNL     1      -1.812   0.676  -1.061  0.00  0.00    -0.312 N 
ATOM     24  C   UNL     1      -2.044  -0.649  -1.144  0.00  0.00    +0.218 C 
ATOM     25  O   UNL     1      -1.115  -1.424  -1.231  0.00  0.00    -0.275 OA
ATOM     26  H   UNL     1      -2.555   1.295  -0.992  0.00  0.00    +0.149 HD
BRANCH  23  28
ATOM     27  C   UNL     1       0.034   1.337  -2.523  0.00  0.00    +0.028 C 
ATOM     28  C   UNL     1      -0.436   1.181  -1.076  0.00  0.00    +0.075 C 
BRANCH  28  29
ATOM     29  C   UNL     1      -0.384   2.538  -0.373  0.00  0.00    -0.020 C 
ATOM     30  C   UNL     1      -1.297   3.526  -1.101  0.00  0.00    +0.012 C 
ATOM     31  C   UNL     1      -0.854   2.381   1.075  0.00  0.00    +0.012 C 
ATOM     32  C   UNL     1       1.052   3.065  -0.388  0.00  0.00    +0.012 C 
ENDBRANCH  28  29
ENDBRANCH  23  28
ENDBRANCH   1  24
TORSDOF 5
