REMARK  Name = ZINC48380542
REMARK  5 active torsions:
REMARK  status: ('A' for Active; 'I' for Inactive)
REMARK    1  A    between atoms: C_1  and  C_2
REMARK    2  A    between atoms: C_2  and  C_3
REMARK    3  A    between atoms: C_2  and  C_4
REMARK    4  A    between atoms: N_6  and  N_7
REMARK    5  A    between atoms: C_8  and  C_10
REMARK                            x       y       z     vdW  Elec       q    Type
REMARK                         _______ _______ _______ _____ _____    ______ ____
ROOT
ATOM      1  N   UNL     1      -2.954  -2.339   0.018  0.00  0.00    -0.234 N 
ATOM      2  C   UNL     1      -3.183  -3.667   0.013  0.00  0.00    +0.236 C 
ATOM      3  O   UNL     1      -2.250  -4.443  -0.000  0.00  0.00    -0.274 OA
ATOM      4  H   UNL     1      -3.700  -1.719   0.028  0.00  0.00    +0.173 HD
ENDROOT
BRANCH   2   5
ATOM      5  C   UNL     1      -4.596  -4.189   0.024  0.00  0.00    +0.118 C 
ATOM      6  C   UNL     1      -4.582  -5.719   0.029  0.00  0.00    +0.055 C 
ATOM      7  C   UNL     1      -5.963  -6.239   0.336  0.00  0.00    -0.004 A 
ATOM      8  C   UNL     1      -6.263  -7.556   0.028  0.00  0.00    +0.027 A 
ATOM      9  C   UNL     1      -7.518  -8.067   0.299  0.00  0.00    +0.041 A 
ATOM     10  C   UNL     1      -8.481  -7.262   0.882  0.00  0.00    +0.023 A 
ATOM     11  C   UNL     1      -8.187  -5.949   1.190  0.00  0.00    +0.047 A 
ATOM     12  C   UNL     1      -6.925  -5.431   0.916  0.00  0.00    +0.124 A 
ATOM     13  O   UNL     1      -6.678  -4.131   1.224  0.00  0.00    -0.491 OA
ATOM     14  C   UNL     1      -5.315  -3.708   1.291  0.00  0.00    +0.242 C 
ATOM     15 CL   UNL     1      -7.886  -9.718  -0.091  0.00  0.00    -0.084 Cl
ENDBRANCH   2   5
BRANCH   1  18
ATOM     16  C   UNL     1      -1.412  -0.526   0.013  0.00  0.00    +0.232 C 
ATOM     17  O   UNL     1      -2.344   0.250   0.026  0.00  0.00    -0.274 OA
ATOM     18  N   UNL     1      -1.640  -1.854   0.008  0.00  0.00    -0.234 N 
ATOM     19  H   UNL     1      -0.894  -2.474  -0.003  0.00  0.00    +0.173 HD
BRANCH  16  21
ATOM     20  C   UNL     1      -0.019   1.526   0.010  0.00  0.00    +0.017 C 
ATOM     21  C   UNL     1       0.002  -0.004   0.002  0.00  0.00    +0.070 C 
ATOM     22  C   UNL     1       0.742  -0.511   1.242  0.00  0.00    +0.017 C 
ENDBRANCH  16  21
ENDBRANCH   1  18
TORSDOF 3
