REMARK  Name = ZINC22112624
REMARK  23 active torsions:
REMARK  status: ('A' for Active; 'I' for Inactive)
REMARK    1  A    between atoms: C_1  and  C_2
REMARK    2  A    between atoms: C_2  and  C_4
REMARK    3  A    between atoms: C_2  and  O_36
REMARK    4  A    between atoms: C_4  and  C_6
REMARK    5  A    between atoms: C_4  and  N_9
REMARK    6  A    between atoms: C_10  and  C_12
REMARK    7  A    between atoms: C_12  and  C_14
REMARK    8  A    between atoms: C_12  and  N_20
REMARK    9  A    between atoms: C_14  and  S_15
REMARK   10  A    between atoms: S_15  and  C_16
REMARK   11  A    between atoms: C_16  and  C_17
REMARK   12  A    between atoms: C_16  and  C_18
REMARK   13  A    between atoms: C_16  and  C_19
REMARK   14  A    between atoms: C_21  and  C_23
REMARK   15  A    between atoms: C_23  and  C_25
REMARK   16  A    between atoms: C_23  and  N_28
REMARK   17  A    between atoms: C_25  and  C_26
REMARK   18  A    between atoms: C_25  and  C_27
REMARK   19  A    between atoms: C_29  and  O_31
REMARK   20  A    between atoms: O_31  and  C_32
REMARK   21  A    between atoms: C_32  and  C_33
REMARK   22  A    between atoms: C_32  and  C_34
REMARK   23  A    between atoms: C_32  and  C_35
REMARK                            x       y       z     vdW  Elec       q    Type
REMARK                         _______ _______ _______ _____ _____    ______ ____
ROOT
ATOM      1  C   UNL     1       4.302   0.433   2.596  0.00  0.00    +0.169 C 
ENDROOT
BRANCH   1   3
ATOM      2  N   UNL     1       2.500  -0.775   1.408  0.00  0.00    -0.300 N 
ATOM      3  C   UNL     1       3.117  -0.498   2.574  0.00  0.00    +0.235 C 
ATOM      4  O   UNL     1       2.718  -0.998   3.605  0.00  0.00    -0.274 OA
ATOM      5  H   UNL     1       2.818  -0.376   0.584  0.00  0.00    +0.150 HD
BRANCH   2   6
ATOM      6  C   UNL     1       1.348  -1.680   1.386  0.00  0.00    +0.187 C 
BRANCH   6   7
ATOM      7  C   UNL     1       1.830  -3.105   1.303  0.00  0.00    +0.233 C 
ATOM      8  O   UNL     1       3.019  -3.342   1.266  0.00  0.00    -0.274 OA
ATOM      9  N   UNL     1       0.940  -4.117   1.270  0.00  0.00    -0.328 N 
ATOM     10  H   UNL     1      -0.011  -3.928   1.300  0.00  0.00    +0.145 HD
ATOM     11  H   UNL     1       1.250  -5.035   1.217  0.00  0.00    +0.145 HD
ENDBRANCH   6   7
BRANCH   6  13
ATOM     12  C   UNL     1       0.088   0.115   0.188  0.00  0.00    +0.040 C 
ATOM     13  C   UNL     1       0.475  -1.365   0.169  0.00  0.00    +0.141 C 
BRANCH  13  14
ATOM     14  O   UNL     1       1.204  -1.652  -1.026  0.00  0.00    -0.390 OA
ATOM     15  H   UNL     1       0.711  -1.476  -1.839  0.00  0.00    +0.210 HD
ENDBRANCH  13  14
ENDBRANCH   6  13
ENDBRANCH   2   6
ENDBRANCH   1   3
BRANCH   1  16
ATOM     16  N   UNL     1       4.789   0.570   3.971  0.00  0.00    -0.302 N 
ATOM     17  C   UNL     1       5.468   1.674   4.338  0.00  0.00    +0.234 C 
ATOM     18  O   UNL     1       5.748   2.517   3.512  0.00  0.00    -0.274 OA
ATOM     19  H   UNL     1       4.622  -0.134   4.617  0.00  0.00    +0.150 HD
BRANCH  17  20
ATOM     20  C   UNL     1       5.880   1.863   5.776  0.00  0.00    +0.165 C 
BRANCH  20  21
ATOM     21  N   UNL     1       7.093   2.683   5.833  0.00  0.00    -0.270 N 
ATOM     22  C   UNL     1       7.925   2.583   6.888  0.00  0.00    +0.401 C 
ATOM     23  O   UNL     1       7.669   1.813   7.793  0.00  0.00    -0.226 OA
ATOM     24  H   UNL     1       7.297   3.298   5.111  0.00  0.00    +0.153 HD
BRANCH  22  25
ATOM     25  O   UNL     1       9.039   3.337   6.941  0.00  0.00    -0.445 OA
BRANCH  25  26
ATOM     26  C   UNL     1       9.875   3.181   8.089  0.00  0.00    +0.107 C 
ATOM     27  C   UNL     1      10.355   1.731   8.176  0.00  0.00    +0.055 C 
ATOM     28  C   UNL     1      11.083   4.112   7.971  0.00  0.00    +0.055 C 
ATOM     29  C   UNL     1       9.081   3.531   9.350  0.00  0.00    +0.055 C 
ENDBRANCH  25  26
ENDBRANCH  22  25
ENDBRANCH  20  21
BRANCH  20  30
ATOM     30  C   UNL     1       4.755   2.561   6.542  0.00  0.00    +0.012 C 
ATOM     31  C   UNL     1       3.505   1.680   6.527  0.00  0.00    +0.009 C 
ATOM     32  C   UNL     1       5.194   2.800   7.988  0.00  0.00    +0.009 C 
ENDBRANCH  20  30
ENDBRANCH  17  20
ENDBRANCH   1  16
BRANCH   1  33
ATOM     33  C   UNL     1       5.415  -0.138   1.715  0.00  0.00    +0.101 C 
BRANCH  33  34
ATOM     34  S   UNL     1       6.841   0.983   1.743  0.00  0.00    -0.152 S 
BRANCH  34  35
ATOM     35  C   UNL     1       8.056   0.173   0.665  0.00  0.00    +0.008 C 
ATOM     36  C   UNL     1       7.469   0.021  -0.740  0.00  0.00    +0.022 C 
ATOM     37  C   UNL     1       9.325   1.025   0.598  0.00  0.00    +0.022 C 
ATOM     38  C   UNL     1       8.397  -1.208   1.228  0.00  0.00    +0.022 C 
ENDBRANCH  34  35
ENDBRANCH  33  34
ENDBRANCH   1  33
TORSDOF 14
