REMARK  Name = ZINC02175411
REMARK  8 active torsions:
REMARK  status: ('A' for Active; 'I' for Inactive)
REMARK    1  A    between atoms: C_1  and  N_2
REMARK    2  A    between atoms: C_6  and  C_7
REMARK    3  A    between atoms: C_12  and  O_13
REMARK    4  A    between atoms: O_13  and  C_14
REMARK    5  A    between atoms: C_14  and  C_15
REMARK    6  A    between atoms: N_20  and  C_21
REMARK    7  A    between atoms: C_24  and  O_27
REMARK    8  A    between atoms: O_27  and  C_28
REMARK                            x       y       z     vdW  Elec       q    Type
REMARK                         _______ _______ _______ _____ _____    ______ ____
ROOT
ATOM      1  C   UNL     1      -2.443   1.051   0.093  0.00  0.00    +0.140 C 
ATOM      2  N   UNL     1      -1.344   1.887  -0.395  0.00  0.00    -0.249 N 
ATOM      3  C   UNL     1      -0.429   1.366  -1.196  0.00  0.00    +0.259 C 
ATOM      4  O   UNL     1      -0.476   0.200  -1.540  0.00  0.00    -0.269 OA
ATOM      5  C   UNL     1       0.647   2.263  -1.657  0.00  0.00    +0.078 C 
ATOM      6  C   UNL     1       1.697   1.999  -2.475  0.00  0.00    +0.032 C 
ATOM      7  S   UNL     1       0.197   3.792  -0.848  0.00  0.00    -0.049 S 
ATOM      8  C   UNL     1      -1.270   3.210  -0.012  0.00  0.00    +0.168 C 
ATOM      9  N   UNL     1      -2.083   3.880   0.772  0.00  0.00    -0.226 NA
ENDROOT
BRANCH   6  10
ATOM     10  C   UNL     1       2.773   2.985  -2.630  0.00  0.00    +0.019 A 
ATOM     11  C   UNL     1       2.955   3.986  -1.669  0.00  0.00    +0.026 A 
ATOM     12  C   UNL     1       3.972   4.905  -1.818  0.00  0.00    +0.019 A 
ATOM     13  C   UNL     1       4.808   4.849  -2.922  0.00  0.00    +0.019 A 
ATOM     14  C   UNL     1       4.636   3.869  -3.882  0.00  0.00    +0.047 A 
ATOM     15  C   UNL     1       3.624   2.934  -3.746  0.00  0.00    +0.129 A 
ATOM     16 BR   UNL     1       4.223   6.252  -0.514  0.00  0.00    -0.050 Br
BRANCH  15  17
ATOM     17  O   UNL     1       3.455   1.971  -4.689  0.00  0.00    -0.480 OA
BRANCH  17  18
ATOM     18  C   UNL     1       4.358   1.982  -5.796  0.00  0.00    +0.353 C 
BRANCH  18  19
ATOM     19  C   UNL     1       4.019   0.849  -6.731  0.00  0.00    +0.393 C 
ATOM     20  O   UNL     1       3.099   0.109  -6.475  0.00  0.00    -0.243 OA
ATOM     21  O   UNL     1       4.740   0.663  -7.848  0.00  0.00    -0.243 OA
ENDBRANCH  18  19
ENDBRANCH  17  18
ENDBRANCH  15  17
ENDBRANCH   6  10
BRANCH   9  22
ATOM     22  C   UNL     1      -3.245   3.300   1.209  0.00  0.00    +0.067 A 
ATOM     23  C   UNL     1      -4.448   3.557   0.548  0.00  0.00    +0.031 A 
ATOM     24  C   UNL     1      -5.614   2.968   0.989  0.00  0.00    +0.048 A 
ATOM     25  C   UNL     1      -5.595   2.129   2.095  0.00  0.00    +0.120 A 
ATOM     26  C   UNL     1      -4.403   1.874   2.758  0.00  0.00    +0.048 A 
ATOM     27  C   UNL     1      -3.231   2.455   2.321  0.00  0.00    +0.031 A 
BRANCH  25  28
ATOM     28  O   UNL     1      -6.748   1.554   2.529  0.00  0.00    -0.495 OA
ATOM     29  C   UNL     1      -7.940   1.859   1.801  0.00  0.00    +0.277 C 
ENDBRANCH  25  28
ENDBRANCH   9  22
TORSDOF 6
