REMARK  Name = ZINC06921661
REMARK  7 active torsions:
REMARK  status: ('A' for Active; 'I' for Inactive)
REMARK    1  A    between atoms: C_1  and  C_2
REMARK    2  A    between atoms: C_5  and  N_9
REMARK    3  A    between atoms: C_6  and  C_8
REMARK    4  A    between atoms: C_10  and  C_12
REMARK    5  A    between atoms: C_13  and  C_29
REMARK    6  A    between atoms: C_16  and  S_21
REMARK    7  A    between atoms: S_21  and  N_24
REMARK                            x       y       z     vdW  Elec       q    Type
REMARK                         _______ _______ _______ _____ _____    ______ ____
ROOT
ATOM      1  C   UNL     1       1.609   5.338  -0.000  0.00  0.00    +0.194 A 
ATOM      2  C   UNL     1       0.253   5.262   0.009  0.00  0.00    +0.008 A 
ATOM      3  C   UNL     1      -0.073   3.837  -0.007  0.00  0.00    +0.026 A 
ATOM      4  C   UNL     1      -1.266   3.111  -0.008  0.00  0.00    +0.040 A 
ATOM      5  C   UNL     1      -1.228   1.745  -0.032  0.00  0.00    +0.106 A 
ATOM      6  C   UNL     1      -0.012   1.075  -0.044  0.00  0.00    +0.032 A 
ATOM      7  C   UNL     1       1.176   1.773  -0.043  0.00  0.00    +0.049 A 
ATOM      8  C   UNL     1       1.163   3.163  -0.025  0.00  0.00    +0.136 A 
ATOM      9  O   UNL     1       2.135   4.096  -0.020  0.00  0.00    -0.450 OA
ATOM     10  C   UNL     1      -0.719   6.414   0.030  0.00  0.00    +0.048 C 
ENDROOT
BRANCH   1  12
ATOM     11  N   UNL     1       3.734   6.540  -0.000  0.00  0.00    -0.279 N 
ATOM     12  C   UNL     1       2.387   6.585   0.010  0.00  0.00    +0.284 C 
ATOM     13  O   UNL     1       1.814   7.659   0.028  0.00  0.00    -0.266 OA
ATOM     14  H   UNL     1       4.191   5.687   0.066  0.00  0.00    +0.155 HD
BRANCH  11  19
ATOM     15  C   UNL     1       6.729  11.338  -0.431  0.00  0.00    +0.044 C 
ATOM     16  C   UNL     1       5.933  10.063  -0.317  0.00  0.00    -0.050 A 
ATOM     17  C   UNL     1       4.640  10.010  -0.805  0.00  0.00    +0.005 A 
ATOM     18  C   UNL     1       3.908   8.844  -0.702  0.00  0.00    +0.024 A 
ATOM     19  C   UNL     1       4.472   7.722  -0.107  0.00  0.00    +0.037 A 
ATOM     20  C   UNL     1       5.769   7.780   0.387  0.00  0.00    -0.029 A 
ATOM     21  C   UNL     1       6.497   8.948   0.275  0.00  0.00    +0.008 A 
ATOM     22  C   UNL     1       6.383   6.567   1.038  0.00  0.00    +0.045 C 
ENDBRANCH  11  19
ENDBRANCH   1  12
BRANCH   5  23
ATOM     23  S   UNL     1      -2.732   0.828  -0.041  0.00  0.00    +0.061 S 
ATOM     24  O   UNL     1      -3.729   1.687  -0.578  0.00  0.00    -0.153 OA
ATOM     25  O   UNL     1      -2.432  -0.439  -0.610  0.00  0.00    -0.153 OA
BRANCH  23  26
ATOM     26  N   UNL     1      -3.147   0.551   1.538  0.00  0.00    -0.177 NA
ATOM     27  C   UNL     1      -2.745  -0.615   2.338  0.00  0.00    +0.109 C 
ATOM     28  C   UNL     1      -3.383  -0.455   3.734  0.00  0.00    +0.018 C 
ATOM     29  C   UNL     1      -4.575   0.500   3.462  0.00  0.00    +0.018 C 
ATOM     30  C   UNL     1      -3.986   1.431   2.373  0.00  0.00    +0.109 C 
ENDBRANCH  23  26
ENDBRANCH   5  23
TORSDOF 4
