REMARK  Name = ZINC08476281
REMARK  9 active torsions:
REMARK  status: ('A' for Active; 'I' for Inactive)
REMARK    1  A    between atoms: C_1  and  C_2
REMARK    2  A    between atoms: C_2  and  N_3
REMARK    3  A    between atoms: C_7  and  C_9
REMARK    4  A    between atoms: C_9  and  C_11
REMARK    5  A    between atoms: C_9  and  S_12
REMARK    6  A    between atoms: S_12  and  C_13
REMARK    7  A    between atoms: C_21  and  C_25
REMARK    8  A    between atoms: N_28  and  C_29
REMARK    9  A    between atoms: C_29  and  C_30
REMARK                            x       y       z     vdW  Elec       q    Type
REMARK                         _______ _______ _______ _____ _____    ______ ____
ROOT
ATOM      1  C   UNL     1       0.275   3.724   1.868  0.00  0.00    +0.173 A 
ATOM      2  N   UNL     1       0.290   5.042   1.888  0.00  0.00    -0.216 NA
ATOM      3  C   UNL     1      -0.696   5.741   1.340  0.00  0.00    +0.117 A 
ATOM      4  C   UNL     1      -1.792   5.124   0.713  0.00  0.00    +0.076 A 
ATOM      5  C   UNL     1      -2.801   6.027   0.156  0.00  0.00    -0.023 A 
ATOM      6  C   UNL     1      -2.583   7.350   0.296  0.00  0.00    -0.004 A 
ATOM      7  S   UNL     1      -1.043   7.473   1.166  0.00  0.00    -0.073 S 
ATOM      8  C   UNL     1      -3.456   8.470  -0.182  0.00  0.00    +0.046 C 
ATOM      9  C   UNL     1      -4.835   7.893  -0.532  0.00  0.00    -0.009 C 
ATOM     10  C   UNL     1      -4.639   6.645  -1.399  0.00  0.00    +0.008 C 
ATOM     11  C   UNL     1      -4.051   5.514  -0.554  0.00  0.00    +0.037 C 
ATOM     12  C   UNL     1      -5.645   8.934  -1.308  0.00  0.00    +0.008 C 
ATOM     13  C   UNL     1      -1.779   3.693   0.702  0.00  0.00    +0.263 A 
ATOM     14  O   UNL     1      -2.688   3.071   0.180  0.00  0.00    -0.267 OA
ATOM     15  N   UNL     1      -0.749   3.044   1.275  0.00  0.00    -0.288 N 
ENDROOT
BRANCH  15  16
ATOM     16  C   UNL     1      -0.729   1.579   1.267  0.00  0.00    +0.124 C 
ATOM     17  C   UNL     1      -0.013   1.086   0.008  0.00  0.00    +0.027 C 
ENDBRANCH  15  16
BRANCH   1  18
ATOM     18  S   UNL     1       1.598   2.828   2.612  0.00  0.00    -0.075 S 
BRANCH  18  19
ATOM     19  C   UNL     1       2.612   4.204   3.209  0.00  0.00    +0.137 C 
ATOM     20  C   UNL     1       1.845   4.973   4.287  0.00  0.00    +0.029 C 
BRANCH  19  25
ATOM     21  N   UNL     1       7.179   4.804   4.585  0.00  0.00    -0.299 N 
ATOM     22  C   UNL     1       6.109   3.995   4.449  0.00  0.00    +0.306 C 
ATOM     23  O   UNL     1       6.179   2.832   4.796  0.00  0.00    -0.252 OA
ATOM     24  N   UNL     1       4.963   4.475   3.928  0.00  0.00    -0.239 N 
ATOM     25  C   UNL     1       3.894   3.666   3.792  0.00  0.00    +0.233 C 
ATOM     26  O   UNL     1       3.963   2.507   4.138  0.00  0.00    -0.274 OA
ATOM     27  H   UNL     1       7.123   5.732   4.308  0.00  0.00    +0.150 HD
ATOM     28  H   UNL     1       4.908   5.403   3.651  0.00  0.00    +0.159 HD
BRANCH  21  30
ATOM     29  C   UNL     1       9.472   5.396   5.195  0.00  0.00    +0.024 C 
ATOM     30  C   UNL     1       8.425   4.282   5.152  0.00  0.00    +0.102 C 
ENDBRANCH  21  30
ENDBRANCH  19  25
ENDBRANCH  18  19
ENDBRANCH   1  18
TORSDOF 5
