REMARK  Name = ZINC07846118
REMARK  4 active torsions:
REMARK  status: ('A' for Active; 'I' for Inactive)
REMARK    1  A    between atoms: C_1  and  O_2
REMARK    2  A    between atoms: O_2  and  C_3
REMARK    3  A    between atoms: C_8  and  C_9
REMARK    4  A    between atoms: C_11  and  C_14
REMARK                            x       y       z     vdW  Elec       q    Type
REMARK                         _______ _______ _______ _____ _____    ______ ____
ROOT
ATOM      1  C   UNL     1       5.463  -2.192  -4.949  0.00  0.00    +0.112 A 
ATOM      2  N   UNL     1       4.647  -1.615  -4.080  0.00  0.00    -0.239 NA
ATOM      3  C   UNL     1       4.835  -0.369  -3.687  0.00  0.00    +0.079 A 
ATOM      4  C   UNL     1       5.892   0.344  -4.190  0.00  0.00    +0.075 A 
ATOM      5  S   UNL     1       6.630  -0.877  -5.269  0.00  0.00    -0.075 S 
ENDROOT
BRANCH   3   6
ATOM      6  C   UNL     1       3.907   0.257  -2.713  0.00  0.00    +0.003 A 
ATOM      7  C   UNL     1       4.048   1.603  -2.381  0.00  0.00    +0.014 A 
ATOM      8  C   UNL     1       3.186   2.187  -1.474  0.00  0.00    +0.048 A 
ATOM      9  C   UNL     1       2.178   1.436  -0.893  0.00  0.00    +0.142 A 
ATOM     10  C   UNL     1       2.033   0.088  -1.221  0.00  0.00    +0.076 A 
ATOM     11  C   UNL     1       2.894  -0.501  -2.129  0.00  0.00    +0.037 A 
ATOM     12  N   UNL     1       1.007  -0.657  -0.622  0.00  0.00    -0.280 N 
ATOM     13  C   UNL     1       0.002  -0.004   0.002  0.00  0.00    +0.255 C 
ATOM     14  O   UNL     1      -0.880  -0.628   0.553  0.00  0.00    -0.272 OA
ATOM     15  C   UNL     1      -0.018   1.503   0.010  0.00  0.00    +0.325 C 
ATOM     16  O   UNL     1       1.322   2.002   0.000  0.00  0.00    -0.481 OA
ATOM     17  H   UNL     1       1.018  -1.626  -0.654  0.00  0.00    +0.155 HD
ENDBRANCH   3   6
BRANCH   1  23
ATOM     18  C   UNL     1       6.388  -3.976  -6.427  0.00  0.00    +0.130 A 
ATOM     19  C   UNL     1       6.342  -5.262  -6.939  0.00  0.00    +0.046 A 
ATOM     20  C   UNL     1       5.338  -6.128  -6.550  0.00  0.00    +0.004 A 
ATOM     21  C   UNL     1       4.375  -5.719  -5.642  0.00  0.00    +0.001 A 
ATOM     22  C   UNL     1       4.411  -4.443  -5.119  0.00  0.00    +0.014 A 
ATOM     23  C   UNL     1       5.420  -3.560  -5.505  0.00  0.00    +0.049 A 
BRANCH  18  25
ATOM     24  C   UNL     1       8.325  -3.616  -7.758  0.00  0.00    +0.277 C 
ATOM     25  O   UNL     1       7.372  -3.123  -6.814  0.00  0.00    -0.494 OA
ENDBRANCH  18  25
ENDBRANCH   1  23
TORSDOF 3
