REMARK  Name = ZINC12190979
REMARK  9 active torsions:
REMARK  status: ('A' for Active; 'I' for Inactive)
REMARK    1  A    between atoms: C_1  and  O_2
REMARK    2  A    between atoms: O_2  and  C_3
REMARK    3  A    between atoms: C_5  and  C_10
REMARK    4  A    between atoms: C_8  and  O_9
REMARK    5  A    between atoms: C_10  and  N_70
REMARK    6  A    between atoms: C_13  and  C_16
REMARK    7  A    between atoms: C_16  and  C_28
REMARK    8  A    between atoms: N_19  and  C_23
REMARK    9  A    between atoms: C_28  and  C_29
REMARK                            x       y       z     vdW  Elec       q    Type
REMARK                         _______ _______ _______ _____ _____    ______ ____
ROOT
ATOM      1  C   UNL     1      -3.446  -6.488  -0.009  0.00  0.00    +0.119 C 
ATOM      2  C   UNL     1      -4.133  -6.621   1.337  0.00  0.00    +0.247 C 
ATOM      3  O   UNL     1      -3.867  -6.021   2.356  0.00  0.00    -0.273 OA
ATOM      4  N   UNL     1      -5.098  -7.545   1.164  0.00  0.00    -0.221 N 
ATOM      5  C   UNL     1      -5.118  -8.009  -0.091  0.00  0.00    +0.310 C 
ATOM      6  O   UNL     1      -5.901  -8.850  -0.488  0.00  0.00    -0.252 OA
ATOM      7  N   UNL     1      -4.174  -7.442  -0.864  0.00  0.00    -0.284 N 
ATOM      8  H   UNL     1      -4.004  -7.627  -1.801  0.00  0.00    +0.151 HD
ENDROOT
BRANCH   1  11
ATOM      9  C   UNL     1      -2.942  -2.677  -0.207  0.00  0.00    -0.078 C 
ATOM     10  C   UNL     1      -2.746  -4.108   0.299  0.00  0.00    -0.013 C 
ATOM     11  C   UNL     1      -3.591  -5.064  -0.548  0.00  0.00    +0.018 C 
ATOM     12  C   UNL     1      -5.059  -4.636  -0.477  0.00  0.00    -0.013 C 
ATOM     13  C   UNL     1      -5.187  -3.189  -0.961  0.00  0.00    -0.078 C 
ATOM     14  N   UNL     1      -4.371  -2.318  -0.089  0.00  0.00    +0.382 N 
ATOM     15  H   UNL     1      -4.668  -2.448   0.885  0.00  0.00    -0.081 HD
BRANCH  14  16
ATOM     16  C   UNL     1      -4.568  -0.902  -0.465  0.00  0.00    -0.043 C 
BRANCH  16  19
ATOM     17  C   UNL     1      -1.976   1.163   1.348  0.00  0.00    +0.161 A 
ATOM     18  C   UNL     1      -2.588   0.360   0.399  0.00  0.00    +0.051 A 
ATOM     19  C   UNL     1      -3.904  -0.029   0.568  0.00  0.00    -0.060 A 
ATOM     20  C   UNL     1      -4.611   0.381   1.683  0.00  0.00    +0.005 A 
ATOM     21  C   UNL     1      -4.006   1.181   2.634  0.00  0.00    +0.049 A 
ATOM     22  C   UNL     1      -2.686   1.570   2.473  0.00  0.00    +0.158 A 
BRANCH  17  24
ATOM     23  C   UNL     1      -0.013   1.086   0.008  0.00  0.00    +0.277 C 
ATOM     24  O   UNL     1      -0.682   1.547   1.184  0.00  0.00    -0.491 OA
ENDBRANCH  17  24
BRANCH  22  25
ATOM     25  O   UNL     1      -2.088   2.353   3.410  0.00  0.00    -0.503 OA
ATOM     26  H   UNL     1      -2.184   3.302   3.250  0.00  0.00    +0.292 HD
ENDBRANCH  22  25
ENDBRANCH  16  19
ENDBRANCH  14  16
ENDBRANCH   1  11
BRANCH   4  27
ATOM     27  C   UNL     1      -6.013  -7.986   2.219  0.00  0.00    +0.086 C 
ATOM     28  C   UNL     1      -5.893  -9.511   2.419  0.00  0.00    +0.023 C 
ATOM     29  C   UNL     1      -7.344  -9.970   2.711  0.00  0.00    +0.002 C 
ATOM     30  C   UNL     1      -8.184  -9.076   1.766  0.00  0.00    +0.002 C 
ATOM     31  C   UNL     1      -7.469  -7.710   1.804  0.00  0.00    +0.023 C 
ENDBRANCH   4  27
BRANCH   1  32
ATOM     32  C   UNL     1      -1.970  -6.876   0.096  0.00  0.00    +0.070 C 
BRANCH  32  33
ATOM     33  C   UNL     1      -1.858  -8.320   0.512  0.00  0.00    -0.045 A 
ATOM     34  C   UNL     1      -1.796  -8.650   1.853  0.00  0.00    +0.006 A 
ATOM     35  C   UNL     1      -1.698  -9.975   2.235  0.00  0.00    +0.038 A 
ATOM     36  C   UNL     1      -1.652 -10.970   1.274  0.00  0.00    +0.123 A 
ATOM     37  C   UNL     1      -1.709 -10.638  -0.069  0.00  0.00    +0.038 A 
ATOM     38  C   UNL     1      -1.812  -9.314  -0.449  0.00  0.00    +0.006 A 
ATOM     39  F   UNL     1      -1.551 -12.265   1.647  0.00  0.00    -0.205 F 
ENDBRANCH  32  33
ENDBRANCH   1  32
TORSDOF 8
