REMARK  Name = ZINC51989506
REMARK  4 active torsions:
REMARK  status: ('A' for Active; 'I' for Inactive)
REMARK    1  A    between atoms: C_1  and  C_2
REMARK    2  A    between atoms: C_5  and  C_7
REMARK    3  A    between atoms: N_9  and  C_10
REMARK    4  A    between atoms: C_16  and  O_18
REMARK                            x       y       z     vdW  Elec       q    Type
REMARK                         _______ _______ _______ _____ _____    ______ ____
ROOT
ATOM      1  C   UNL     1       1.314   0.159   2.237  0.00  0.00    +0.217 C 
ATOM      2  O   UNL     1       1.244   1.367   2.152  0.00  0.00    -0.275 OA
ATOM      3  N   UNL     1       1.940  -0.407   3.287  0.00  0.00    -0.310 N 
ATOM      4  H   UNL     1       1.996  -1.373   3.354  0.00  0.00    +0.149 HD
ENDROOT
BRANCH   3   5
ATOM      5  C   UNL     1       2.537   0.435   4.326  0.00  0.00    +0.101 C 
ATOM      6  C   UNL     1       3.946   0.852   3.897  0.00  0.00    +0.025 C 
ATOM      7  C   UNL     1       4.808  -0.395   3.695  0.00  0.00    +0.002 C 
ATOM      8  C   UNL     1       4.885  -1.180   5.007  0.00  0.00    +0.003 C 
ATOM      9  C   UNL     1       3.476  -1.597   5.435  0.00  0.00    +0.033 C 
ATOM     10  C   UNL     1       2.614  -0.349   5.637  0.00  0.00    +0.135 C 
BRANCH  10  11
ATOM     11  O   UNL     1       1.299  -0.739   6.037  0.00  0.00    -0.390 OA
ATOM     12  H   UNL     1       1.272  -1.241   6.863  0.00  0.00    +0.210 HD
ENDBRANCH  10  11
ENDBRANCH   3   5
BRANCH   1  16
ATOM     13  C   UNL     1      -0.019   1.526   0.010  0.00  0.00    +0.008 C 
ATOM     14  C   UNL     1       0.002  -0.004   0.002  0.00  0.00    -0.002 C 
ATOM     15  C   UNL     1      -0.828  -0.728   1.065  0.00  0.00    +0.017 C 
ATOM     16  C   UNL     1       0.700  -0.708   1.168  0.00  0.00    +0.078 C 
ENDBRANCH   1  16
TORSDOF 3
