REMARK  Name = ZINC09781028
REMARK  11 active torsions:
REMARK  status: ('A' for Active; 'I' for Inactive)
REMARK    1  A    between atoms: C_1  and  C_2
REMARK    2  A    between atoms: C_2  and  N_3
REMARK    3  A    between atoms: N_3  and  C_4
REMARK    4  A    between atoms: N_3  and  C_6
REMARK    5  A    between atoms: C_4  and  C_5
REMARK    6  A    between atoms: C_9  and  C_12
REMARK    7  A    between atoms: C_17  and  S_21
REMARK    8  A    between atoms: S_21  and  C_22
REMARK    9  A    between atoms: C_22  and  C_23
REMARK   10  A    between atoms: C_29  and  C_31
REMARK   11  A    between atoms: C_29  and  C_32
REMARK                            x       y       z     vdW  Elec       q    Type
REMARK                         _______ _______ _______ _____ _____    ______ ____
ROOT
ATOM      1  C   UNL     1      -3.986  -1.519   4.943  0.00  0.00    +0.092 C 
ATOM      2  C   UNL     1      -4.341  -2.974   5.022  0.00  0.00    +0.069 A 
ATOM      3  C   UNL     1      -5.617  -3.395   4.808  0.00  0.00    +0.111 A 
ATOM      4  N   UNL     1      -5.903  -4.733   4.881  0.00  0.00    -0.322 N 
ATOM      5  C   UNL     1      -4.916  -5.628   5.167  0.00  0.00    +0.171 A 
ATOM      6  N   UNL     1      -3.678  -5.232   5.379  0.00  0.00    -0.185 NA
ATOM      7  C   UNL     1      -3.348  -3.933   5.319  0.00  0.00    +0.280 A 
ATOM      8  O   UNL     1      -2.195  -3.581   5.521  0.00  0.00    -0.265 OA
ATOM      9  N   UNL     1      -6.608  -2.485   4.526  0.00  0.00    -0.304 N 
ATOM     10  C   UNL     1      -6.445  -1.159   4.824  0.00  0.00    +0.017 C 
ATOM     11  C   UNL     1      -5.214  -0.650   5.038  0.00  0.00    +0.024 C 
ATOM     12  C   UNL     1      -5.040   0.708   5.357  0.00  0.00    +0.162 C 
ATOM     13  C   UNL     1      -6.215   1.638   5.478  0.00  0.00    +0.086 C 
ATOM     14  C   UNL     1      -7.445   0.835   5.911  0.00  0.00    -0.023 C 
ATOM     15  C   UNL     1      -7.672  -0.285   4.899  0.00  0.00    +0.058 C 
ATOM     16  C   UNL     1      -8.671   1.750   5.949  0.00  0.00    +0.011 C 
ATOM     17  C   UNL     1      -7.205   0.234   7.298  0.00  0.00    +0.011 C 
ATOM     18  O   UNL     1      -3.918   1.138   5.540  0.00  0.00    -0.292 OA
ATOM     19  H   UNL     1      -7.432  -2.785   4.111  0.00  0.00    +0.153 HD
ATOM     20  H   UNL     1      -6.809  -5.044   4.730  0.00  0.00    +0.169 HD
ENDROOT
BRANCH   1  24
ATOM     21  C   UNL     1      -2.016  -0.759   1.227  0.00  0.00    +0.030 A 
ATOM     22  C   UNL     1      -1.356  -0.520   2.426  0.00  0.00    +0.023 A 
ATOM     23  C   UNL     1      -1.996  -0.767   3.625  0.00  0.00    +0.006 A 
ATOM     24  C   UNL     1      -3.291  -1.251   3.633  0.00  0.00    -0.035 A 
ATOM     25  C   UNL     1      -3.951  -1.490   2.441  0.00  0.00    +0.006 A 
ATOM     26  C   UNL     1      -3.319  -1.240   1.239  0.00  0.00    +0.023 A 
BRANCH  21  27
ATOM     27  N   UNL     1      -1.372  -0.511   0.012  0.00  0.00    -0.330 N 
BRANCH  27  29
ATOM     28  C   UNL     1      -0.019   1.526   0.010  0.00  0.00    +0.024 C 
ATOM     29  C   UNL     1       0.002  -0.004   0.002  0.00  0.00    +0.102 C 
ENDBRANCH  27  29
BRANCH  27  30
ATOM     30  C   UNL     1      -2.072  -0.758  -1.251  0.00  0.00    +0.102 C 
ATOM     31  C   UNL     1      -1.816  -2.197  -1.703  0.00  0.00    +0.024 C 
ENDBRANCH  27  30
ENDBRANCH  21  27
ENDBRANCH   1  24
BRANCH   5  32
ATOM     32  S   UNL     1      -5.303  -7.345   5.254  0.00  0.00    -0.088 S 
BRANCH  32  33
ATOM     33  C   UNL     1      -3.717  -8.132   5.650  0.00  0.00    +0.074 C 
ATOM     34  C   UNL     1      -3.912  -9.646   5.756  0.00  0.00    +0.016 C 
ENDBRANCH  32  33
ENDBRANCH   5  32
TORSDOF 6
