REMARK  Name = ZINC02520415
REMARK  10 active torsions:
REMARK  status: ('A' for Active; 'I' for Inactive)
REMARK    1  A    between atoms: C_1  and  C_2
REMARK    2  A    between atoms: C_2  and  O_3
REMARK    3  A    between atoms: O_3  and  C_4
REMARK    4  A    between atoms: C_4  and  C_6
REMARK    5  A    between atoms: C_10  and  N_11
REMARK    6  A    between atoms: C_12  and  C_14
REMARK    7  A    between atoms: N_16  and  N_17
REMARK    8  A    between atoms: C_18  and  C_19
REMARK    9  A    between atoms: C_24  and  C_30
REMARK   10  A    between atoms: C_32  and  C_36
REMARK                            x       y       z     vdW  Elec       q    Type
REMARK                         _______ _______ _______ _____ _____    ______ ____
ROOT
ATOM      1  N   UNL     1       1.216   3.793  -2.475  0.00  0.00    -0.271 N 
ATOM      2  C   UNL     1       1.240   4.659  -3.508  0.00  0.00    +0.305 C 
ATOM      3  O   UNL     1       1.289   5.854  -3.298  0.00  0.00    -0.265 OA
ATOM      4  H   UNL     1       1.177   2.839  -2.642  0.00  0.00    +0.156 HD
ENDROOT
BRANCH   1   9
ATOM      5  C   UNL     1       1.232   3.540   0.009  0.00  0.00    +0.091 A 
ATOM      6  C   UNL     1       1.268   4.287   1.255  0.00  0.00    -0.021 A 
ATOM      7  C   UNL     1       1.325   5.630   1.119  0.00  0.00    -0.004 A 
ATOM      8  S   UNL     1       1.318   5.910  -0.629  0.00  0.00    -0.077 S 
ATOM      9  C   UNL     1       1.249   4.267  -1.175  0.00  0.00    +0.087 A 
ATOM     10  C   UNL     1       1.377   6.647   2.218  0.00  0.00    +0.046 C 
ATOM     11  C   UNL     1       1.725   5.929   3.527  0.00  0.00    -0.009 C 
ATOM     12  C   UNL     1       0.840   4.688   3.667  0.00  0.00    +0.008 C 
ATOM     13  C   UNL     1       1.249   3.637   2.633  0.00  0.00    +0.037 C 
ATOM     14  C   UNL     1       1.482   6.868   4.710  0.00  0.00    +0.008 C 
BRANCH   5  15
ATOM     15  C   UNL     1       1.176   2.076   0.002  0.00  0.00    +0.342 C 
ATOM     16  O   UNL     1       2.205   1.428  -0.011  0.00  0.00    -0.245 OA
BRANCH  15  17
ATOM     17  O   UNL     1      -0.018   1.448   0.010  0.00  0.00    -0.461 OA
BRANCH  17  19
ATOM     18  C   UNL     1      -1.433  -0.534   0.013  0.00  0.00    +0.048 C 
ATOM     19  C   UNL     1       0.002  -0.004   0.002  0.00  0.00    +0.229 C 
ENDBRANCH  17  19
ENDBRANCH  15  17
ENDBRANCH   5  15
ENDBRANCH   1   9
BRANCH   2  20
ATOM     20  C   UNL     1       1.205   4.149  -4.908  0.00  0.00    +0.318 C 
ATOM     21  O   UNL     1       1.155   2.954  -5.118  0.00  0.00    -0.263 OA
ATOM     22  N   UNL     1       1.228   5.014  -5.941  0.00  0.00    -0.199 N 
ATOM     23  H   UNL     1       1.267   5.969  -5.773  0.00  0.00    +0.178 HD
BRANCH  22  24
ATOM     24  N   UNL     1       1.195   4.535  -7.257  0.00  0.00    -0.187 NA
ATOM     25  C   UNL     1       1.217   5.369  -8.253  0.00  0.00    +0.141 C 
BRANCH  25  26
ATOM     26  C   UNL     1       1.183   4.865  -9.637  0.00  0.00    +0.032 A 
ATOM     27  C   UNL     1       1.207   5.753 -10.707  0.00  0.00    +0.022 A 
ATOM     28  C   UNL     1       1.173   5.220 -12.007  0.00  0.00    +0.001 A 
ATOM     29  C   UNL     1       1.193   6.055 -13.137  0.00  0.00    +0.010 A 
ATOM     30  C   UNL     1       1.159   5.504 -14.382  0.00  0.00    +0.004 A 
ATOM     31  C   UNL     1       1.103   4.122 -14.550  0.00  0.00    -0.048 A 
ATOM     32  C   UNL     1       1.082   3.284 -13.477  0.00  0.00    +0.031 A 
ATOM     33  C   UNL     1       1.116   3.813 -12.176  0.00  0.00    +0.073 A 
ATOM     34  N   UNL     1       1.095   3.007 -11.108  0.00  0.00    -0.235 NA
ATOM     35  C   UNL     1       1.132   3.480  -9.887  0.00  0.00    +0.139 A 
ATOM     36 CL   UNL     1       1.109   2.375  -8.548  0.00  0.00    -0.061 Cl
ATOM     37  C   UNL     1       1.066   3.546 -15.941  0.00  0.00    +0.044 C 
ENDBRANCH  25  26
ENDBRANCH  22  24
ENDBRANCH   2  20
TORSDOF 7
