REMARK  Name = ZINC20466660
REMARK  6 active torsions:
REMARK  status: ('A' for Active; 'I' for Inactive)
REMARK    1  A    between atoms: C_7  and  C_11
REMARK    2  A    between atoms: C_11  and  C_12
REMARK    3  A    between atoms: C_12  and  N_13
REMARK    4  A    between atoms: C_14  and  C_16
REMARK    5  A    between atoms: C_17  and  S_26
REMARK    6  A    between atoms: S_26  and  C_27
REMARK                            x       y       z     vdW  Elec       q    Type
REMARK                         _______ _______ _______ _____ _____    ______ ____
ROOT
ATOM      1  C   UNL     1       2.509   2.248  -1.117  0.00  0.00    +0.117 A 
ATOM      2  C   UNL     1       1.709   2.087  -0.003  0.00  0.00    +0.050 A 
ATOM      3  C   UNL     1       2.580   2.251   1.165  0.00  0.00    +0.014 A 
ATOM      4  C   UNL     1       2.359   2.192   2.544  0.00  0.00    +0.011 A 
ATOM      5  C   UNL     1       3.400   2.385   3.407  0.00  0.00    +0.001 A 
ATOM      6  C   UNL     1       4.679   2.631   2.925  0.00  0.00    +0.002 A 
ATOM      7  C   UNL     1       4.921   2.687   1.571  0.00  0.00    +0.026 A 
ATOM      8  C   UNL     1       3.874   2.494   0.671  0.00  0.00    +0.048 A 
ATOM      9  N   UNL     1       3.812   2.493  -0.703  0.00  0.00    -0.350 N 
ATOM     10  H   UNL     1       4.606   2.650  -1.449  0.00  0.00    +0.166 HD
ENDROOT
BRANCH   1  12
ATOM     11  N   UNL     1       2.953   2.350  -3.468  0.00  0.00    -0.310 N 
ATOM     12  C   UNL     1       2.072   2.175  -2.463  0.00  0.00    +0.261 C 
ATOM     13  O   UNL     1       0.900   1.953  -2.712  0.00  0.00    -0.269 OA
ATOM     14  H   UNL     1       4.011   2.550  -3.244  0.00  0.00    +0.149 HD
BRANCH  11  15
ATOM     15  C   UNL     1       2.501   2.274  -4.860  0.00  0.00    +0.109 C 
BRANCH  15  16
ATOM     16  C   UNL     1       3.689   2.508  -5.795  0.00  0.00    +0.056 C 
BRANCH  16  23
ATOM     17  C   UNL     1       1.783   5.633  -8.723  0.00  0.00    +0.001 A 
ATOM     18  C   UNL     1       1.511   5.104  -9.977  0.00  0.00    +0.002 A 
ATOM     19  C   UNL     1       1.797   3.787 -10.261  0.00  0.00    +0.026 A 
ATOM     20  C   UNL     1       2.365   2.977  -9.283  0.00  0.00    +0.047 A 
ATOM     21  C   UNL     1       2.640   3.518  -8.014  0.00  0.00    +0.003 A 
ATOM     22  C   UNL     1       2.341   4.856  -7.748  0.00  0.00    +0.010 A 
ATOM     23  C   UNL     1       3.224   2.430  -7.227  0.00  0.00    -0.021 A 
ATOM     24  C   UNL     1       3.272   1.351  -8.024  0.00  0.00    +0.087 A 
ATOM     25  N   UNL     1       2.758   1.657  -9.255  0.00  0.00    -0.360 N 
ATOM     26  H   UNL     1       2.633   1.027 -10.148  0.00  0.00    +0.165 HD
ENDBRANCH  16  23
ENDBRANCH  15  16
ENDBRANCH  11  15
ENDBRANCH   1  12
BRANCH   2  27
ATOM     27  S   UNL     1      -0.022   1.758   0.012  0.00  0.00    -0.087 S 
BRANCH  27  28
ATOM     28  C   UNL     1       0.002  -0.004   0.002  0.00  0.00    +0.013 A 
ATOM     29  C   UNL     1       1.214  -0.684  -0.019  0.00  0.00    +0.016 A 
ATOM     30  C   UNL     1       1.230  -2.064  -0.020  0.00  0.00    +0.021 A 
ATOM     31  C   UNL     1       0.040  -2.771  -0.013  0.00  0.00    +0.041 A 
ATOM     32  C   UNL     1      -1.169  -2.097   0.002  0.00  0.00    +0.021 A 
ATOM     33  C   UNL     1      -1.191  -0.717   0.010  0.00  0.00    +0.016 A 
ATOM     34 CL   UNL     1       0.063  -4.507  -0.022  0.00  0.00    -0.084 Cl
ENDBRANCH  27  28
ENDBRANCH   2  27
TORSDOF 6
