REMARK  Name = ZINC04383929
REMARK  4 active torsions:
REMARK  status: ('A' for Active; 'I' for Inactive)
REMARK    1  A    between atoms: C_1  and  C_2
REMARK    2  A    between atoms: N_7  and  C_10
REMARK    3  A    between atoms: C_10  and  C_11
REMARK    4  A    between atoms: C_19  and  C_20
REMARK                            x       y       z     vdW  Elec       q    Type
REMARK                         _______ _______ _______ _____ _____    ______ ____
ROOT
ATOM      1  C   UNL     1       1.323   3.539   0.008  0.00  0.00    +0.046 C 
ATOM      2  C   UNL     1       1.232   2.035   0.001  0.00  0.00    -0.017 A 
ATOM      3  C   UNL     1      -0.017   1.409   0.010  0.00  0.00    +0.076 A 
ATOM      4  C   UNL     1       0.002  -0.004   0.002  0.00  0.00    +0.116 A 
ATOM      5  N   UNL     1      -1.115  -0.719   0.010  0.00  0.00    -0.230 NA
ATOM      6  C   UNL     1      -2.291  -0.152   0.025  0.00  0.00    +0.203 A 
ATOM      7  N   UNL     1      -2.436   1.196   0.033  0.00  0.00    -0.294 N 
ATOM      8  C   UNL     1      -1.367   2.016   0.032  0.00  0.00    +0.263 A 
ATOM      9  O   UNL     1      -1.508   3.226   0.041  0.00  0.00    -0.267 OA
ATOM     10  S   UNL     1       1.735  -0.388  -0.018  0.00  0.00    -0.064 S 
ATOM     11  C   UNL     1       2.369   1.281  -0.015  0.00  0.00    +0.079 A 
ENDROOT
BRANCH  11  12
ATOM     12  C   UNL     1       3.764   1.730  -0.028  0.00  0.00    +0.248 C 
ATOM     13  O   UNL     1       4.021   2.919  -0.024  0.00  0.00    -0.270 OA
ATOM     14  N   UNL     1       4.763   0.825  -0.043  0.00  0.00    -0.325 N 
ATOM     15  H   UNL     1       4.559  -0.123  -0.045  0.00  0.00    +0.145 HD
ATOM     16  H   UNL     1       5.686   1.122  -0.051  0.00  0.00    +0.145 HD
ENDBRANCH  11  12
BRANCH   7  17
ATOM     17  C   UNL     1      -3.783   1.772   0.050  0.00  0.00    +0.164 C 
BRANCH  17  18
ATOM     18  C   UNL     1      -4.230   1.963   1.476  0.00  0.00    +0.008 A 
ATOM     19  C   UNL     1      -4.250   3.228   2.031  0.00  0.00    +0.008 A 
ATOM     20  C   UNL     1      -4.661   3.404   3.339  0.00  0.00    +0.000 A 
ATOM     21  C   UNL     1      -5.053   2.313   4.094  0.00  0.00    +0.003 A 
ATOM     22  C   UNL     1      -5.034   1.047   3.541  0.00  0.00    +0.039 A 
ATOM     23  C   UNL     1      -4.627   0.871   2.229  0.00  0.00    +0.128 A 
ATOM     24  F   UNL     1      -4.613  -0.366   1.685  0.00  0.00    -0.205 F 
ENDBRANCH  17  18
ENDBRANCH   7  17
TORSDOF 3
