REMARK  Name = ZINC07590860
REMARK  9 active torsions:
REMARK  status: ('A' for Active; 'I' for Inactive)
REMARK    1  A    between atoms: C_1  and  C_2
REMARK    2  A    between atoms: C_5  and  N_9
REMARK    3  A    between atoms: C_6  and  C_8
REMARK    4  A    between atoms: C_10  and  S_14
REMARK    5  A    between atoms: S_14  and  C_15
REMARK    6  A    between atoms: C_15  and  C_16
REMARK    7  A    between atoms: N_18  and  C_19
REMARK    8  A    between atoms: C_19  and  C_21
REMARK    9  A    between atoms: C_19  and  C_22
REMARK                            x       y       z     vdW  Elec       q    Type
REMARK                         _______ _______ _______ _____ _____    ______ ____
ROOT
ATOM      1  C   UNL     1      -0.087  -4.396  -0.992  0.00  0.00    +0.224 C 
ATOM      2  O   UNL     1       1.012  -4.904  -1.064  0.00  0.00    -0.275 OA
ATOM      3  N   UNL     1      -1.191  -5.165  -1.064  0.00  0.00    -0.308 N 
ATOM      4  H   UNL     1      -2.070  -4.759  -1.006  0.00  0.00    +0.149 HD
ENDROOT
BRANCH   3   5
ATOM      5  C   UNL     1      -1.064  -6.615  -1.230  0.00  0.00    +0.101 C 
ATOM      6  C   UNL     1      -0.971  -6.952  -2.720  0.00  0.00    +0.033 C 
BRANCH   5   7
ATOM      7  C   UNL     1      -2.269  -7.297  -0.636  0.00  0.00    -0.020 A 
ATOM      8  C   UNL     1      -3.460  -6.640  -0.563  0.00  0.00    +0.006 A 
ATOM      9  C   UNL     1      -4.586  -7.255  -0.021  0.00  0.00    +0.001 A 
ATOM     10  C   UNL     1      -4.527  -8.527   0.460  0.00  0.00    +0.008 A 
ATOM     11  C   UNL     1      -3.314  -9.235   0.407  0.00  0.00    -0.018 A 
ATOM     12  C   UNL     1      -2.170  -8.611  -0.149  0.00  0.00    -0.013 A 
ATOM     13  C   UNL     1      -0.957  -9.319  -0.203  0.00  0.00    +0.009 A 
ATOM     14  C   UNL     1      -0.898 -10.591   0.277  0.00  0.00    +0.001 A 
ATOM     15  C   UNL     1      -2.024 -11.205   0.824  0.00  0.00    +0.001 A 
ATOM     16  C   UNL     1      -3.215 -10.550   0.893  0.00  0.00    +0.008 A 
ENDBRANCH   5   7
ENDBRANCH   3   5
BRANCH   1  17
ATOM     17  C   UNL     1      -0.218  -2.904  -0.821  0.00  0.00    +0.173 C 
BRANCH  17  18
ATOM     18  S   UNL     1       1.430  -2.158  -0.758  0.00  0.00    -0.075 S 
BRANCH  18  20
ATOM     19  N   UNL     1       1.848   0.590  -0.453  0.00  0.00    -0.187 N 
ATOM     20  C   UNL     1       0.990  -0.463  -0.560  0.00  0.00    +0.214 A 
ATOM     21  N   UNL     1      -0.229   0.027  -0.488  0.00  0.00    -0.101 NA
ATOM     22  N   UNL     1      -0.195   1.302  -0.345  0.00  0.00    -0.022 NA
ATOM     23  N   UNL     1       1.024   1.721  -0.314  0.00  0.00    -0.038 NA
BRANCH  19  28
ATOM     24  C   UNL     1       7.521   0.445  -0.544  0.00  0.00    +0.044 C 
ATOM     25  C   UNL     1       6.015   0.483  -0.519  0.00  0.00    -0.050 A 
ATOM     26  C   UNL     1       5.315  -0.393   0.289  0.00  0.00    +0.005 A 
ATOM     27  C   UNL     1       3.935  -0.357   0.317  0.00  0.00    +0.028 A 
ATOM     28  C   UNL     1       3.249   0.554  -0.475  0.00  0.00    +0.073 A 
ATOM     29  C   UNL     1       3.955   1.433  -1.286  0.00  0.00    -0.025 A 
ATOM     30  C   UNL     1       5.335   1.395  -1.306  0.00  0.00    +0.008 A 
ATOM     31  C   UNL     1       3.215   2.428  -2.143  0.00  0.00    +0.046 C 
ENDBRANCH  19  28
ENDBRANCH  18  20
ENDBRANCH  17  18
ENDBRANCH   1  17
TORSDOF 6
