REMARK  Name = ZINC19641696
REMARK  11 active torsions:
REMARK  status: ('A' for Active; 'I' for Inactive)
REMARK    1  A    between atoms: C_1  and  C_2
REMARK    2  A    between atoms: C_9  and  C_11
REMARK    3  A    between atoms: C_11  and  C_12
REMARK    4  A    between atoms: C_11  and  N_15
REMARK    5  A    between atoms: C_12  and  C_13
REMARK    6  A    between atoms: C_12  and  C_14
REMARK    7  A    between atoms: C_16  and  C_18
REMARK    8  A    between atoms: C_18  and  C_19
REMARK    9  A    between atoms: N_25  and  C_26
REMARK   10  A    between atoms: C_26  and  C_27
REMARK   11  A    between atoms: C_26  and  C_28
REMARK                            x       y       z     vdW  Elec       q    Type
REMARK                         _______ _______ _______ _____ _____    ______ ____
ROOT
ATOM      1  N   UNL     1      -0.337  -5.696   3.161  0.00  0.00    -0.305 N 
ATOM      2  C   UNL     1       0.262  -6.439   4.112  0.00  0.00    +0.212 C 
ATOM      3  O   UNL     1       0.962  -7.379   3.796  0.00  0.00    -0.276 OA
ATOM      4  H   UNL     1      -0.897  -4.945   3.413  0.00  0.00    +0.149 HD
ENDROOT
BRANCH   1   5
ATOM      5  C   UNL     1      -0.145  -6.023   1.746  0.00  0.00    +0.141 C 
BRANCH   5  14
ATOM      6  C   UNL     1      -1.327   0.708  -1.202  0.00  0.00    +0.044 C 
ATOM      7  C   UNL     1      -1.064  -0.769  -1.057  0.00  0.00    -0.048 A 
ATOM      8  C   UNL     1      -0.912  -1.556  -2.190  0.00  0.00    +0.005 A 
ATOM      9  C   UNL     1      -0.673  -2.897  -2.080  0.00  0.00    +0.030 A 
ATOM     10  C   UNL     1      -0.578  -3.486  -0.817  0.00  0.00    +0.089 A 
ATOM     11  C   UNL     1      -0.731  -2.689   0.331  0.00  0.00    +0.067 A 
ATOM     12  C   UNL     1      -0.969  -1.328   0.200  0.00  0.00    +0.031 A 
ATOM     13  N   UNL     1      -0.588  -3.541   1.408  0.00  0.00    -0.340 N 
ATOM     14  C   UNL     1      -0.360  -4.787   0.911  0.00  0.00    +0.129 A 
ATOM     15  N   UNL     1      -0.354  -4.755  -0.390  0.00  0.00    -0.231 NA
ATOM     16  H   UNL     1      -0.639  -3.296   2.345  0.00  0.00    +0.167 HD
ENDBRANCH   5  14
BRANCH   5  17
ATOM     17  C   UNL     1      -1.148  -7.100   1.330  0.00  0.00    +0.011 C 
ATOM     18  C   UNL     1      -0.947  -7.441  -0.148  0.00  0.00    +0.009 C 
ATOM     19  C   UNL     1      -0.930  -8.355   2.177  0.00  0.00    +0.009 C 
ENDBRANCH   5  17
ENDBRANCH   1   5
BRANCH   2  20
ATOM     20  C   UNL     1       0.064  -6.103   5.567  0.00  0.00    +0.089 C 
BRANCH  20  21
ATOM     21  C   UNL     1       0.737  -7.171   6.433  0.00  0.00    +0.028 C 
ATOM     22  C   UNL     1       2.197  -7.244   6.089  0.00  0.00    +0.200 C 
ATOM     23  O   UNL     1       2.805  -6.210   5.908  0.00  0.00    -0.278 OA
ATOM     24  N   UNL     1       2.855  -8.403   5.973  0.00  0.00    -0.318 N 
ATOM     25  C   UNL     1       2.202  -9.699   6.145  0.00  0.00    +0.085 C 
ATOM     26  C   UNL     1       0.869  -9.517   6.874  0.00  0.00    -0.058 C 
ATOM     27  N   UNL     1       0.095  -8.469   6.192  0.00  0.00    +0.390 N 
ATOM     28  H   UNL     1       3.802  -8.383   5.767  0.00  0.00    +0.149 HD
ATOM     29  H   UNL     1       0.073  -8.656   5.201  0.00  0.00    -0.080 HD
BRANCH  27  30
ATOM     30  C   UNL     1      -1.275  -8.446   6.721  0.00  0.00    -0.074 C 
ATOM     31  C   UNL     1      -1.996  -9.737   6.326  0.00  0.00    -0.013 C 
ATOM     32  C   UNL     1      -1.231  -8.332   8.246  0.00  0.00    -0.013 C 
ENDBRANCH  27  30
ENDBRANCH  20  21
ENDBRANCH   2  20
TORSDOF 6
