REMARK  Name = ZINC41547419
REMARK  8 active torsions:
REMARK  status: ('A' for Active; 'I' for Inactive)
REMARK    1  A    between atoms: C_1  and  C_2
REMARK    2  A    between atoms: C_2  and  C_3
REMARK    3  A    between atoms: C_2  and  C_4
REMARK    4  A    between atoms: C_2  and  C_5
REMARK    5  A    between atoms: C_9  and  O_11
REMARK    6  A    between atoms: O_11  and  C_12
REMARK    7  A    between atoms: C_12  and  C_13
REMARK    8  A    between atoms: C_13  and  N_14
REMARK                            x       y       z     vdW  Elec       q    Type
REMARK                         _______ _______ _______ _____ _____    ______ ____
ROOT
ATOM      1  C   UNL     1       4.574  -0.746  -4.025  0.00  0.00    +0.251 C 
ENDROOT
BRANCH   1   2
ATOM      2  O   UNL     1       3.970  -0.248  -2.830  0.00  0.00    -0.490 OA
BRANCH   2   7
ATOM      3  C   UNL     1       0.707  -0.490  -1.238  0.00  0.00    -0.039 A 
ATOM      4  C   UNL     1       0.035  -1.285  -2.148  0.00  0.00    +0.004 A 
ATOM      5  C   UNL     1       0.679  -1.732  -3.287  0.00  0.00    +0.004 A 
ATOM      6  C   UNL     1       1.997  -1.387  -3.517  0.00  0.00    +0.045 A 
ATOM      7  C   UNL     1       2.674  -0.590  -2.605  0.00  0.00    +0.121 A 
ATOM      8  C   UNL     1       2.023  -0.137  -1.466  0.00  0.00    +0.049 A 
BRANCH   3  10
ATOM      9  C   UNL     1      -0.019   1.526   0.010  0.00  0.00    +0.015 C 
ATOM     10  C   UNL     1       0.002  -0.004   0.002  0.00  0.00    -0.013 C 
ATOM     11  C   UNL     1       0.742  -0.511   1.242  0.00  0.00    +0.015 C 
ATOM     12  C   UNL     1      -1.433  -0.534   0.013  0.00  0.00    +0.015 C 
ENDBRANCH   3  10
ENDBRANCH   2   7
ENDBRANCH   1   2
BRANCH   1  13
ATOM     13  C   UNL     1       6.023  -0.261  -4.104  0.00  0.00    +0.169 C 
BRANCH  13  14
ATOM     14  N   UNL     1       6.795  -0.849  -3.007  0.00  0.00    -0.271 N 
ATOM     15  C   UNL     1       6.967  -0.303  -1.735  0.00  0.00    +0.090 A 
ATOM     16  C   UNL     1       6.517   0.859  -1.129  0.00  0.00    +0.030 A 
ATOM     17  C   UNL     1       6.864   1.131   0.180  0.00  0.00    +0.002 A 
ATOM     18  C   UNL     1       7.660   0.246   0.887  0.00  0.00    +0.004 A 
ATOM     19  C   UNL     1       8.113  -0.914   0.289  0.00  0.00    +0.048 A 
ATOM     20  C   UNL     1       7.769  -1.196  -1.023  0.00  0.00    +0.157 A 
ATOM     21  O   UNL     1       8.056  -2.228  -1.853  0.00  0.00    -0.407 OA
ATOM     22  C   UNL     1       7.465  -2.018  -3.040  0.00  0.00    +0.421 A 
ATOM     23  O   UNL     1       7.526  -2.765  -3.997  0.00  0.00    -0.223 OA
ENDBRANCH  13  14
ENDBRANCH   1  13
TORSDOF 5
