REMARK  Name = ZINC36070890
REMARK  12 active torsions:
REMARK  status: ('A' for Active; 'I' for Inactive)
REMARK    1  A    between atoms: C_1  and  C_2
REMARK    2  A    between atoms: C_5  and  N_8
REMARK    3  A    between atoms: C_11  and  N_25
REMARK    4  A    between atoms: C_12  and  O_15
REMARK    5  A    between atoms: O_15  and  C_16
REMARK    6  A    between atoms: N_25  and  C_26
REMARK    7  A    between atoms: C_30  and  C_32
REMARK    8  A    between atoms: N_34  and  C_35
REMARK    9  A    between atoms: C_35  and  C_36
REMARK   10  A    between atoms: C_36  and  C_37
REMARK   11  A    between atoms: C_37  and  C_38
REMARK   12  A    between atoms: C_37  and  C_39
REMARK                            x       y       z     vdW  Elec       q    Type
REMARK                         _______ _______ _______ _____ _____    ______ ____
ROOT
ATOM      1  N   UNL     1      -0.023  -4.121   0.486  0.00  0.00    -0.195 N 
ATOM      2  C   UNL     1      -0.033  -4.974   1.530  0.00  0.00    +0.297 A 
ATOM      3  O   UNL     1      -0.077  -4.547   2.674  0.00  0.00    -0.264 OA
ATOM      4  C   UNL     1       0.007  -6.362   1.291  0.00  0.00    +0.143 A 
ATOM      5  C   UNL     1       0.056  -6.816  -0.017  0.00  0.00    +0.174 A 
ATOM      6  C   UNL     1       0.065  -5.886  -1.071  0.00  0.00    +0.181 A 
ATOM      7  N   UNL     1       0.022  -4.604  -0.825  0.00  0.00    -0.168 NA
ENDROOT
BRANCH   1  12
ATOM      8  C   UNL     1      -0.185   1.473   1.421  0.00  0.00    +0.044 C 
ATOM      9  C   UNL     1      -0.142  -0.013   1.173  0.00  0.00    -0.050 A 
ATOM     10  C   UNL     1      -1.035  -0.591   0.288  0.00  0.00    +0.005 A 
ATOM     11  C   UNL     1      -0.998  -1.952   0.058  0.00  0.00    +0.028 A 
ATOM     12  C   UNL     1      -0.063  -2.741   0.717  0.00  0.00    +0.069 A 
ATOM     13  C   UNL     1       0.832  -2.157   1.604  0.00  0.00    +0.028 A 
ATOM     14  C   UNL     1       0.793  -0.795   1.826  0.00  0.00    +0.005 A 
ENDBRANCH   1  12
BRANCH   4  15
ATOM     15  N   UNL     1      -0.003  -7.268   2.357  0.00  0.00    -0.307 N 
ATOM     16  H   UNL     1       0.736  -7.886   2.475  0.00  0.00    +0.152 HD
BRANCH  15  17
ATOM     17  C   UNL     1      -1.075  -7.282   3.252  0.00  0.00    +0.032 A 
ATOM     18  C   UNL     1      -2.222  -6.546   2.975  0.00  0.00    +0.023 A 
ATOM     19  C   UNL     1      -3.285  -6.556   3.857  0.00  0.00    +0.003 A 
ATOM     20  C   UNL     1      -3.216  -7.297   5.020  0.00  0.00    +0.013 A 
ATOM     21  C   UNL     1      -2.069  -8.038   5.308  0.00  0.00    +0.038 A 
ATOM     22  C   UNL     1      -0.998  -8.034   4.415  0.00  0.00    +0.036 A 
BRANCH  21  23
ATOM     23  C   UNL     1      -1.992  -8.832   6.554  0.00  0.00    +0.244 C 
ATOM     24  O   UNL     1      -0.993  -9.477   6.803  0.00  0.00    -0.270 OA
ATOM     25  N   UNL     1      -3.031  -8.839   7.413  0.00  0.00    -0.311 N 
ATOM     26  H   UNL     1      -3.829  -8.324   7.214  0.00  0.00    +0.149 HD
BRANCH  25  27
ATOM     27  C   UNL     1      -2.955  -9.625   8.647  0.00  0.00    +0.105 C 
BRANCH  27  28
ATOM     28  C   UNL     1      -4.255  -9.461   9.437  0.00  0.00    +0.022 C 
BRANCH  28  29
ATOM     29  C   UNL     1      -4.176 -10.282  10.726  0.00  0.00    -0.016 C 
ATOM     30  C   UNL     1      -5.422 -10.021  11.574  0.00  0.00    +0.007 C 
ATOM     31  C   UNL     1      -4.098 -11.770  10.378  0.00  0.00    +0.007 C 
ENDBRANCH  28  29
ENDBRANCH  27  28
ENDBRANCH  25  27
ENDBRANCH  21  23
ENDBRANCH  15  17
ENDBRANCH   4  15
BRANCH   5  32
ATOM     32  O   UNL     1       0.096  -8.147  -0.279  0.00  0.00    -0.452 OA
BRANCH  32  33
ATOM     33  C   UNL     1      -0.999  -8.719  -0.846  0.00  0.00    +0.132 A 
ATOM     34  C   UNL     1      -2.098  -7.938  -1.174  0.00  0.00    +0.050 A 
ATOM     35  C   UNL     1      -3.212  -8.517  -1.750  0.00  0.00    +0.053 A 
ATOM     36  C   UNL     1      -3.236  -9.879  -2.002  0.00  0.00    +0.166 A 
ATOM     37  C   UNL     1      -2.134 -10.665  -1.673  0.00  0.00    +0.170 A 
ATOM     38  C   UNL     1      -1.016 -10.082  -1.101  0.00  0.00    +0.095 A 
ATOM     39  O   UNL     1      -2.403 -11.959  -2.017  0.00  0.00    -0.452 OA
ATOM     40  C   UNL     1      -3.832 -12.024  -2.181  0.00  0.00    +0.466 C 
ATOM     41  O   UNL     1      -4.195 -10.681  -2.551  0.00  0.00    -0.453 OA
ENDBRANCH  32  33
ENDBRANCH   5  32
TORSDOF 9
