REMARK  Name = ZINC38964505
REMARK  6 active torsions:
REMARK  status: ('A' for Active; 'I' for Inactive)
REMARK    1  A    between atoms: C_1  and  C_2
REMARK    2  A    between atoms: N_10  and  C_11
REMARK    3  A    between atoms: C_11  and  C_13
REMARK    4  A    between atoms: C_13  and  S_14
REMARK    5  A    between atoms: S_14  and  C_15
REMARK    6  A    between atoms: C_19  and  C_21
REMARK                            x       y       z     vdW  Elec       q    Type
REMARK                         _______ _______ _______ _____ _____    ______ ____
ROOT
ATOM      1  C   UNL     1      -0.019   1.526   0.010  0.00  0.00    +0.008 C 
ATOM      2  C   UNL     1       0.002  -0.004   0.002  0.00  0.00    -0.009 C 
ATOM      3  C   UNL     1       0.725  -0.501  -1.253  0.00  0.00    +0.010 C 
ATOM      4  C   UNL     1       0.547  -2.014  -1.393  0.00  0.00    +0.054 C 
ATOM      5  C   UNL     1       0.957  -2.679  -0.086  0.00  0.00    +0.028 A 
ATOM      6  C   UNL     1       1.034  -1.972   1.052  0.00  0.00    +0.012 A 
ATOM      7  S   UNL     1       1.539  -3.168   2.255  0.00  0.00    -0.057 S 
ATOM      8  C   UNL     1       1.625  -4.510   1.243  0.00  0.00    +0.163 A 
ATOM      9  N   UNL     1       1.961  -5.764   1.554  0.00  0.00    -0.156 NA
ATOM     10  N   UNL     1       1.269  -4.008   0.033  0.00  0.00    -0.339 N 
ATOM     11  H   UNL     1       1.237  -4.587  -0.745  0.00  0.00    +0.167 HD
ATOM     12  C   UNL     1       0.751  -0.516   1.242  0.00  0.00    +0.047 C 
ENDROOT
BRANCH   9  13
ATOM     13  C   UNL     1       1.973  -6.701   0.615  0.00  0.00    +0.248 C 
ATOM     14  O   UNL     1       1.678  -6.417  -0.531  0.00  0.00    -0.273 OA
BRANCH  13  15
ATOM     15  C   UNL     1       2.352  -8.116   0.966  0.00  0.00    +0.169 C 
BRANCH  15  16
ATOM     16  S   UNL     1       2.274  -9.150  -0.522  0.00  0.00    -0.117 S 
BRANCH  16  17
ATOM     17  C   UNL     1       2.752 -10.799   0.064  0.00  0.00    +0.210 C 
ATOM     18  N   UNL     1       1.885 -11.248   1.177  0.00  0.00    -0.245 N 
ATOM     19  N   UNL     1       2.533 -11.462   2.374  0.00  0.00    -0.183 NA
ATOM     20  C   UNL     1       3.801 -11.290   2.537  0.00  0.00    +0.091 C 
ATOM     21  S   UNL     1       4.375 -10.758   0.930  0.00  0.00    -0.074 S 
ATOM     22  C   UNL     1       4.611 -11.492   3.792  0.00  0.00    +0.075 C 
ATOM     23  H   UNL     1       0.930 -11.382   1.072  0.00  0.00    +0.170 HD
ENDBRANCH  16  17
ENDBRANCH  15  16
ENDBRANCH  13  15
ENDBRANCH   9  13
TORSDOF 4
