REMARK  Name = ZINC39521551
REMARK  6 active torsions:
REMARK  status: ('A' for Active; 'I' for Inactive)
REMARK    1  A    between atoms: C_1  and  O_2
REMARK    2  A    between atoms: O_2  and  C_3
REMARK    3  A    between atoms: C_13  and  S_23
REMARK    4  A    between atoms: N_15  and  C_16
REMARK    5  A    between atoms: C_21  and  O_22
REMARK    6  A    between atoms: S_23  and  C_26
REMARK                            x       y       z     vdW  Elec       q    Type
REMARK                         _______ _______ _______ _____ _____    ______ ____
ROOT
ATOM      1  C   UNL     1       0.456  -0.680   0.772  0.00  0.00    +0.120 C 
ATOM      2  C   UNL     1      -0.578  -0.799   1.894  0.00  0.00    +0.032 C 
ATOM      3  C   UNL     1       0.109  -1.290   3.171  0.00  0.00    +0.005 C 
ATOM      4  C   UNL     1       0.742  -2.659   2.915  0.00  0.00    +0.026 C 
ATOM      5  C   UNL     1       1.773  -2.541   1.792  0.00  0.00    +0.039 C 
ATOM      6  C   UNL     1       1.090  -2.049   0.516  0.00  0.00    +0.057 C 
ATOM      7  C   UNL     1       2.869  -1.554   2.202  0.00  0.00    +0.026 C 
ATOM      8  C   UNL     1       3.640  -2.122   3.396  0.00  0.00    +0.006 C 
ATOM      9  C   UNL     1       4.301  -3.443   2.996  0.00  0.00    +0.046 C 
ATOM     10  C   UNL     1       3.220  -4.451   2.596  0.00  0.00    +0.222 C 
ATOM     11  N   UNL     1       2.382  -3.855   1.547  0.00  0.00    -0.299 N 
ENDROOT
BRANCH  11  12
ATOM     12  C   UNL     1       2.168  -4.526   0.337  0.00  0.00    +0.074 A 
ATOM     13  C   UNL     1       3.029  -4.324  -0.732  0.00  0.00    +0.027 A 
ATOM     14  C   UNL     1       2.816  -4.988  -1.925  0.00  0.00    +0.002 A 
ATOM     15  C   UNL     1       1.746  -5.854  -2.057  0.00  0.00    +0.004 A 
ATOM     16  C   UNL     1       0.884  -6.060  -0.996  0.00  0.00    +0.047 A 
ATOM     17  C   UNL     1       1.094  -5.402   0.205  0.00  0.00    +0.138 A 
BRANCH  17  18
ATOM     18  O   UNL     1       0.250  -5.609   1.252  0.00  0.00    -0.505 OA
ATOM     19  H   UNL     1      -0.503  -5.002   1.275  0.00  0.00    +0.292 HD
ENDBRANCH  17  18
ENDBRANCH  11  12
BRANCH  10  20
ATOM     20  S   UNL     1       4.001  -5.964   1.970  0.00  0.00    +0.016 S 
ATOM     21  O   UNL     1       3.010  -6.936   1.664  0.00  0.00    -0.168 OA
ATOM     22  O   UNL     1       5.011  -5.638   1.025  0.00  0.00    -0.168 OA
BRANCH  20  23
ATOM     23  C   UNL     1       4.872  -6.629   3.349  0.00  0.00    +0.090 A 
ATOM     24  C   UNL     1       6.160  -6.207   3.622  0.00  0.00    +0.027 A 
ATOM     25  C   UNL     1       6.844  -6.729   4.704  0.00  0.00    +0.002 A 
ATOM     26  C   UNL     1       6.239  -7.672   5.514  0.00  0.00    +0.000 A 
ATOM     27  C   UNL     1       4.951  -8.092   5.242  0.00  0.00    +0.002 A 
ATOM     28  C   UNL     1       4.266  -7.568   4.162  0.00  0.00    +0.027 A 
ENDBRANCH  20  23
ENDBRANCH  10  20
BRANCH   1  30
ATOM     29  C   UNL     1      -0.210   1.201  -0.555  0.00  0.00    +0.194 C 
ATOM     30  O   UNL     1      -0.185  -0.221  -0.419  0.00  0.00    -0.380 OA
ENDBRANCH   1  30
TORSDOF 5
