REMARK  Name = ZINC30223874
REMARK  7 active torsions:
REMARK  status: ('A' for Active; 'I' for Inactive)
REMARK    1  A    between atoms: C_1  and  C_2
REMARK    2  A    between atoms: C_2  and  C_3
REMARK    3  A    between atoms: N_12  and  C_13
REMARK    4  A    between atoms: C_13  and  C_14
REMARK    5  A    between atoms: C_20  and  S_27
REMARK    6  A    between atoms: C_24  and  C_26
REMARK    7  A    between atoms: S_27  and  N_30
REMARK                            x       y       z     vdW  Elec       q    Type
REMARK                         _______ _______ _______ _____ _____    ______ ____
ROOT
ATOM      1  C   UNL     1      -1.256   6.152  -5.367  0.00  0.00    +0.203 C 
ATOM      2  O   UNL     1      -1.369   6.621  -6.479  0.00  0.00    -0.277 OA
ATOM      3  N   UNL     1      -1.616   4.874  -5.135  0.00  0.00    -0.270 N 
ATOM      4  C   UNL     1      -1.529   4.228  -3.898  0.00  0.00    +0.040 A 
ATOM      5  C   UNL     1      -1.075   4.721  -2.672  0.00  0.00    +0.026 A 
ATOM      6  C   UNL     1      -1.075   3.913  -1.556  0.00  0.00    +0.030 A 
ATOM      7  C   UNL     1      -1.515   2.605  -1.643  0.00  0.00    +0.105 A 
ATOM      8  C   UNL     1      -1.966   2.110  -2.852  0.00  0.00    +0.034 A 
ATOM      9  C   UNL     1      -1.973   2.918  -3.973  0.00  0.00    -0.022 A 
ATOM     10  C   UNL     1      -2.404   2.637  -5.395  0.00  0.00    +0.059 C 
ATOM     11  C   UNL     1      -2.155   3.957  -6.143  0.00  0.00    +0.083 C 
ATOM     12  C   UNL     1      -1.140   3.745  -7.268  0.00  0.00    +0.029 C 
ENDROOT
BRANCH   7  13
ATOM     13  S   UNL     1      -1.508   1.573  -0.214  0.00  0.00    +0.056 S 
ATOM     14  O   UNL     1      -2.483   0.565  -0.436  0.00  0.00    -0.153 OA
ATOM     15  O   UNL     1      -1.551   2.439   0.912  0.00  0.00    -0.153 OA
BRANCH  13  16
ATOM     16  N   UNL     1      -0.039   0.810  -0.168  0.00  0.00    -0.204 NA
ATOM     17  H   UNL     1       0.006   0.154   0.713  0.00  0.00    +0.144 HD
ATOM     18  H   UNL     1       0.763   1.561  -0.107  0.00  0.00    +0.144 HD
ENDBRANCH  13  16
ENDBRANCH   7  13
BRANCH   1  19
ATOM     19  C   UNL     1      -0.713   6.997  -4.244  0.00  0.00    +0.020 C 
BRANCH  19  28
ATOM     20  C   UNL     1       0.639   8.280  -5.788  0.00  0.00    -0.036 C 
ATOM     21  C   UNL     1       0.907   9.696  -6.290  0.00  0.00    -0.051 A 
ATOM     22  C   UNL     1       2.055  10.070  -6.985  0.00  0.00    +0.010 A 
ATOM     23  C   UNL     1       2.213  11.351  -7.392  0.00  0.00    +0.045 A 
ATOM     24  S   UNL     1       0.710  12.114  -6.801  0.00  0.00    -0.101 S 
ATOM     25  C   UNL     1      -0.011  10.676  -6.061  0.00  0.00    -0.010 A 
ATOM     26  C   UNL     1      -1.314  10.528  -5.345  0.00  0.00    +0.024 C 
ATOM     27  C   UNL     1      -1.611   9.024  -5.219  0.00  0.00    -0.072 C 
ATOM     28  N   UNL     1      -0.397   8.339  -4.750  0.00  0.00    +0.390 N 
ATOM     29  H   UNL     1       0.011   8.934  -3.920  0.00  0.00    -0.080 HD
BRANCH  20  31
ATOM     30  C   UNL     1       2.370   8.539  -4.005  0.00  0.00    +0.002 C 
ATOM     31  C   UNL     1       1.923   7.693  -5.199  0.00  0.00    -0.014 C 
ENDBRANCH  20  31
ENDBRANCH  19  28
ENDBRANCH   1  19
TORSDOF 5
