REMARK  Name = ZINC12716325
REMARK  15 active torsions:
REMARK  status: ('A' for Active; 'I' for Inactive)
REMARK    1  A    between atoms: C_1  and  C_2
REMARK    2  A    between atoms: C_5  and  C_7
REMARK    3  A    between atoms: C_7  and  C_9
REMARK    4  A    between atoms: C_7  and  N_16
REMARK    5  A    between atoms: N_11  and  C_12
REMARK    6  A    between atoms: C_12  and  C_13
REMARK    7  A    between atoms: C_12  and  C_14
REMARK    8  A    between atoms: C_12  and  C_15
REMARK    9  A    between atoms: N_16  and  C_17
REMARK   10  A    between atoms: C_17  and  C_18
REMARK   11  A    between atoms: C_23  and  C_25
REMARK   12  A    between atoms: C_25  and  N_26
REMARK   13  A    between atoms: C_28  and  C_31
REMARK   14  A    between atoms: C_34  and  O_37
REMARK   15  A    between atoms: O_37  and  C_38
REMARK                            x       y       z     vdW  Elec       q    Type
REMARK                         _______ _______ _______ _____ _____    ______ ____
ROOT
ATOM      1  N   UNL     1       0.707  -3.134   0.478  0.00  0.00    -0.277 N 
ATOM      2  C   UNL     1       1.123  -3.254   1.754  0.00  0.00    +0.240 C 
ATOM      3  O   UNL     1       2.143  -2.705   2.114  0.00  0.00    -0.273 OA
ENDROOT
BRANCH   1   4
ATOM      4  C   UNL     1       1.435  -2.266  -0.451  0.00  0.00    +0.229 C 
BRANCH   4   9
ATOM      5  C   UNL     1      -2.721  -0.409  -2.622  0.00  0.00    +0.086 C 
ATOM      6  C   UNL     1      -1.335  -0.494  -2.038  0.00  0.00    +0.102 A 
ATOM      7  C   UNL     1      -0.452   0.518  -1.958  0.00  0.00    +0.045 A 
ATOM      8  C   UNL     1       0.714  -0.003  -1.350  0.00  0.00    +0.047 A 
ATOM      9  C   UNL     1       0.474  -1.302  -1.096  0.00  0.00    +0.135 A 
ATOM     10  O   UNL     1      -0.769  -1.593  -1.515  0.00  0.00    -0.462 OA
ENDBRANCH   4   9
BRANCH   4  11
ATOM     11  C   UNL     1       2.092  -3.108  -1.515  0.00  0.00    +0.242 C 
ATOM     12  O   UNL     1       1.819  -4.285  -1.611  0.00  0.00    -0.273 OA
ATOM     13  N   UNL     1       2.983  -2.551  -2.359  0.00  0.00    -0.309 N 
ATOM     14  H   UNL     1       3.202  -1.609  -2.282  0.00  0.00    +0.149 HD
BRANCH  13  15
ATOM     15  C   UNL     1       3.622  -3.369  -3.393  0.00  0.00    +0.026 C 
ATOM     16  C   UNL     1       2.550  -3.951  -4.317  0.00  0.00    +0.031 C 
ATOM     17  C   UNL     1       4.582  -2.502  -4.209  0.00  0.00    +0.031 C 
ATOM     18  C   UNL     1       4.400  -4.510  -2.733  0.00  0.00    +0.031 C 
ENDBRANCH  13  15
ENDBRANCH   4  11
ENDBRANCH   1   4
BRANCH   1  19
ATOM     19  C   UNL     1      -0.472  -3.872   0.019  0.00  0.00    +0.151 C 
BRANCH  19  20
ATOM     20  C   UNL     1      -1.676  -3.441   0.818  0.00  0.00    +0.007 A 
ATOM     21  C   UNL     1      -2.481  -2.366   0.635  0.00  0.00    +0.013 A 
ATOM     22  C   UNL     1      -3.540  -2.167   1.501  0.00  0.00    +0.008 A 
ATOM     23  C   UNL     1      -3.742  -3.053   2.506  0.00  0.00    +0.045 A 
ATOM     24  S   UNL     1      -2.416  -4.219   2.244  0.00  0.00    -0.100 S 
ENDBRANCH  19  20
ENDBRANCH   1  19
BRANCH   2  25
ATOM     25  C   UNL     1       0.320  -4.069   2.735  0.00  0.00    +0.264 C 
BRANCH  25  26
ATOM     26  N   UNL     1       1.081  -4.229   3.976  0.00  0.00    -0.154 N 
ATOM     27  N   UNL     1       1.897  -5.193   4.232  0.00  0.00    -0.130 NA
ATOM     28  C   UNL     1       2.391  -4.995   5.438  0.00  0.00    +0.205 A 
ATOM     29  N   UNL     1       1.829  -3.870   5.903  0.00  0.00    -0.108 NA
ATOM     30  N   UNL     1       1.036  -3.431   4.985  0.00  0.00    -0.045 NA
BRANCH  28  31
ATOM     31  C   UNL     1       3.374  -5.853   6.146  0.00  0.00    +0.023 A 
ATOM     32  C   UNL     1       3.867  -7.002   5.531  0.00  0.00    +0.015 A 
ATOM     33  C   UNL     1       4.784  -7.795   6.189  0.00  0.00    +0.046 A 
ATOM     34  C   UNL     1       5.207  -7.455   7.467  0.00  0.00    +0.120 A 
ATOM     35  C   UNL     1       4.713  -6.314   8.084  0.00  0.00    +0.046 A 
ATOM     36  C   UNL     1       3.800  -5.514   7.429  0.00  0.00    +0.015 A 
BRANCH  34  37
ATOM     37  O   UNL     1       6.106  -8.240   8.115  0.00  0.00    -0.495 OA
ATOM     38  C   UNL     1       6.574  -9.399   7.421  0.00  0.00    +0.277 C 
ENDBRANCH  34  37
ENDBRANCH  28  31
ENDBRANCH  25  26
ENDBRANCH   2  25
TORSDOF 10
