REMARK  Name = ZINC39684658
REMARK  11 active torsions:
REMARK  status: ('A' for Active; 'I' for Inactive)
REMARK    1  A    between atoms: C_1  and  C_2
REMARK    2  A    between atoms: C_12  and  O_13
REMARK    3  A    between atoms: O_13  and  C_14
REMARK    4  A    between atoms: C_14  and  C_15
REMARK    5  A    between atoms: C_19  and  C_28
REMARK    6  A    between atoms: N_30  and  C_31
REMARK    7  A    between atoms: C_31  and  C_33
REMARK    8  A    between atoms: C_31  and  C_34
REMARK    9  A    between atoms: C_34  and  C_35
REMARK   10  A    between atoms: C_34  and  C_36
REMARK   11  A    between atoms: C_34  and  C_37
REMARK                            x       y       z     vdW  Elec       q    Type
REMARK                         _______ _______ _______ _____ _____    ______ ____
ROOT
ATOM      1  C   UNL     1       0.234  -6.147   3.567  0.00  0.00    +0.253 C 
ATOM      2  O   UNL     1       0.274  -6.471   2.399  0.00  0.00    -0.272 OA
ATOM      3  N   UNL     1       0.206  -7.093   4.528  0.00  0.00    -0.297 N 
ATOM      4  C   UNL     1       0.150  -6.895   5.995  0.00  0.00    +0.121 C 
ATOM      5  C   UNL     1      -0.808  -7.996   6.502  0.00  0.00    +0.100 C 
ATOM      6  C   UNL     1      -0.755  -9.090   5.422  0.00  0.00    -0.004 C 
ATOM      7  C   UNL     1       0.216  -8.565   4.354  0.00  0.00    +0.115 C 
ATOM      8  C   UNL     1      -0.234 -10.395   6.016  0.00  0.00    -0.010 C 
ATOM      9  C   UNL     1      -0.245 -11.482   4.938  0.00  0.00    -0.082 C 
ATOM     10  N   UNL     1      -1.612 -11.661   4.435  0.00  0.00    +0.379 N 
ATOM     11  C   UNL     1      -2.072 -10.430   3.782  0.00  0.00    -0.082 C 
ATOM     12  C   UNL     1      -2.138  -9.298   4.812  0.00  0.00    -0.010 C 
ATOM     13  H   UNL     1      -1.627 -12.419   3.769  0.00  0.00    -0.086 HD
ATOM     14  H   UNL     1      -2.226 -11.881   5.205  0.00  0.00    -0.086 HD
ENDROOT
BRANCH   5  15
ATOM     15  C   UNL     1      -2.208  -7.453   6.633  0.00  0.00    +0.218 C 
ATOM     16  O   UNL     1      -2.589  -6.573   5.891  0.00  0.00    -0.275 OA
ATOM     17  N   UNL     1      -3.036  -7.946   7.575  0.00  0.00    -0.312 N 
ATOM     18  H   UNL     1      -2.731  -8.650   8.169  0.00  0.00    +0.149 HD
BRANCH  17  19
ATOM     19  C   UNL     1      -4.397  -7.418   7.703  0.00  0.00    +0.075 C 
ATOM     20  C   UNL     1      -4.378  -6.167   8.584  0.00  0.00    +0.028 C 
BRANCH  19  21
ATOM     21  C   UNL     1      -5.297  -8.478   8.342  0.00  0.00    -0.020 C 
ATOM     22  C   UNL     1      -4.757  -8.838   9.728  0.00  0.00    +0.012 C 
ATOM     23  C   UNL     1      -6.718  -7.927   8.476  0.00  0.00    +0.012 C 
ATOM     24  C   UNL     1      -5.316  -9.729   7.462  0.00  0.00    +0.012 C 
ENDBRANCH  19  21
ENDBRANCH  17  19
ENDBRANCH   5  15
BRANCH   1  25
ATOM     25  C   UNL     1       0.217  -4.689   3.945  0.00  0.00    +0.324 C 
BRANCH  25  26
ATOM     26  O   UNL     1       0.253  -3.889   2.761  0.00  0.00    -0.479 OA
BRANCH  26  38
ATOM     27  C   UNL     1       0.292   2.067   0.979  0.00  0.00    +0.045 C 
ATOM     28  C   UNL     1       0.302   0.568   0.827  0.00  0.00    -0.033 A 
ATOM     29  C   UNL     1       0.344  -0.008  -0.400  0.00  0.00    +0.096 A 
ATOM     30  C   UNL     1       0.353  -1.416  -0.515  0.00  0.00    +0.338 A 
ATOM     31  O   UNL     1       0.392  -1.921  -1.622  0.00  0.00    -0.245 OA
ATOM     32  O   UNL     1       0.320  -2.210   0.566  0.00  0.00    -0.418 OA
ATOM     33  C   UNL     1       0.277  -1.700   1.816  0.00  0.00    +0.181 A 
ATOM     34  C   UNL     1       0.272  -0.308   2.003  0.00  0.00    +0.024 A 
ATOM     35  C   UNL     1       0.232   0.224   3.296  0.00  0.00    +0.012 A 
ATOM     36  C   UNL     1       0.205  -0.623   4.381  0.00  0.00    +0.004 A 
ATOM     37  C   UNL     1       0.216  -1.998   4.199  0.00  0.00    +0.049 A 
ATOM     38  C   UNL     1       0.243  -2.540   2.927  0.00  0.00    +0.164 A 
ENDBRANCH  26  38
ENDBRANCH  25  26
ENDBRANCH   1  25
TORSDOF 6
