REMARK  Name = ZINC37442846
REMARK  5 active torsions:
REMARK  status: ('A' for Active; 'I' for Inactive)
REMARK    1  A    between atoms: C_1  and  C_2
REMARK    2  A    between atoms: C_2  and  C_3
REMARK    3  A    between atoms: C_2  and  N_4
REMARK    4  A    between atoms: C_12  and  C_13
REMARK    5  A    between atoms: C_18  and  N_19
REMARK                            x       y       z     vdW  Elec       q    Type
REMARK                         _______ _______ _______ _____ _____    ______ ____
ROOT
ATOM      1  N   UNL     1      -1.396  -0.594   0.042  0.00  0.00    -0.321 N 
ATOM      2  C   UNL     1      -2.332  -0.448   1.048  0.00  0.00    +0.072 A 
ATOM      3  C   UNL     1      -2.309   0.142   2.305  0.00  0.00    +0.028 A 
ATOM      4  C   UNL     1      -3.439   0.122   3.094  0.00  0.00    +0.005 A 
ATOM      5  C   UNL     1      -4.603  -0.484   2.643  0.00  0.00    +0.040 A 
ATOM      6  C   UNL     1      -4.646  -1.074   1.398  0.00  0.00    +0.151 A 
ATOM      7  C   UNL     1      -3.507  -1.063   0.584  0.00  0.00    +0.125 A 
ATOM      8  N   UNL     1      -3.244  -1.546  -0.655  0.00  0.00    -0.225 NA
ATOM      9  C   UNL     1      -2.005  -1.269  -0.983  0.00  0.00    +0.144 A 
ATOM     10  F   UNL     1      -5.784  -1.662   0.966  0.00  0.00    -0.203 F 
ENDROOT
BRANCH   9  11
ATOM     11  C   UNL     1      -1.362  -1.632  -2.261  0.00  0.00    +0.038 A 
ATOM     12  C   UNL     1      -0.115  -2.258  -2.266  0.00  0.00    +0.015 A 
ATOM     13  C   UNL     1       0.481  -2.596  -3.463  0.00  0.00    +0.021 A 
ATOM     14  C   UNL     1      -0.153  -2.317  -4.663  0.00  0.00    +0.043 A 
ATOM     15  C   UNL     1      -1.389  -1.697  -4.673  0.00  0.00    +0.043 A 
ATOM     16  C   UNL     1      -2.005  -1.356  -3.477  0.00  0.00    +0.037 A 
ATOM     17 CL   UNL     1       0.608  -2.747  -6.163  0.00  0.00    -0.083 Cl
BRANCH  16  18
ATOM     18  N   UNL     1      -3.252  -0.737  -3.484  0.00  0.00    -0.357 N 
ATOM     19  H   UNL     1      -3.638  -0.415  -2.655  0.00  0.00    +0.142 HD
ATOM     20  H   UNL     1      -3.734  -0.627  -4.319  0.00  0.00    +0.142 HD
ENDBRANCH  16  18
ENDBRANCH   9  11
BRANCH   1  22
ATOM     21  C   UNL     1      -0.004   1.405   0.256  0.00  0.00    +0.030 C 
ATOM     22  C   UNL     1      -0.013  -0.113   0.065  0.00  0.00    +0.083 C 
ATOM     23  C   UNL     1       0.740  -0.776   1.220  0.00  0.00    +0.030 C 
ENDBRANCH   1  22
TORSDOF 3
