REMARK  Name = ZINC54068011
REMARK  6 active torsions:
REMARK  status: ('A' for Active; 'I' for Inactive)
REMARK    1  A    between atoms: C_1  and  C_2
REMARK    2  A    between atoms: C_7  and  C_8
REMARK    3  A    between atoms: N_10  and  N_11
REMARK    4  A    between atoms: N_14  and  C_15
REMARK    5  A    between atoms: C_15  and  C_17
REMARK    6  A    between atoms: C_15  and  C_18
REMARK                            x       y       z     vdW  Elec       q    Type
REMARK                         _______ _______ _______ _____ _____    ______ ____
ROOT
ATOM      1  N   UNL     1       0.672   0.123   4.921  0.00  0.00    -0.218 N 
ATOM      2  C   UNL     1       0.816  -0.601   6.049  0.00  0.00    +0.316 C 
ATOM      3  O   UNL     1       0.779  -0.051   7.133  0.00  0.00    -0.251 OA
ATOM      4  N   UNL     1       1.001  -1.934   5.975  0.00  0.00    -0.292 N 
ATOM      5  H   UNL     1       0.539   1.082   4.974  0.00  0.00    +0.174 HD
ATOM      6  H   UNL     1       1.030  -2.373   5.111  0.00  0.00    +0.151 HD
ENDROOT
BRANCH   1   9
ATOM      7  C   UNL     1       0.572   0.213   2.545  0.00  0.00    +0.260 C 
ATOM      8  O   UNL     1       0.405   1.416   2.611  0.00  0.00    -0.269 OA
ATOM      9  N   UNL     1       0.715  -0.510   3.672  0.00  0.00    -0.229 N 
ATOM     10  H   UNL     1       0.848  -1.470   3.619  0.00  0.00    +0.173 HD
BRANCH   7  17
ATOM     11  C   UNL     1      -0.013   1.730   0.151  0.00  0.00    +0.044 C 
ATOM     12  C   UNL     1       0.337   0.267   0.065  0.00  0.00    -0.038 A 
ATOM     13  C   UNL     1       0.386  -0.362  -1.162  0.00  0.00    +0.004 A 
ATOM     14  C   UNL     1       0.707  -1.705  -1.243  0.00  0.00    +0.000 A 
ATOM     15  C   UNL     1       0.981  -2.427  -0.095  0.00  0.00    +0.001 A 
ATOM     16  C   UNL     1       0.935  -1.811   1.139  0.00  0.00    +0.013 A 
ATOM     17  C   UNL     1       0.617  -0.455   1.226  0.00  0.00    +0.041 A 
ENDBRANCH   7  17
ENDBRANCH   1   9
BRANCH   4  18
ATOM     18  C   UNL     1       1.157  -2.721   7.201  0.00  0.00    +0.104 C 
ATOM     19  C   UNL     1      -0.223  -3.109   7.737  0.00  0.00    +0.033 C 
BRANCH  18  20
ATOM     20  C   UNL     1       1.948  -3.968   6.901  0.00  0.00    +0.008 A 
ATOM     21  C   UNL     1       1.892  -4.535   5.641  0.00  0.00    +0.011 A 
ATOM     22  C   UNL     1       2.617  -5.678   5.364  0.00  0.00    +0.039 A 
ATOM     23  C   UNL     1       3.402  -6.256   6.348  0.00  0.00    +0.126 A 
ATOM     24  C   UNL     1       3.459  -5.689   7.609  0.00  0.00    +0.077 A 
ATOM     25  C   UNL     1       2.736  -4.541   7.884  0.00  0.00    +0.131 A 
ATOM     26  F   UNL     1       2.796  -3.983   9.113  0.00  0.00    -0.205 F 
ATOM     27  F   UNL     1       4.110  -7.374   6.077  0.00  0.00    -0.205 F 
ENDBRANCH  18  20
ENDBRANCH   4  18
TORSDOF 4
