REMARK  Name = ZINC14550690
REMARK  7 active torsions:
REMARK  status: ('A' for Active; 'I' for Inactive)
REMARK    1  A    between atoms: C_1  and  C_2
REMARK    2  A    between atoms: C_5  and  N_9
REMARK    3  A    between atoms: C_7  and  C_8
REMARK    4  A    between atoms: N_9  and  S_10
REMARK    5  A    between atoms: S_10  and  C_13
REMARK    6  A    between atoms: C_26  and  C_29
REMARK    7  A    between atoms: C_32  and  N_35
REMARK                            x       y       z     vdW  Elec       q    Type
REMARK                         _______ _______ _______ _____ _____    ______ ____
ROOT
ATOM      1  C   UNL     1       3.814   2.113   1.171  0.00  0.00    +0.109 A 
ATOM      2  C   UNL     1       4.479   2.962   0.305  0.00  0.00    +0.030 A 
ATOM      3  C   UNL     1       3.825   3.459  -0.804  0.00  0.00    +0.025 A 
ATOM      4  C   UNL     1       2.502   3.106  -1.046  0.00  0.00    +0.031 A 
ATOM      5  C   UNL     1       1.832   2.259  -0.182  0.00  0.00    -0.018 A 
ATOM      6  C   UNL     1       2.501   1.763   0.930  0.00  0.00    +0.034 A 
ATOM      7  C   UNL     1       0.400   1.845  -0.388  0.00  0.00    +0.049 C 
ATOM      8  C   UNL     1      -0.387   2.303   0.832  0.00  0.00    -0.023 C 
ATOM      9  C   UNL     1      -0.989   3.450   0.572  0.00  0.00    -0.030 C 
ATOM     10  C   UNL     1      -0.667   3.916  -0.837  0.00  0.00    +0.033 C 
ATOM     11  C   UNL     1      -0.267   2.603  -1.551  0.00  0.00    +0.029 C 
ATOM     12  C   UNL     1       0.686   2.888  -2.683  0.00  0.00    +0.105 C 
ATOM     13  N   UNL     1       1.858   3.614  -2.180  0.00  0.00    -0.336 N 
ATOM     14  H   UNL     1       2.176   4.418  -2.619  0.00  0.00    +0.147 HD
ENDROOT
BRANCH  12  15
ATOM     15  C   UNL     1       1.128   1.580  -3.289  0.00  0.00    -0.027 A 
ATOM     16  C   UNL     1       2.125   0.840  -2.683  0.00  0.00    +0.008 A 
ATOM     17  C   UNL     1       2.526  -0.362  -3.236  0.00  0.00    +0.033 A 
ATOM     18  C   UNL     1       1.938  -0.818  -4.401  0.00  0.00    +0.126 A 
ATOM     19  C   UNL     1       0.944  -0.074  -5.010  0.00  0.00    +0.033 A 
ATOM     20  C   UNL     1       0.539   1.125  -4.454  0.00  0.00    +0.008 A 
BRANCH  18  21
ATOM     21  N   UNL     1       2.371  -2.102  -4.995  0.00  0.00    +0.056 N 
ATOM     22  O   UNL     1       1.852  -2.504  -6.021  0.00  0.00    -0.126 OA
ATOM     23  O   UNL     1       3.246  -2.757  -4.459  0.00  0.00    -0.126 OA
ENDBRANCH  18  21
ENDBRANCH  12  15
BRANCH   1  24
ATOM     24  S   UNL     1       4.647   1.474   2.586  0.00  0.00    +0.072 S 
ATOM     25  O   UNL     1       5.772   2.313   2.808  0.00  0.00    -0.150 OA
ATOM     26  O   UNL     1       3.652   1.254   3.577  0.00  0.00    -0.150 OA
BRANCH  24  27
ATOM     27  N   UNL     1       5.241  -0.016   2.174  0.00  0.00    -0.216 N 
ATOM     28  H   UNL     1       4.920  -0.809   2.630  0.00  0.00    +0.174 HD
BRANCH  27  33
ATOM     29  C   UNL     1       9.155  -0.480  -1.903  0.00  0.00    +0.044 C 
ATOM     30  C   UNL     1       8.115  -0.356  -0.820  0.00  0.00    -0.047 A 
ATOM     31  C   UNL     1       6.810  -0.739  -1.070  0.00  0.00    +0.005 A 
ATOM     32  C   UNL     1       5.855  -0.632  -0.078  0.00  0.00    +0.025 A 
ATOM     33  C   UNL     1       6.205  -0.129   1.169  0.00  0.00    +0.048 A 
ATOM     34  C   UNL     1       7.517   0.255   1.417  0.00  0.00    +0.028 A 
ATOM     35  C   UNL     1       8.467   0.141   0.421  0.00  0.00    -0.046 A 
ATOM     36  C   UNL     1       9.891   0.557   0.689  0.00  0.00    +0.044 C 
ENDBRANCH  27  33
ENDBRANCH  24  27
ENDBRANCH   1  24
TORSDOF 5
