REMARK  Name = ZINC39674386
REMARK  11 active torsions:
REMARK  status: ('A' for Active; 'I' for Inactive)
REMARK    1  A    between atoms: C_1  and  C_2
REMARK    2  A    between atoms: C_3  and  C_12
REMARK    3  A    between atoms: C_7  and  O_8
REMARK    4  A    between atoms: O_8  and  C_9
REMARK    5  A    between atoms: C_9  and  C_11
REMARK    6  A    between atoms: C_16  and  C_25
REMARK    7  A    between atoms: N_27  and  C_28
REMARK    8  A    between atoms: C_28  and  C_30
REMARK    9  A    between atoms: C_28  and  C_31
REMARK   10  A    between atoms: C_32  and  C_38
REMARK   11  A    between atoms: C_35  and  C_37
REMARK                            x       y       z     vdW  Elec       q    Type
REMARK                         _______ _______ _______ _____ _____    ______ ____
ROOT
ATOM      1  C   UNL     1       0.372   0.421  -4.307  0.00  0.00    +0.247 C 
ATOM      2  O   UNL     1       0.455   1.586  -4.643  0.00  0.00    -0.270 OA
ATOM      3  N   UNL     1       0.070  -0.524  -5.220  0.00  0.00    -0.296 N 
ATOM      4  C   UNL     1      -0.169  -1.968  -4.988  0.00  0.00    +0.121 C 
ATOM      5  C   UNL     1      -1.338  -2.326  -5.933  0.00  0.00    +0.100 C 
ATOM      6  C   UNL     1      -1.285  -1.264  -7.044  0.00  0.00    -0.004 C 
ATOM      7  C   UNL     1      -0.104  -0.352  -6.682  0.00  0.00    +0.115 C 
ATOM      8  C   UNL     1      -2.579  -0.458  -7.067  0.00  0.00    -0.010 C 
ATOM      9  C   UNL     1      -2.525   0.553  -8.216  0.00  0.00    -0.082 C 
ATOM     10  N   UNL     1      -2.346  -0.158  -9.487  0.00  0.00    +0.379 N 
ATOM     11  C   UNL     1      -1.055  -0.857  -9.493  0.00  0.00    -0.082 C 
ATOM     12  C   UNL     1      -1.046  -1.927  -8.398  0.00  0.00    -0.010 C 
ATOM     13  H   UNL     1      -3.090  -0.829  -9.604  0.00  0.00    -0.086 HD
ATOM     14  H   UNL     1      -2.371   0.504 -10.248  0.00  0.00    -0.086 HD
ENDROOT
BRANCH   1  17
ATOM     15  C   UNL     1      -0.498   2.186  -2.187  0.00  0.00    +0.048 C 
ATOM     16  C   UNL     1       0.188   0.883  -1.867  0.00  0.00    +0.004 A 
ATOM     17  C   UNL     1       0.603   0.039  -2.898  0.00  0.00    +0.043 A 
ATOM     18  C   UNL     1       1.238  -1.166  -2.593  0.00  0.00    +0.013 A 
ATOM     19  C   UNL     1       1.452  -1.519  -1.276  0.00  0.00    +0.004 A 
ATOM     20  C   UNL     1       1.039  -0.682  -0.256  0.00  0.00    +0.047 A 
ATOM     21  C   UNL     1       0.412   0.521  -0.549  0.00  0.00    +0.135 A 
BRANCH  21  22
ATOM     22  O   UNL     1       0.013   1.343   0.458  0.00  0.00    -0.426 OA
BRANCH  22  23
ATOM     23  C   UNL     1       0.761   2.426   0.721  0.00  0.00    +0.309 C 
ATOM     24  O   UNL     1       1.804   2.598   0.135  0.00  0.00    -0.251 OA
ATOM     25  C   UNL     1       0.300   3.429   1.747  0.00  0.00    +0.136 C 
ENDBRANCH  22  23
ENDBRANCH  21  22
ENDBRANCH   1  17
BRANCH   5  26
ATOM     26  C   UNL     1      -1.142  -3.704  -6.511  0.00  0.00    +0.219 C 
ATOM     27  O   UNL     1      -0.025  -4.169  -6.605  0.00  0.00    -0.275 OA
ATOM     28  N   UNL     1      -2.207  -4.420  -6.923  0.00  0.00    -0.309 N 
ATOM     29  H   UNL     1      -3.099  -4.049  -6.848  0.00  0.00    +0.149 HD
BRANCH  28  30
ATOM     30  C   UNL     1      -2.016  -5.760  -7.485  0.00  0.00    +0.100 C 
ATOM     31  C   UNL     1      -2.098  -6.799  -6.365  0.00  0.00    +0.033 C 
BRANCH  30  32
ATOM     32  C   UNL     1      -3.090  -6.034  -8.505  0.00  0.00    -0.001 C 
ATOM     33  C   UNL     1      -2.941  -6.296  -9.806  0.00  0.00    +0.063 C 
ATOM     34  N   UNL     1      -4.141  -6.489 -10.397  0.00  0.00    -0.159 NA
ATOM     35  N   UNL     1      -5.108  -6.386  -9.638  0.00  0.00    -0.180 NA
ATOM     36  C   UNL     1      -4.593  -6.083  -8.292  0.00  0.00    +0.154 C 
ATOM     37  C   UNL     1      -5.115  -4.729  -7.807  0.00  0.00    +0.039 C 
ATOM     38  C   UNL     1      -1.615  -6.368 -10.518  0.00  0.00    +0.067 C 
ENDBRANCH  30  32
ENDBRANCH  28  30
ENDBRANCH   5  26
TORSDOF 6
