REMARK  Name = ZINC09612041
REMARK  15 active torsions:
REMARK  status: ('A' for Active; 'I' for Inactive)
REMARK    1  A    between atoms: C_1  and  C_2
REMARK    2  A    between atoms: C_2  and  C_4
REMARK    3  A    between atoms: C_2  and  N_24
REMARK    4  A    between atoms: C_4  and  C_6
REMARK    5  A    between atoms: C_4  and  N_72
REMARK    6  A    between atoms: N_13  and  C_16
REMARK    7  A    between atoms: C_21  and  O_22
REMARK    8  A    between atoms: O_22  and  C_23
REMARK    9  A    between atoms: C_25  and  C_27
REMARK   10  A    between atoms: C_29  and  O_37
REMARK   11  A    between atoms: C_30  and  O_35
REMARK   12  A    between atoms: C_31  and  O_33
REMARK   13  A    between atoms: O_33  and  C_34
REMARK   14  A    between atoms: O_35  and  C_36
REMARK   15  A    between atoms: O_37  and  C_38
REMARK                            x       y       z     vdW  Elec       q    Type
REMARK                         _______ _______ _______ _____ _____    ______ ____
ROOT
ATOM      1  C   UNL     1       0.898   5.197   0.069  0.00  0.00    -0.010 C 
ENDROOT
BRANCH   1   7
ATOM      2  C   UNL     1       1.410   4.770   2.397  0.00  0.00    -0.059 C 
ATOM      3  C   UNL     1       2.529   4.799   3.441  0.00  0.00    +0.086 C 
ATOM      4  N   UNL     1       3.023   6.175   3.587  0.00  0.00    -0.331 N 
ATOM      5  C   UNL     1       3.537   6.685   2.308  0.00  0.00    +0.086 C 
ATOM      6  C   UNL     1       2.418   6.656   1.264  0.00  0.00    -0.059 C 
ATOM      7  N   UNL     1       1.945   5.264   1.111  0.00  0.00    +0.388 N 
ATOM      8  H   UNL     1       2.735   4.673   0.828  0.00  0.00    -0.081 HD
BRANCH   4   9
ATOM      9  C   UNL     1       4.000   6.254   4.586  0.00  0.00    +0.072 A 
ATOM     10  C   UNL     1       4.514   5.095   5.149  0.00  0.00    +0.027 A 
ATOM     11  C   UNL     1       5.482   5.175   6.132  0.00  0.00    +0.002 A 
ATOM     12  C   UNL     1       5.933   6.409   6.565  0.00  0.00    +0.004 A 
ATOM     13  C   UNL     1       5.420   7.568   6.012  0.00  0.00    +0.047 A 
ATOM     14  C   UNL     1       4.454   7.497   5.023  0.00  0.00    +0.141 A 
BRANCH  14  15
ATOM     15  O   UNL     1       3.949   8.636   4.479  0.00  0.00    -0.493 OA
ATOM     16  C   UNL     1       4.461   9.874   4.976  0.00  0.00    +0.277 C 
ENDBRANCH  14  15
ENDBRANCH   4   9
ENDBRANCH   1   7
BRANCH   1  17
ATOM     17  C   UNL     1       0.359   3.792   0.003  0.00  0.00    -0.022 A 
ATOM     18  C   UNL     1      -0.923   3.375  -0.136  0.00  0.00    +0.009 A 
ATOM     19  C   UNL     1      -1.186   2.018  -0.179  0.00  0.00    +0.008 A 
ATOM     20  C   UNL     1      -0.155   1.145  -0.070  0.00  0.00    +0.045 A 
ATOM     21  S   UNL     1       1.244   2.243   0.087  0.00  0.00    -0.103 S 
ENDBRANCH   1  17
BRANCH   1  23
ATOM     22  C   UNL     1       2.737   4.685  -1.543  0.00  0.00    +0.026 C 
ATOM     23  C   UNL     1       1.517   5.570  -1.280  0.00  0.00    +0.061 C 
BRANCH  23  24
ATOM     24  N   UNL     1       0.529   5.370  -2.343  0.00  0.00    -0.310 N 
ATOM     25  C   UNL     1       0.626   6.067  -3.492  0.00  0.00    +0.244 C 
ATOM     26  O   UNL     1       1.532   6.862  -3.647  0.00  0.00    -0.270 OA
ATOM     27  H   UNL     1      -0.194   4.735  -2.219  0.00  0.00    +0.149 HD
BRANCH  25  28
ATOM     28  C   UNL     1      -0.370   5.864  -4.563  0.00  0.00    +0.044 A 
ATOM     29  C   UNL     1      -1.408   4.947  -4.389  0.00  0.00    +0.062 A 
ATOM     30  C   UNL     1      -2.342   4.763  -5.392  0.00  0.00    +0.166 A 
ATOM     31  C   UNL     1      -2.241   5.483  -6.579  0.00  0.00    +0.204 A 
ATOM     32  C   UNL     1      -1.204   6.395  -6.757  0.00  0.00    +0.166 A 
ATOM     33  C   UNL     1      -0.271   6.586  -5.755  0.00  0.00    +0.062 A 
BRANCH  32  34
ATOM     34  O   UNL     1      -1.109   7.097  -7.918  0.00  0.00    -0.491 OA
ATOM     35  C   UNL     1      -0.019   8.015  -8.033  0.00  0.00    +0.277 C 
ENDBRANCH  32  34
BRANCH  31  36
ATOM     36  O   UNL     1      -3.157   5.296  -7.566  0.00  0.00    -0.488 OA
ATOM     37  C   UNL     1      -2.870   4.286  -8.535  0.00  0.00    +0.277 C 
ENDBRANCH  31  36
BRANCH  30  38
ATOM     38  O   UNL     1      -3.357   3.874  -5.221  0.00  0.00    -0.491 OA
ATOM     39  C   UNL     1      -3.399   3.169  -3.978  0.00  0.00    +0.277 C 
ENDBRANCH  30  38
ENDBRANCH  25  28
ENDBRANCH  23  24
ENDBRANCH   1  23
TORSDOF 10
