REMARK  Name = ZINC39672720
REMARK  6 active torsions:
REMARK  status: ('A' for Active; 'I' for Inactive)
REMARK    1  A    between atoms: C_1  and  C_2
REMARK    2  A    between atoms: C_5  and  C_8
REMARK    3  A    between atoms: C_12  and  C_21
REMARK    4  A    between atoms: N_23  and  C_24
REMARK    5  A    between atoms: C_24  and  C_25
REMARK    6  A    between atoms: C_25  and  N_31
REMARK                            x       y       z     vdW  Elec       q    Type
REMARK                         _______ _______ _______ _____ _____    ______ ____
ROOT
ATOM      1  C   UNL     1      -1.412  -5.932  -0.813  0.00  0.00    +0.247 C 
ATOM      2  O   UNL     1      -1.612  -6.945  -1.454  0.00  0.00    -0.270 OA
ATOM      3  N   UNL     1      -0.906  -6.011   0.433  0.00  0.00    -0.296 N 
ATOM      4  C   UNL     1      -0.683  -4.907   1.396  0.00  0.00    +0.121 C 
ATOM      5  C   UNL     1      -1.081  -5.497   2.767  0.00  0.00    +0.100 C 
ATOM      6  C   UNL     1      -0.922  -7.018   2.600  0.00  0.00    -0.004 C 
ATOM      7  C   UNL     1      -0.451  -7.225   1.153  0.00  0.00    +0.115 C 
ATOM      8  C   UNL     1      -2.260  -7.717   2.819  0.00  0.00    -0.010 C 
ATOM      9  C   UNL     1      -2.064  -9.231   2.705  0.00  0.00    -0.082 C 
ATOM     10  N   UNL     1      -1.087  -9.677   3.706  0.00  0.00    +0.379 N 
ATOM     11  C   UNL     1       0.221  -9.071   3.433  0.00  0.00    -0.082 C 
ATOM     12  C   UNL     1       0.122  -7.550   3.578  0.00  0.00    -0.010 C 
ATOM     13  H   UNL     1      -1.399  -9.400   4.625  0.00  0.00    -0.086 HD
ATOM     14  H   UNL     1      -1.006 -10.682   3.670  0.00  0.00    -0.086 HD
ENDROOT
BRANCH   1  19
ATOM     15  C   UNL     1      -2.630  -0.793  -3.100  0.00  0.00    +0.044 C 
ATOM     16  C   UNL     1      -2.311  -2.139  -2.502  0.00  0.00    -0.050 A 
ATOM     17  C   UNL     1      -2.896  -3.280  -3.021  0.00  0.00    +0.004 A 
ATOM     18  C   UNL     1      -2.608  -4.515  -2.478  0.00  0.00    +0.013 A 
ATOM     19  C   UNL     1      -1.725  -4.612  -1.401  0.00  0.00    +0.037 A 
ATOM     20  C   UNL     1      -1.138  -3.456  -0.882  0.00  0.00    +0.013 A 
ATOM     21  C   UNL     1      -1.430  -2.228  -1.438  0.00  0.00    +0.004 A 
ENDBRANCH   1  19
BRANCH   5  22
ATOM     22  C   UNL     1      -2.511  -5.150   3.092  0.00  0.00    +0.218 C 
ATOM     23  O   UNL     1      -3.320  -5.010   2.199  0.00  0.00    -0.275 OA
ATOM     24  N   UNL     1      -2.892  -4.995   4.376  0.00  0.00    -0.313 N 
ATOM     25  H   UNL     1      -2.267  -5.186   5.093  0.00  0.00    +0.149 HD
BRANCH  24  26
ATOM     26  C   UNL     1      -4.248  -4.538   4.688  0.00  0.00    +0.126 C 
BRANCH  26  27
ATOM     27  C   UNL     1      -4.361  -4.262   6.189  0.00  0.00    +0.038 C 
ATOM     28  C   UNL     1      -3.959  -5.516   6.969  0.00  0.00    +0.024 C 
ATOM     29  C   UNL     1      -4.889  -6.671   6.592  0.00  0.00    +0.002 C 
ATOM     30  C   UNL     1      -6.332  -6.297   6.934  0.00  0.00    +0.000 C 
ATOM     31  C   UNL     1      -6.734  -5.044   6.154  0.00  0.00    +0.002 C 
ATOM     32  C   UNL     1      -5.804  -3.889   6.531  0.00  0.00    +0.024 C 
BRANCH  27  33
ATOM     33  N   UNL     1      -3.469  -3.153   6.551  0.00  0.00    -0.291 NA
ATOM     34  C   UNL     1      -3.850  -1.919   5.848  0.00  0.00    +0.113 C 
ATOM     35  C   UNL     1      -2.934  -0.778   6.299  0.00  0.00    +0.175 C 
ATOM     36  O   UNL     1      -1.573  -1.141   6.055  0.00  0.00    -0.377 OA
ATOM     37  C   UNL     1      -1.167  -2.338   6.725  0.00  0.00    +0.175 C 
ATOM     38  C   UNL     1      -2.065  -3.495   6.278  0.00  0.00    +0.113 C 
ENDBRANCH  27  33
ENDBRANCH  26  27
ENDBRANCH  24  26
ENDBRANCH   5  22
TORSDOF 5
