REMARK  Name = ZINC38786444
REMARK  10 active torsions:
REMARK  status: ('A' for Active; 'I' for Inactive)
REMARK    1  A    between atoms: C_1  and  C_2
REMARK    2  A    between atoms: C_2  and  N_3
REMARK    3  A    between atoms: N_3  and  C_4
REMARK    4  A    between atoms: N_3  and  C_6
REMARK    5  A    between atoms: C_4  and  C_5
REMARK    6  A    between atoms: C_6  and  C_7
REMARK    7  A    between atoms: C_7  and  N_8
REMARK    8  A    between atoms: C_11  and  S_15
REMARK    9  A    between atoms: S_15  and  C_16
REMARK   10  A    between atoms: C_16  and  C_17
REMARK                            x       y       z     vdW  Elec       q    Type
REMARK                         _______ _______ _______ _____ _____    ______ ____
ROOT
ATOM      1  N   UNL     1       1.354  -4.017  -2.685  0.00  0.00    -0.298 N 
ATOM      2  C   UNL     1       2.220  -4.831  -2.010  0.00  0.00    +0.029 A 
ATOM      3  C   UNL     1       2.086  -6.171  -2.122  0.00  0.00    +0.004 A 
ATOM      4  C   UNL     1       1.054  -6.691  -2.933  0.00  0.00    +0.107 A 
ATOM      5  N   UNL     1       0.237  -5.861  -3.570  0.00  0.00    -0.186 NA
ATOM      6  C   UNL     1       0.378  -4.543  -3.446  0.00  0.00    +0.350 A 
ATOM      7  O   UNL     1      -0.388  -3.799  -4.037  0.00  0.00    -0.244 OA
ATOM      8  C   UNL     1       3.142  -6.874  -1.298  0.00  0.00    +0.040 C 
ATOM      9  C   UNL     1       4.208  -5.794  -1.009  0.00  0.00    +0.011 C 
ATOM     10  C   UNL     1       3.380  -4.494  -1.100  0.00  0.00    +0.054 C 
ENDROOT
BRANCH   1  11
ATOM     11  C   UNL     1       1.487  -2.563  -2.574  0.00  0.00    +0.108 C 
BRANCH  11  12
ATOM     12  C   UNL     1       0.648  -2.063  -1.395  0.00  0.00    -0.057 C 
BRANCH  12  13
ATOM     13  N   UNL     1       0.877  -0.624  -1.208  0.00  0.00    +0.380 N 
ATOM     14  H   UNL     1       1.865  -0.451  -1.102  0.00  0.00    -0.082 HD
BRANCH  13  16
ATOM     15  C   UNL     1       0.723   1.592  -2.239  0.00  0.00    -0.017 C 
ATOM     16  C   UNL     1       0.374   0.108  -2.378  0.00  0.00    -0.082 C 
ENDBRANCH  13  16
BRANCH  13  17
ATOM     17  C   UNL     1       0.169  -0.169  -0.004  0.00  0.00    -0.082 C 
ATOM     18  C   UNL     1       0.798  -0.814   1.233  0.00  0.00    -0.017 C 
ENDBRANCH  13  17
ENDBRANCH  12  13
ENDBRANCH  11  12
ENDBRANCH   1  11
BRANCH   4  19
ATOM     19  S   UNL     1       0.851  -8.433  -3.100  0.00  0.00    -0.101 S 
BRANCH  19  20
ATOM     20  C   UNL     1      -0.570  -8.605  -4.215  0.00  0.00    +0.111 C 
BRANCH  20  21
ATOM     21  C   UNL     1      -0.854 -10.067  -4.444  0.00  0.00    -0.036 A 
ATOM     22  C   UNL     1      -0.241 -10.734  -5.489  0.00  0.00    +0.004 A 
ATOM     23  C   UNL     1      -0.502 -12.075  -5.700  0.00  0.00    +0.002 A 
ATOM     24  C   UNL     1      -1.375 -12.750  -4.868  0.00  0.00    +0.020 A 
ATOM     25  C   UNL     1      -1.988 -12.082  -3.823  0.00  0.00    +0.041 A 
ATOM     26  C   UNL     1      -1.723 -10.742  -3.608  0.00  0.00    +0.024 A 
ATOM     27 CL   UNL     1      -3.085 -12.929  -2.777  0.00  0.00    -0.084 Cl
ENDBRANCH  20  21
ENDBRANCH  19  20
ENDBRANCH   4  19
TORSDOF 8
