REMARK  Name = ZINC00812909
REMARK  10 active torsions:
REMARK  status: ('A' for Active; 'I' for Inactive)
REMARK    1  A    between atoms: C_1  and  O_2
REMARK    2  A    between atoms: O_2  and  C_3
REMARK    3  A    between atoms: C_7  and  C_11
REMARK    4  A    between atoms: C_8  and  O_9
REMARK    5  A    between atoms: O_9  and  C_10
REMARK    6  A    between atoms: C_16  and  C_21
REMARK    7  A    between atoms: C_24  and  O_29
REMARK    8  A    between atoms: C_25  and  O_27
REMARK    9  A    between atoms: O_27  and  C_28
REMARK   10  A    between atoms: O_29  and  C_30
REMARK                            x       y       z     vdW  Elec       q    Type
REMARK                         _______ _______ _______ _____ _____    ______ ____
ROOT
ATOM      1  C   UNL     1       1.340  -4.110  -2.292  0.00  0.00    +0.140 C 
ATOM      2  C   UNL     1       2.542  -4.584  -1.507  0.00  0.00    +0.037 C 
ATOM      3  C   UNL     1       3.664  -5.107  -2.025  0.00  0.00    +0.017 C 
ATOM      4  C   UNL     1       4.813  -5.514  -1.116  0.00  0.00    +0.059 C 
ATOM      5  C   UNL     1       4.266  -6.013   0.221  0.00  0.00    +0.032 C 
ATOM      6  C   UNL     1       3.468  -4.868   0.855  0.00  0.00    +0.088 C 
ATOM      7  C   UNL     1       2.401  -4.439  -0.107  0.00  0.00    +0.163 C 
ATOM      8  O   UNL     1       1.380  -3.948   0.332  0.00  0.00    -0.292 OA
ATOM      9  N   UNL     1       3.891  -5.321  -3.347  0.00  0.00    -0.316 N 
ATOM     10  C   UNL     1       3.646  -4.392  -4.354  0.00  0.00    +0.052 A 
ATOM     11  C   UNL     1       4.658  -3.864  -5.136  0.00  0.00    +0.025 A 
ATOM     12  C   UNL     1       4.338  -2.981  -6.154  0.00  0.00    +0.002 A 
ATOM     13  C   UNL     1       3.019  -2.635  -6.386  0.00  0.00    +0.002 A 
ATOM     14  C   UNL     1       2.009  -3.148  -5.592  0.00  0.00    +0.025 A 
ATOM     15  C   UNL     1       2.328  -4.015  -4.557  0.00  0.00    +0.049 A 
ATOM     16  N   UNL     1       1.351  -4.494  -3.687  0.00  0.00    -0.331 N 
ATOM     17  H   UNL     1       4.249  -6.184  -3.608  0.00  0.00    +0.152 HD
ATOM     18  H   UNL     1       0.668  -5.096  -4.022  0.00  0.00    +0.147 HD
ENDROOT
BRANCH   1  23
ATOM     19  C   UNL     1       0.035  -0.558  -2.396  0.00  0.00    +0.162 A 
ATOM     20  C   UNL     1       1.171   0.159  -2.057  0.00  0.00    +0.049 A 
ATOM     21  C   UNL     1       2.355  -0.506  -1.796  0.00  0.00    +0.004 A 
ATOM     22  C   UNL     1       2.409  -1.885  -1.872  0.00  0.00    +0.009 A 
ATOM     23  C   UNL     1       1.278  -2.606  -2.210  0.00  0.00    +0.023 A 
ATOM     24  C   UNL     1       0.087  -1.947  -2.467  0.00  0.00    +0.167 A 
BRANCH  19  26
ATOM     25  C   UNL     1      -1.112   1.520  -2.555  0.00  0.00    +0.277 C 
ATOM     26  O   UNL     1      -1.131   0.094  -2.652  0.00  0.00    -0.491 OA
ENDBRANCH  19  26
BRANCH  24  27
ATOM     27  O   UNL     1      -1.027  -2.655  -2.793  0.00  0.00    -0.491 OA
ATOM     28  C   UNL     1      -1.246  -2.918  -4.180  0.00  0.00    +0.277 C 
ENDBRANCH  24  27
ENDBRANCH   1  23
BRANCH   5  29
ATOM     29  C   UNL     1       5.407  -6.404   1.125  0.00  0.00    -0.040 A 
ATOM     30  C   UNL     1       6.373  -5.473   1.458  0.00  0.00    +0.008 A 
ATOM     31  C   UNL     1       7.421  -5.826   2.287  0.00  0.00    +0.049 A 
ATOM     32  C   UNL     1       7.505  -7.116   2.787  0.00  0.00    +0.161 A 
ATOM     33  C   UNL     1       6.532  -8.053   2.453  0.00  0.00    +0.162 A 
ATOM     34  C   UNL     1       5.481  -7.691   1.625  0.00  0.00    +0.053 A 
BRANCH  33  35
ATOM     35  O   UNL     1       6.609  -9.320   2.941  0.00  0.00    -0.491 OA
ATOM     36  C   UNL     1       5.575 -10.228   2.556  0.00  0.00    +0.277 C 
ENDBRANCH  33  35
BRANCH  32  37
ATOM     37  O   UNL     1       8.535  -7.465   3.603  0.00  0.00    -0.491 OA
ATOM     38  C   UNL     1       9.496  -6.452   3.904  0.00  0.00    +0.277 C 
ENDBRANCH  32  37
ENDBRANCH   5  29
TORSDOF 6
