REMARK  Name = ZINC05269861
REMARK  6 active torsions:
REMARK  status: ('A' for Active; 'I' for Inactive)
REMARK    1  A    between atoms: C_1  and  C_2
REMARK    2  A    between atoms: C_3  and  C_8
REMARK    3  A    between atoms: C_4  and  C_7
REMARK    4  A    between atoms: C_8  and  S_9
REMARK    5  A    between atoms: S_9  and  C_10
REMARK    6  A    between atoms: C_16  and  C_21
REMARK                            x       y       z     vdW  Elec       q    Type
REMARK                         _______ _______ _______ _____ _____    ______ ____
ROOT
ATOM      1  C   UNL     1      -3.073   3.671   1.454  0.00  0.00    +0.170 A 
ATOM      2  N   UNL     1      -3.756   4.181   2.520  0.00  0.00    -0.301 N 
ATOM      3  H   UNL     1      -3.464   3.947   3.447  0.00  0.00    +0.171 HD
ATOM      4  C   UNL     1      -4.815   4.993   2.346  0.00  0.00    +0.261 A 
ATOM      5  O   UNL     1      -5.411   5.444   3.309  0.00  0.00    -0.267 OA
ATOM      6  C   UNL     1      -5.235   5.314   1.019  0.00  0.00    +0.080 A 
ATOM      7  C   UNL     1      -6.344   6.158   0.582  0.00  0.00    +0.004 A 
ATOM      8  C   UNL     1      -6.556   6.320  -0.745  0.00  0.00    +0.056 A 
ATOM      9  S   UNL     1      -5.267   5.342  -1.492  0.00  0.00    -0.076 S 
ATOM     10  C   UNL     1      -4.480   4.742  -0.019  0.00  0.00    +0.117 A 
ATOM     11  N   UNL     1      -3.440   3.951   0.220  0.00  0.00    -0.216 NA
ENDROOT
BRANCH   7  12
ATOM     12  C   UNL     1      -7.223   6.823   1.574  0.00  0.00    -0.017 A 
ATOM     13  C   UNL     1      -7.788   6.085   2.613  0.00  0.00    +0.008 A 
ATOM     14  C   UNL     1      -8.600   6.712   3.537  0.00  0.00    +0.001 A 
ATOM     15  C   UNL     1      -8.863   8.065   3.426  0.00  0.00    +0.000 A 
ATOM     16  C   UNL     1      -8.309   8.800   2.394  0.00  0.00    +0.001 A 
ATOM     17  C   UNL     1      -7.491   8.187   1.468  0.00  0.00    +0.008 A 
ENDBRANCH   7  12
BRANCH   1  18
ATOM     18  S   UNL     1      -1.688   2.618   1.731  0.00  0.00    -0.083 S 
BRANCH  18  19
ATOM     19  C   UNL     1      -1.216   2.262   0.020  0.00  0.00    +0.117 C 
BRANCH  19  22
ATOM     20  C   UNL     1       1.916   3.107   0.001  0.00  0.00    +0.069 C 
ATOM     21  C   UNL     1       1.351   1.711  -0.002  0.00  0.00    +0.085 A 
ATOM     22  C   UNL     1      -0.016   1.350   0.009  0.00  0.00    +0.027 A 
ATOM     23  C   UNL     1       0.002  -0.004   0.002  0.00  0.00    +0.138 A 
ATOM     24  O   UNL     1       1.293  -0.366  -0.012  0.00  0.00    -0.359 OA
ATOM     25  N   UNL     1       2.024   0.597  -0.014  0.00  0.00    -0.083 NA
ATOM     26  C   UNL     1      -1.193  -0.923   0.009  0.00  0.00    +0.089 C 
ENDBRANCH  19  22
ENDBRANCH  18  19
ENDBRANCH   1  18
TORSDOF 4
