REMARK  Name = ZINC00931274
REMARK  12 active torsions:
REMARK  status: ('A' for Active; 'I' for Inactive)
REMARK    1  A    between atoms: C_1  and  N_2
REMARK    2  A    between atoms: C_3  and  C_22
REMARK    3  A    between atoms: C_6  and  S_7
REMARK    4  A    between atoms: S_7  and  C_8
REMARK    5  A    between atoms: C_8  and  C_9
REMARK    6  A    between atoms: N_11  and  C_12
REMARK    7  A    between atoms: C_14  and  O_20
REMARK    8  A    between atoms: C_16  and  O_18
REMARK    9  A    between atoms: O_18  and  C_19
REMARK   10  A    between atoms: O_20  and  C_21
REMARK   11  A    between atoms: C_25  and  S_28
REMARK   12  A    between atoms: S_28  and  N_31
REMARK                            x       y       z     vdW  Elec       q    Type
REMARK                         _______ _______ _______ _____ _____    ______ ____
ROOT
ATOM      1  C   UNL     1      -5.644   0.099  -0.328  0.00  0.00    +0.153 C 
ATOM      2  N   UNL     1      -5.110   1.450  -0.137  0.00  0.00    -0.305 N 
ATOM      3  C   UNL     1      -5.828   2.611   0.033  0.00  0.00    +0.165 A 
ATOM      4  N   UNL     1      -4.959   3.586   0.168  0.00  0.00    -0.128 NA
ATOM      5  N   UNL     1      -3.763   3.119   0.102  0.00  0.00    -0.122 NA
ATOM      6  C   UNL     1      -3.796   1.819  -0.089  0.00  0.00    +0.192 A 
ENDROOT
BRANCH   3   7
ATOM      7  C   UNL     1      -7.301   2.738   0.057  0.00  0.00    +0.019 A 
ATOM      8  C   UNL     1      -7.900   3.984  -0.133  0.00  0.00    +0.013 A 
ATOM      9  C   UNL     1      -9.275   4.095  -0.113  0.00  0.00    +0.029 A 
ATOM     10  C   UNL     1     -10.059   2.976   0.105  0.00  0.00    +0.106 A 
ATOM     11  C   UNL     1      -9.471   1.739   0.299  0.00  0.00    +0.029 A 
ATOM     12  C   UNL     1      -8.098   1.613   0.277  0.00  0.00    +0.013 A 
BRANCH  10  13
ATOM     13  S   UNL     1     -11.815   3.127   0.136  0.00  0.00    +0.061 S 
ATOM     14  O   UNL     1     -12.135   4.291  -0.613  0.00  0.00    -0.153 OA
ATOM     15  O   UNL     1     -12.338   1.846  -0.185  0.00  0.00    -0.153 OA
BRANCH  13  16
ATOM     16  N   UNL     1     -12.251   3.438   1.703  0.00  0.00    -0.177 NA
ATOM     17  C   UNL     1     -12.581   2.426   2.718  0.00  0.00    +0.109 C 
ATOM     18  C   UNL     1     -12.949   3.179   4.013  0.00  0.00    +0.018 C 
ATOM     19  C   UNL     1     -13.362   4.582   3.493  0.00  0.00    +0.018 C 
ATOM     20  C   UNL     1     -12.380   4.776   2.310  0.00  0.00    +0.109 C 
ENDBRANCH  13  16
ENDBRANCH  10  13
ENDBRANCH   3   7
BRANCH   6  21
ATOM     21  S   UNL     1      -2.404   0.750  -0.248  0.00  0.00    -0.077 S 
BRANCH  21  22
ATOM     22  C   UNL     1      -1.063   1.954  -0.082  0.00  0.00    +0.173 C 
BRANCH  22  23
ATOM     23  C   UNL     1       0.264   1.247  -0.188  0.00  0.00    +0.227 C 
ATOM     24  O   UNL     1       0.298   0.047  -0.360  0.00  0.00    -0.275 OA
ATOM     25  N   UNL     1       1.411   1.948  -0.099  0.00  0.00    -0.285 N 
ATOM     26  H   UNL     1       1.383   2.916  -0.030  0.00  0.00    +0.155 HD
BRANCH  25  27
ATOM     27  C   UNL     1       2.641   1.282  -0.105  0.00  0.00    +0.040 A 
ATOM     28  C   UNL     1       3.696   1.765   0.657  0.00  0.00    +0.069 A 
ATOM     29  C   UNL     1       4.913   1.100   0.655  0.00  0.00    +0.125 A 
ATOM     30  C   UNL     1       5.079  -0.040  -0.116  0.00  0.00    +0.091 A 
ATOM     31  C   UNL     1       4.027  -0.520  -0.882  0.00  0.00    +0.125 A 
ATOM     32  C   UNL     1       2.808   0.140  -0.877  0.00  0.00    +0.069 A 
BRANCH  31  33
ATOM     33  O   UNL     1       4.191  -1.637  -1.638  0.00  0.00    -0.495 OA
ATOM     34  C   UNL     1       5.474  -2.266  -1.596  0.00  0.00    +0.277 C 
ENDBRANCH  31  33
BRANCH  29  35
ATOM     35  O   UNL     1       5.944   1.569   1.406  0.00  0.00    -0.495 OA
ATOM     36  C   UNL     1       7.171   0.838   1.352  0.00  0.00    +0.277 C 
ENDBRANCH  29  35
ENDBRANCH  25  27
ENDBRANCH  22  23
ENDBRANCH  21  22
ENDBRANCH   6  21
TORSDOF 9
