REMARK  Name = ZINC38546315
REMARK  6 active torsions:
REMARK  status: ('A' for Active; 'I' for Inactive)
REMARK    1  A    between atoms: C_1  and  C_2
REMARK    2  A    between atoms: N_5  and  C_8
REMARK    3  A    between atoms: C_8  and  C_10
REMARK    4  A    between atoms: C_8  and  C_17
REMARK    5  A    between atoms: C_21  and  N_22
REMARK    6  A    between atoms: C_23  and  C_25
REMARK                            x       y       z     vdW  Elec       q    Type
REMARK                         _______ _______ _______ _____ _____    ______ ____
ROOT
ATOM      1  C   UNL     1      -2.013  -4.664   1.360  0.00  0.00    -0.025 A 
ATOM      2  C   UNL     1      -2.205  -5.716   0.464  0.00  0.00    -0.033 A 
ATOM      3  C   UNL     1      -3.403  -6.357   0.524  0.00  0.00    -0.005 A 
ATOM      4  S   UNL     1      -4.273  -5.514   1.819  0.00  0.00    -0.078 S 
ATOM      5  C   UNL     1      -2.999  -4.334   2.237  0.00  0.00    +0.074 A 
ATOM      6  C   UNL     1      -3.865  -7.505  -0.314  0.00  0.00    +0.043 C 
ATOM      7  C   UNL     1      -2.922  -7.633  -1.520  0.00  0.00    +0.005 C 
ATOM      8  C   UNL     1      -1.476  -7.570  -1.021  0.00  0.00    +0.005 C 
ATOM      9  C   UNL     1      -1.148  -6.154  -0.546  0.00  0.00    +0.036 C 
ENDROOT
BRANCH   5  10
ATOM     10  N   UNL     1      -3.012  -3.332   3.209  0.00  0.00    -0.273 N 
ATOM     11  C   UNL     1      -4.141  -3.078   3.900  0.00  0.00    +0.284 C 
ATOM     12  O   UNL     1      -5.150  -3.722   3.676  0.00  0.00    -0.266 OA
ATOM     13  H   UNL     1      -2.209  -2.819   3.388  0.00  0.00    +0.156 HD
BRANCH  11  14
ATOM     14  C   UNL     1      -4.155  -2.026   4.921  0.00  0.00    +0.189 A 
ATOM     15  C   UNL     1      -5.225  -1.671   5.693  0.00  0.00    +0.054 A 
ATOM     16  C   UNL     1      -4.792  -0.628   6.527  0.00  0.00    +0.042 A 
ATOM     17  C   UNL     1      -3.494  -0.395   6.231  0.00  0.00    +0.196 A 
ATOM     18  O   UNL     1      -3.113  -1.243   5.267  0.00  0.00    -0.458 OA
ENDBRANCH  11  14
ENDBRANCH   5  10
BRANCH   1  19
ATOM     19  C   UNL     1      -0.715  -3.900   1.361  0.00  0.00    -0.004 C 
BRANCH  19  24
ATOM     20  C   UNL     1      -1.311   1.716   0.569  0.00  0.00    +0.007 C 
ATOM     21  C   UNL     1      -0.968   0.238   0.375  0.00  0.00    -0.018 C 
ATOM     22  C   UNL     1      -2.248  -0.599   0.446  0.00  0.00    -0.015 C 
ATOM     23  C   UNL     1      -1.889  -2.082   0.330  0.00  0.00    -0.077 C 
ATOM     24  N   UNL     1      -0.994  -2.459   1.431  0.00  0.00    +0.387 N 
ATOM     25  C   UNL     1       0.265  -1.712   1.328  0.00  0.00    -0.077 C 
ATOM     26  C   UNL     1      -0.011  -0.215   1.482  0.00  0.00    -0.015 C 
ATOM     27  H   UNL     1      -1.438  -2.248   2.312  0.00  0.00    -0.080 HD
ENDBRANCH  19  24
BRANCH  19  28
ATOM     28  C   UNL     1       0.109  -4.310   2.554  0.00  0.00    -0.056 A 
ATOM     29  C   UNL     1      -0.011  -3.621   3.747  0.00  0.00    +0.005 A 
ATOM     30  C   UNL     1       0.744  -3.997   4.842  0.00  0.00    +0.038 A 
ATOM     31  C   UNL     1       1.621  -5.064   4.744  0.00  0.00    +0.123 A 
ATOM     32  C   UNL     1       1.740  -5.753   3.549  0.00  0.00    +0.038 A 
ATOM     33  C   UNL     1       0.981  -5.379   2.457  0.00  0.00    +0.005 A 
ATOM     34  F   UNL     1       2.359  -5.432   5.814  0.00  0.00    -0.205 F 
ENDBRANCH  19  28
ENDBRANCH   1  19
TORSDOF 5
