REMARK  Name = ZINC17982574
REMARK  12 active torsions:
REMARK  status: ('A' for Active; 'I' for Inactive)
REMARK    1  A    between atoms: C_1  and  O_2
REMARK    2  A    between atoms: O_2  and  C_3
REMARK    3  A    between atoms: C_3  and  C_4
REMARK    4  A    between atoms: C_4  and  C_5
REMARK    5  A    between atoms: C_5  and  N_6
REMARK    6  A    between atoms: N_6  and  C_7
REMARK    7  A    between atoms: C_8  and  N_23
REMARK    8  A    between atoms: N_9  and  C_16
REMARK    9  A    between atoms: C_16  and  C_17
REMARK   10  A    between atoms: C_24  and  C_26
REMARK   11  A    between atoms: C_26  and  S_27
REMARK   12  A    between atoms: S_27  and  C_28
REMARK                            x       y       z     vdW  Elec       q    Type
REMARK                         _______ _______ _______ _____ _____    ______ ____
ROOT
ATOM      1  C   UNL     1       0.074   1.425  -0.019  0.00  0.00    +0.140 A 
ATOM      2  C   UNL     1       0.426   2.131  -1.150  0.00  0.00    +0.128 A 
ATOM      3  N   UNL     1       0.417   3.506  -1.114  0.00  0.00    -0.276 N 
ATOM      4  C   UNL     1       0.076   4.155   0.015  0.00  0.00    +0.331 A 
ATOM      5  O   UNL     1       0.077   5.370   0.028  0.00  0.00    -0.246 OA
ATOM      6  N   UNL     1      -0.266   3.483   1.128  0.00  0.00    -0.273 N 
ATOM      7  H   UNL     1      -0.515   3.989   1.954  0.00  0.00    +0.173 HD
ATOM      8  C   UNL     1      -0.277   2.136   1.144  0.00  0.00    +0.277 A 
ATOM      9  O   UNL     1      -0.588   1.536   2.160  0.00  0.00    -0.266 OA
ENDROOT
BRANCH   1  10
ATOM     10  N   UNL     1       0.071   0.014  -0.025  0.00  0.00    -0.263 N 
ATOM     11  C   UNL     1      -1.091  -0.659   0.112  0.00  0.00    +0.230 C 
ATOM     12  O   UNL     1      -2.142  -0.053   0.152  0.00  0.00    -0.274 OA
BRANCH  10  13
ATOM     13  C   UNL     1       1.328  -0.721  -0.182  0.00  0.00    +0.116 C 
BRANCH  13  14
ATOM     14  C   UNL     1       1.873  -1.099   1.197  0.00  0.00    +0.047 C 
BRANCH  14  15
ATOM     15  C   UNL     1       3.187  -1.866   1.033  0.00  0.00    +0.161 C 
BRANCH  15  17
ATOM     16  C   UNL     1       4.928  -2.943   2.281  0.00  0.00    +0.193 C 
ATOM     17  O   UNL     1       3.696  -2.219   2.321  0.00  0.00    -0.383 OA
ENDBRANCH  15  17
ENDBRANCH  14  15
ENDBRANCH  13  14
ENDBRANCH  10  13
BRANCH  11  18
ATOM     18  C   UNL     1      -1.083  -2.162   0.217  0.00  0.00    +0.170 C 
BRANCH  18  19
ATOM     19  S   UNL     1      -2.785  -2.765   0.392  0.00  0.00    -0.116 S 
BRANCH  19  20
ATOM     20  C   UNL     1      -2.609  -4.515   0.501  0.00  0.00    +0.011 A 
ATOM     21  C   UNL     1      -1.347  -5.092   0.437  0.00  0.00    +0.018 A 
ATOM     22  C   UNL     1      -1.210  -6.463   0.528  0.00  0.00    +0.042 A 
ATOM     23  C   UNL     1      -2.329  -7.265   0.671  0.00  0.00    +0.158 A 
ATOM     24  C   UNL     1      -3.591  -6.692   0.730  0.00  0.00    +0.159 A 
ATOM     25  C   UNL     1      -3.732  -5.319   0.645  0.00  0.00    +0.056 A 
ATOM     26  F   UNL     1      -4.682  -7.476   0.870  0.00  0.00    -0.202 F 
ATOM     27  F   UNL     1      -2.192  -8.606   0.755  0.00  0.00    -0.202 F 
ENDBRANCH  19  20
ENDBRANCH  18  19
ENDBRANCH  11  18
ENDBRANCH   1  10
BRANCH   2  28
ATOM     28  N   UNL     1       0.780   1.468  -2.301  0.00  0.00    -0.343 N 
ATOM     29  H   UNL     1       0.833   0.500  -2.307  0.00  0.00    +0.144 HD
ATOM     30  H   UNL     1       0.976   1.970  -3.108  0.00  0.00    +0.144 HD
ENDBRANCH   2  28
BRANCH   3  31
ATOM     31  C   UNL     1       0.785   4.269  -2.309  0.00  0.00    +0.163 C 
BRANCH  31  32
ATOM     32  C   UNL     1       2.270   4.524  -2.305  0.00  0.00    -0.028 A 
ATOM     33  C   UNL     1       2.774   5.665  -1.710  0.00  0.00    +0.005 A 
ATOM     34  C   UNL     1       4.136   5.897  -1.702  0.00  0.00    +0.000 A 
ATOM     35  C   UNL     1       4.995   4.992  -2.297  0.00  0.00    +0.000 A 
ATOM     36  C   UNL     1       4.491   3.852  -2.897  0.00  0.00    +0.000 A 
ATOM     37  C   UNL     1       3.128   3.618  -2.900  0.00  0.00    +0.005 A 
ENDBRANCH  31  32
ENDBRANCH   3  31
TORSDOF 11
