REMARK  Name = ZINC39312546
REMARK  2 active torsions:
REMARK  status: ('A' for Active; 'I' for Inactive)
REMARK    1  A    between atoms: C_6  and  C_7
REMARK    2  A    between atoms: N_15  and  C_16
REMARK                            x       y       z     vdW  Elec       q    Type
REMARK                         _______ _______ _______ _____ _____    ______ ____
ROOT
ATOM      1  C   UNL     1      -1.253  -0.757   0.010  0.00  0.00    -0.015 C 
ATOM      2  C   UNL     1      -1.619  -1.547  -1.049  0.00  0.00    +0.075 C 
ATOM      3  C   UNL     1      -2.900  -2.266  -0.946  0.00  0.00    +0.113 C 
ATOM      4  N   UNL     1      -3.312  -3.039  -1.922  0.00  0.00    -0.210 NA
ATOM      5  C   UNL     1      -2.591  -3.198  -3.030  0.00  0.00    +0.209 C 
ATOM      6  N   UNL     1      -1.429  -2.602  -3.225  0.00  0.00    -0.143 NA
ATOM      7  C   UNL     1      -0.880  -1.786  -2.325  0.00  0.00    +0.273 C 
ATOM      8  O   UNL     1       0.196  -1.250  -2.536  0.00  0.00    -0.268 OA
ATOM      9  N   UNL     1      -3.079  -4.023  -4.017  0.00  0.00    -0.313 N 
ATOM     10  S   UNL     1      -3.555  -1.811   0.639  0.00  0.00    -0.100 S 
ATOM     11  C   UNL     1      -2.197  -0.702   1.188  0.00  0.00    +0.112 C 
ATOM     12  H   UNL     1      -3.930  -4.473  -3.897  0.00  0.00    +0.149 HD
ENDROOT
BRANCH   1  18
ATOM     13  C   UNL     1      -0.017   1.399   0.010  0.00  0.00    +0.009 A 
ATOM     14  C   UNL     1       1.169   2.099   0.002  0.00  0.00    +0.020 A 
ATOM     15  C   UNL     1       2.378   1.422  -0.013  0.00  0.00    +0.041 A 
ATOM     16  C   UNL     1       2.407   0.036  -0.021  0.00  0.00    +0.020 A 
ATOM     17  C   UNL     1       1.231  -0.681  -0.014  0.00  0.00    +0.009 A 
ATOM     18  C   UNL     1       0.002  -0.004   0.002  0.00  0.00    -0.020 A 
ATOM     19 CL   UNL     1       3.867   2.316  -0.024  0.00  0.00    -0.084 Cl
ENDBRANCH   1  18
BRANCH   9  20
ATOM     20  C   UNL     1      -2.313  -4.223  -5.250  0.00  0.00    +0.073 C 
ATOM     21  C   UNL     1      -2.632  -3.097  -6.236  0.00  0.00    +0.022 C 
ATOM     22  C   UNL     1      -1.833  -3.305  -7.524  0.00  0.00    +0.002 C 
ATOM     23  C   UNL     1      -2.210  -4.651  -8.147  0.00  0.00    +0.000 C 
ATOM     24  C   UNL     1      -1.891  -5.777  -7.160  0.00  0.00    +0.002 C 
ATOM     25  C   UNL     1      -2.690  -5.568  -5.873  0.00  0.00    +0.022 C 
ENDBRANCH   9  20
TORSDOF 2
