REMARK  Name = ZINC22214912
REMARK  2 active torsions:
REMARK  status: ('A' for Active; 'I' for Inactive)
REMARK    1  A    between atoms: C_6  and  C_7
REMARK    2  A    between atoms: C_6  and  N_9
REMARK                            x       y       z     vdW  Elec       q    Type
REMARK                         _______ _______ _______ _____ _____    ______ ____
ROOT
ATOM      1  C   UNL     1       2.711  -0.446   2.602  0.00  0.00    +0.042 C 
ATOM      2  C   UNL     1       1.980   0.782   2.054  0.00  0.00    +0.068 C 
ATOM      3  C   UNL     1       2.072   0.792   0.532  0.00  0.00    +0.170 C 
ATOM      4  C   UNL     1       3.529   0.814   0.080  0.00  0.00    +0.068 C 
ATOM      5  C   UNL     1       4.254  -0.415   0.636  0.00  0.00    +0.042 C 
ATOM      6  C   UNL     1       4.176  -0.404   2.164  0.00  0.00    +0.105 C 
ATOM      7  O   UNL     1       1.371   1.930  -0.001  0.00  0.00    -0.346 OA
ATOM      8  C   UNL     1      -0.019   1.538   0.011  0.00  0.00    +0.191 C 
ATOM      9  C   UNL     1       0.002  -0.004   0.002  0.00  0.00    +0.191 C 
ATOM     10  O   UNL     1       1.402  -0.358  -0.013  0.00  0.00    -0.346 OA
ENDROOT
BRANCH   6  11
ATOM     11  N   UNL     1       4.881  -1.577   2.698  0.00  0.00    -0.313 NA
ATOM     12  H   UNL     1       5.934  -1.547   2.383  0.00  0.00    +0.120 HD
ATOM     13  H   UNL     1       4.826  -1.569   3.796  0.00  0.00    +0.120 HD
ENDBRANCH   6  11
BRANCH   6  14
ATOM     14  C   UNL     1       4.807   0.823   2.678  0.00  0.00    +0.084 C 
ATOM     15  N   UNL     1       5.293   1.769   3.075  0.00  0.00    -0.195 NA
ENDBRANCH   6  14
TORSDOF 2
