REMARK  Name = ZINC22740949
REMARK  8 active torsions:
REMARK  status: ('A' for Active; 'I' for Inactive)
REMARK    1  A    between atoms: C_1  and  C_2
REMARK    2  A    between atoms: N_5  and  C_8
REMARK    3  A    between atoms: C_13  and  N_14
REMARK    4  A    between atoms: N_14  and  C_15
REMARK    5  A    between atoms: C_15  and  N_17
REMARK    6  A    between atoms: C_18  and  C_20
REMARK    7  A    between atoms: C_22  and  N_32
REMARK    8  A    between atoms: C_25  and  N_26
REMARK                            x       y       z     vdW  Elec       q    Type
REMARK                         _______ _______ _______ _____ _____    ______ ____
ROOT
ATOM      1  N   UNL     1      -2.855   0.019   4.644  0.00  0.00    -0.264 N 
ATOM      2  C   UNL     1      -3.577   0.427   5.707  0.00  0.00    +0.251 C 
ATOM      3  O   UNL     1      -4.014  -0.390   6.494  0.00  0.00    -0.270 OA
ATOM      4  H   UNL     1      -2.506   0.670   4.016  0.00  0.00    +0.157 HD
ENDROOT
BRANCH   2   5
ATOM      5  C   UNL     1      -3.836   1.862   5.914  0.00  0.00    +0.060 A 
ATOM      6  C   UNL     1      -3.340   2.804   5.008  0.00  0.00    +0.047 A 
ATOM      7  C   UNL     1      -3.585   4.145   5.208  0.00  0.00    +0.127 A 
ATOM      8  C   UNL     1      -4.322   4.567   6.304  0.00  0.00    +0.034 A 
ATOM      9  C   UNL     1      -4.819   3.650   7.207  0.00  0.00    +0.026 A 
ATOM     10  C   UNL     1      -4.587   2.292   7.019  0.00  0.00    +0.042 A 
BRANCH  10  11
ATOM     11  N   UNL     1      -5.091   1.367   7.923  0.00  0.00    -0.325 N 
ATOM     12  C   UNL     1      -4.312   0.958   9.103  0.00  0.00    +0.133 C 
ATOM     13  C   UNL     1      -5.204   1.092  10.342  0.00  0.00    +0.178 C 
ATOM     14  O   UNL     1      -6.430   0.392  10.117  0.00  0.00    -0.377 OA
ATOM     15  C   UNL     1      -7.210   0.910   9.037  0.00  0.00    +0.178 C 
ATOM     16  C   UNL     1      -6.423   0.770   7.734  0.00  0.00    +0.133 C 
ENDBRANCH  10  11
BRANCH   7  17
ATOM     17  N   UNL     1      -3.059   5.141   4.248  0.00  0.00    +0.056 N 
ATOM     18  O   UNL     1      -2.415   4.777   3.291  0.00  0.00    -0.126 OA
ATOM     19  O   UNL     1      -3.272   6.318   4.420  0.00  0.00    -0.126 OA
ENDBRANCH   7  17
ENDBRANCH   2   5
BRANCH   1  20
ATOM     20  C   UNL     1      -2.618  -1.294   4.455  0.00  0.00    +0.141 C 
ATOM     21  S   UNL     1      -3.234  -2.444   5.563  0.00  0.00    -0.018 S 
BRANCH  20  22
ATOM     22  N   UNL     1      -1.896  -1.702   3.392  0.00  0.00    -0.295 N 
ATOM     23  H   UNL     1      -1.480  -1.049   2.808  0.00  0.00    +0.154 HD
BRANCH  22  29
ATOM     24  C   UNL     1      -0.498  -3.584   2.781  0.00  0.00    +0.051 A 
ATOM     25  C   UNL     1      -0.355  -4.940   2.530  0.00  0.00    +0.025 A 
ATOM     26  C   UNL     1      -1.451  -5.779   2.620  0.00  0.00    +0.002 A 
ATOM     27  C   UNL     1      -2.690  -5.269   2.961  0.00  0.00    +0.002 A 
ATOM     28  C   UNL     1      -2.841  -3.918   3.213  0.00  0.00    +0.025 A 
ATOM     29  C   UNL     1      -1.747  -3.071   3.131  0.00  0.00    +0.054 A 
BRANCH  24  34
ATOM     30  C   UNL     1       2.206   1.198   3.013  0.00  0.00    +0.007 C 
ATOM     31  C   UNL     1       2.063  -0.309   2.791  0.00  0.00    -0.011 C 
ATOM     32  C   UNL     1       1.059  -0.565   1.665  0.00  0.00    +0.022 C 
ATOM     33  C   UNL     1       0.945  -2.074   1.421  0.00  0.00    +0.105 C 
ATOM     34  N   UNL     1       0.610  -2.733   2.691  0.00  0.00    -0.328 N 
ATOM     35  C   UNL     1       1.459  -2.483   3.863  0.00  0.00    +0.105 C 
ATOM     36  C   UNL     1       1.567  -0.970   4.079  0.00  0.00    +0.022 C 
ENDBRANCH  24  34
ENDBRANCH  22  29
ENDBRANCH  20  22
ENDBRANCH   1  20
TORSDOF 7
