REMARK  Name = ZINC32811614
REMARK  7 active torsions:
REMARK  status: ('A' for Active; 'I' for Inactive)
REMARK    1  A    between atoms: C_1  and  C_2
REMARK    2  A    between atoms: C_8  and  N_10
REMARK    3  A    between atoms: C_14  and  C_16
REMARK    4  A    between atoms: C_16  and  N_17
REMARK    5  A    between atoms: N_20  and  S_23
REMARK    6  A    between atoms: S_23  and  C_26
REMARK    7  A    between atoms: C_29  and  C_32
REMARK                            x       y       z     vdW  Elec       q    Type
REMARK                         _______ _______ _______ _____ _____    ______ ____
ROOT
ATOM      1  N   UNL     1       1.036   6.804  -6.061  0.00  0.00    +0.387 N 
ATOM      2  C   UNL     1       0.662   7.758  -5.008  0.00  0.00    -0.061 C 
ATOM      3  C   UNL     1       1.316   9.114  -5.295  0.00  0.00    +0.091 C 
ATOM      4  N   UNL     1       0.959   9.525  -6.661  0.00  0.00    -0.180 NA
ATOM      5  C   UNL     1       1.177   8.567  -7.756  0.00  0.00    +0.091 C 
ATOM      6  C   UNL     1       0.529   7.232  -7.372  0.00  0.00    -0.061 C 
ATOM      7  H   UNL     1       2.135   6.783  -6.118  0.00  0.00    -0.081 HD
ENDROOT
BRANCH   4   8
ATOM      8  S   UNL     1       0.327  11.026  -6.959  0.00  0.00    +0.061 S 
ATOM      9  O   UNL     1       0.749  11.863  -5.891  0.00  0.00    -0.153 OA
ATOM     10  O   UNL     1       0.612  11.324  -8.319  0.00  0.00    -0.153 OA
BRANCH   8  11
ATOM     11  C   UNL     1      -1.425  10.889  -6.830  0.00  0.00    +0.105 A 
ATOM     12  C   UNL     1      -2.178  10.582  -7.948  0.00  0.00    +0.029 A 
ATOM     13  C   UNL     1      -3.552  10.470  -7.846  0.00  0.00    +0.014 A 
ATOM     14  C   UNL     1      -4.174  10.676  -6.629  0.00  0.00    +0.055 A 
ATOM     15  C   UNL     1      -3.421  10.988  -5.512  0.00  0.00    +0.014 A 
ATOM     16  C   UNL     1      -2.047  11.095  -5.613  0.00  0.00    +0.029 A 
BRANCH  14  17
ATOM     17  C   UNL     1      -5.672  10.559  -6.518  0.00  0.00    +0.417 C 
ATOM     18  F   UNL     1      -6.257  11.806  -6.762  0.00  0.00    -0.166 F 
ATOM     19  F   UNL     1      -6.138   9.634  -7.459  0.00  0.00    -0.166 F 
ATOM     20  F   UNL     1      -6.013  10.127  -5.232  0.00  0.00    -0.166 F 
ENDBRANCH  14  17
ENDBRANCH   8  11
ENDBRANCH   4   8
BRANCH   1  21
ATOM     21  C   UNL     1       0.573   5.450  -5.734  0.00  0.00    +0.019 C 
BRANCH  21  26
ATOM     22  N   UNL     1       1.424   2.047  -2.446  0.00  0.00    -0.296 N 
ATOM     23  C   UNL     1       1.689   3.276  -2.933  0.00  0.00    +0.306 C 
ATOM     24  O   UNL     1       2.515   3.981  -2.389  0.00  0.00    -0.252 OA
ATOM     25  N   UNL     1       1.037   3.722  -4.025  0.00  0.00    -0.242 N 
ATOM     26  C   UNL     1       1.302   4.950  -4.513  0.00  0.00    +0.204 C 
ATOM     27  O   UNL     1       2.126   5.654  -3.969  0.00  0.00    -0.277 OA
ATOM     28  H   UNL     1       0.676   1.409  -2.939  0.00  0.00    +0.151 HD
ATOM     29  H   UNL     1       0.289   3.084  -4.519  0.00  0.00    +0.159 HD
BRANCH  22  36
ATOM     30  C   UNL     1       2.870  -0.461  -2.526  0.00  0.00    +0.009 C 
ATOM     31  C   UNL     1       2.154   0.032  -1.268  0.00  0.00    +0.006 C 
ATOM     32  C   UNL     1       0.718  -0.497  -1.257  0.00  0.00    +0.005 C 
ATOM     33  C   UNL     1       0.002  -0.004   0.002  0.00  0.00    +0.000 C 
ATOM     34  C   UNL     1      -0.019   1.526   0.010  0.00  0.00    +0.002 C 
ATOM     35  C   UNL     1       1.417   2.055  -0.000  0.00  0.00    +0.022 C 
ATOM     36  C   UNL     1       2.133   1.562  -1.259  0.00  0.00    +0.077 C 
ENDBRANCH  22  36
ENDBRANCH  21  26
ENDBRANCH   1  21
TORSDOF 6
