REMARK  Name = ZINC14997663
REMARK  9 active torsions:
REMARK  status: ('A' for Active; 'I' for Inactive)
REMARK    1  A    between atoms: C_1  and  C_2
REMARK    2  A    between atoms: C_2  and  C_3
REMARK    3  A    between atoms: C_2  and  C_4
REMARK    4  A    between atoms: C_4  and  N_60
REMARK    5  A    between atoms: C_5  and  N_60
REMARK    6  A    between atoms: N_16  and  C_19
REMARK    7  A    between atoms: C_19  and  C_20
REMARK    8  A    between atoms: C_29  and  O_30
REMARK    9  A    between atoms: O_30  and  C_31
REMARK                            x       y       z     vdW  Elec       q    Type
REMARK                         _______ _______ _______ _____ _____    ______ ____
ROOT
ATOM      1  C   UNL     1      -5.241   3.713  -6.295  0.00  0.00    -0.067 C 
ATOM      2  C   UNL     1      -5.726   3.617  -4.846  0.00  0.00    -0.011 C 
ATOM      3  C   UNL     1      -4.558   3.859  -3.890  0.00  0.00    +0.035 C 
ATOM      4  C   UNL     1      -3.874   5.169  -4.270  0.00  0.00    -0.023 A 
ATOM      5  C   UNL     1      -4.060   5.715  -5.490  0.00  0.00    -0.006 A 
ATOM      6  S   UNL     1      -3.091   7.200  -5.482  0.00  0.00    -0.073 S 
ATOM      7  C   UNL     1      -2.438   7.082  -3.836  0.00  0.00    +0.116 A 
ATOM      8  C   UNL     1      -2.997   5.890  -3.348  0.00  0.00    +0.076 A 
ATOM      9  C   UNL     1      -2.632   5.536  -2.008  0.00  0.00    +0.263 A 
ATOM     10  O   UNL     1      -3.066   4.519  -1.495  0.00  0.00    -0.267 OA
ATOM     11  N   UNL     1      -1.802   6.347  -1.325  0.00  0.00    -0.294 N 
ATOM     12  C   UNL     1      -1.313   7.486  -1.879  0.00  0.00    +0.203 A 
ATOM     13  N   UNL     1      -1.623   7.832  -3.099  0.00  0.00    -0.230 NA
ATOM     14  C   UNL     1      -4.904   5.178  -6.606  0.00  0.00    +0.027 C 
ENDROOT
BRANCH   1  15
ATOM     15  N   UNL     1      -6.311   3.249  -7.199  0.00  0.00    +0.381 N 
ATOM     16  H   UNL     1      -6.819   2.475  -6.753  0.00  0.00    -0.086 HD
ATOM     17  H   UNL     1      -6.959   4.023  -7.382  0.00  0.00    -0.086 HD
BRANCH  15  18
ATOM     18  C   UNL     1      -5.737   2.782  -8.475  0.00  0.00    -0.079 C 
BRANCH  18  20
ATOM     19  C   UNL     1      -7.761   3.495  -9.754  0.00  0.00    +0.005 C 
ATOM     20  C   UNL     1      -6.867   2.308  -9.390  0.00  0.00    -0.034 C 
ATOM     21  C   UNL     1      -6.274   1.707 -10.665  0.00  0.00    +0.005 C 
ENDBRANCH  18  20
ENDBRANCH  15  18
ENDBRANCH   1  15
BRANCH  11  22
ATOM     22  C   UNL     1      -1.423   5.995   0.046  0.00  0.00    +0.165 C 
BRANCH  22  23
ATOM     23  C   UNL     1      -0.101   5.273   0.033  0.00  0.00    +0.022 A 
ATOM     24  C   UNL     1       1.097   5.990   0.182  0.00  0.00    -0.010 A 
ATOM     25  C   UNL     1       1.096   7.386   0.348  0.00  0.00    +0.009 A 
ATOM     26  C   UNL     1       2.275   8.048   0.497  0.00  0.00    +0.001 A 
ATOM     27  C   UNL     1       3.489   7.364   0.477  0.00  0.00    +0.001 A 
ATOM     28  C   UNL     1       3.530   6.013   0.319  0.00  0.00    +0.008 A 
ATOM     29  C   UNL     1       2.332   5.294   0.168  0.00  0.00    -0.017 A 
ATOM     30  C   UNL     1       2.336   3.897   0.004  0.00  0.00    +0.012 A 
ATOM     31  C   UNL     1       1.159   3.232  -0.140  0.00  0.00    +0.046 A 
ATOM     32  C   UNL     1      -0.061   3.917  -0.125  0.00  0.00    +0.126 A 
BRANCH  32  33
ATOM     33  O   UNL     1      -1.220   3.224  -0.271  0.00  0.00    -0.495 OA
ATOM     34  C   UNL     1      -1.115   1.808  -0.432  0.00  0.00    +0.277 C 
ENDBRANCH  32  33
ENDBRANCH  22  23
ENDBRANCH  11  22
TORSDOF 6
