REMARK  Name = ZINC11791511
REMARK  11 active torsions:
REMARK  status: ('A' for Active; 'I' for Inactive)
REMARK    1  A    between atoms: C_1  and  C_2
REMARK    2  A    between atoms: C_4  and  C_37
REMARK    3  A    between atoms: N_5  and  C_7
REMARK    4  A    between atoms: C_7  and  C_8
REMARK    5  A    between atoms: C_8  and  N_9
REMARK    6  A    between atoms: C_10  and  C_12
REMARK    7  A    between atoms: C_14  and  N_28
REMARK    8  A    between atoms: N_18  and  C_27
REMARK    9  A    between atoms: C_19  and  C_21
REMARK   10  A    between atoms: C_29  and  C_31
REMARK   11  A    between atoms: C_31  and  C_32
REMARK                            x       y       z     vdW  Elec       q    Type
REMARK                         _______ _______ _______ _____ _____    ______ ____
ROOT
ATOM      1  C   UNL     1      -2.072   6.039   0.465  0.00  0.00    +0.064 A 
ATOM      2  C   UNL     1      -2.136   4.665   0.690  0.00  0.00    +0.038 A 
ATOM      3  C   UNL     1      -0.998   3.881   0.555  0.00  0.00    +0.036 A 
ATOM      4  C   UNL     1       0.212   4.452   0.201  0.00  0.00    +0.053 A 
ATOM      5  C   UNL     1       0.295   5.825  -0.034  0.00  0.00    +0.092 A 
ATOM      6  C   UNL     1      -0.852   6.624   0.101  0.00  0.00    +0.081 A 
ATOM      7  N   UNL     1      -0.457   7.911  -0.185  0.00  0.00    -0.328 N 
ATOM      8  C   UNL     1       0.872   7.873  -0.478  0.00  0.00    +0.140 A 
ATOM      9  N   UNL     1       1.313   6.652  -0.390  0.00  0.00    -0.230 NA
ATOM     10  C   UNL     1      -1.309   9.103  -0.177  0.00  0.00    +0.150 C 
ENDROOT
BRANCH   8  11
ATOM     11  C   UNL     1       1.709   9.070  -0.850  0.00  0.00    +0.184 C 
ATOM     12  C   UNL     1       2.665   9.439   0.312  0.00  0.00    +0.042 C 
ATOM     13  C   UNL     1       3.795  10.175  -0.458  0.00  0.00    +0.031 C 
ATOM     14  C   UNL     1       3.833   9.407  -1.797  0.00  0.00    +0.161 C 
ATOM     15  O   UNL     1       2.569   8.752  -1.956  0.00  0.00    -0.369 OA
ENDBRANCH   8  11
BRANCH   1  17
ATOM     16  N   UNL     1      -4.470   6.418   0.164  0.00  0.00    -0.310 N 
ATOM     17  C   UNL     1      -3.281   6.872   0.609  0.00  0.00    +0.246 C 
ATOM     18  O   UNL     1      -3.205   7.968   1.129  0.00  0.00    -0.270 OA
ATOM     19  H   UNL     1      -4.530   5.543  -0.251  0.00  0.00    +0.149 HD
BRANCH  16  20
ATOM     20  C   UNL     1      -5.670   7.245   0.307  0.00  0.00    +0.127 C 
BRANCH  20  21
ATOM     21  C   UNL     1      -6.874   6.501  -0.274  0.00  0.00    +0.162 C 
BRANCH  21  26
ATOM     22  C   UNL     1     -11.055   8.513   1.641  0.00  0.00    +0.067 C 
ATOM     23  C   UNL     1      -9.901   8.195   0.726  0.00  0.00    +0.060 A 
ATOM     24  C   UNL     1      -9.661   8.776  -0.523  0.00  0.00    +0.047 A 
ATOM     25  C   UNL     1      -8.532   8.226  -1.028  0.00  0.00    +0.036 A 
ATOM     26  N   UNL     1      -8.075   7.328  -0.131  0.00  0.00    -0.267 N 
ATOM     27  N   UNL     1      -8.954   7.323   0.960  0.00  0.00    -0.176 NA
ATOM     28  C   UNL     1      -7.900   8.557  -2.356  0.00  0.00    +0.065 C 
ENDBRANCH  21  26
ENDBRANCH  20  21
ENDBRANCH  16  20
ENDBRANCH   1  17
BRANCH   3  29
ATOM     29  N   UNL     1      -1.075   2.500   0.784  0.00  0.00    -0.285 N 
ATOM     30  C   UNL     1      -0.299   1.655   0.076  0.00  0.00    +0.217 C 
ATOM     31  O   UNL     1       0.401   2.081  -0.819  0.00  0.00    -0.275 OA
ATOM     32  H   UNL     1      -1.686   2.152   1.452  0.00  0.00    +0.155 HD
BRANCH  30  33
ATOM     33  C   UNL     1      -0.306   0.182   0.391  0.00  0.00    +0.099 C 
BRANCH  33  34
ATOM     34  C   UNL     1       0.649  -0.547  -0.556  0.00  0.00    -0.002 C 
ATOM     35  C   UNL     1       0.107  -0.490  -1.999  0.00  0.00    +0.004 C 
ATOM     36  C   UNL     1       0.471  -1.873  -2.596  0.00  0.00    +0.000 C 
ATOM     37  C   UNL     1       0.241  -2.832  -1.401  0.00  0.00    +0.000 C 
ATOM     38  C   UNL     1       0.734  -2.036  -0.176  0.00  0.00    +0.004 C 
ENDBRANCH  33  34
ENDBRANCH  30  33
ENDBRANCH   3  29
TORSDOF 8
