REMARK  Name = ZINC36584684
REMARK  12 active torsions:
REMARK  status: ('A' for Active; 'I' for Inactive)
REMARK    1  A    between atoms: C_1  and  C_2
REMARK    2  A    between atoms: C_5  and  S_8
REMARK    3  A    between atoms: S_8  and  C_11
REMARK    4  A    between atoms: C_11  and  N_12
REMARK    5  A    between atoms: C_13  and  C_15
REMARK    6  A    between atoms: C_15  and  C_17
REMARK    7  A    between atoms: C_15  and  N_23
REMARK    8  A    between atoms: N_23  and  C_31
REMARK    9  A    between atoms: C_24  and  C_26
REMARK   10  A    between atoms: C_31  and  C_32
REMARK   11  A    between atoms: C_31  and  C_33
REMARK   12  A    between atoms: C_31  and  C_34
REMARK                            x       y       z     vdW  Elec       q    Type
REMARK                         _______ _______ _______ _____ _____    ______ ____
ROOT
ATOM      1  C   UNL     1       3.164  -6.772   3.729  0.00  0.00    +0.166 C 
ENDROOT
BRANCH   1   2
ATOM      2  C   UNL     1       2.178  -6.796   4.899  0.00  0.00    +0.019 C 
ATOM      3  C   UNL     1       0.971  -5.917   4.566  0.00  0.00    +0.006 C 
ATOM      4  C   UNL     1      -0.015  -5.941   5.736  0.00  0.00    +0.000 C 
ATOM      5  C   UNL     1       0.673  -5.407   6.993  0.00  0.00    +0.000 C 
ATOM      6  C   UNL     1       1.880  -6.285   7.326  0.00  0.00    +0.000 C 
ATOM      7  C   UNL     1       2.866  -6.262   6.157  0.00  0.00    +0.006 C 
ENDBRANCH   1   2
BRANCH   1   9
ATOM      8  N   UNL     1       1.603  -6.517   1.827  0.00  0.00    -0.295 N 
ATOM      9  C   UNL     1       2.485  -7.293   2.489  0.00  0.00    +0.235 C 
ATOM     10  O   UNL     1       2.731  -8.410   2.086  0.00  0.00    -0.274 OA
ATOM     11  H   UNL     1       1.353  -5.652   2.187  0.00  0.00    +0.150 HD
BRANCH   8  12
ATOM     12  C   UNL     1       1.023  -6.981   0.564  0.00  0.00    +0.278 C 
BRANCH  12  13
ATOM     13  S   UNL     1      -0.589  -7.748   0.885  0.00  0.00    +0.013 S 
ATOM     14  O   UNL     1      -0.501  -8.624   2.001  0.00  0.00    -0.168 OA
ATOM     15  O   UNL     1      -1.175  -8.184  -0.334  0.00  0.00    -0.168 OA
BRANCH  13  20
ATOM     16  C   UNL     1      -4.117  -3.225   2.759  0.00  0.00    +0.044 C 
ATOM     17  C   UNL     1      -3.236  -4.355   2.291  0.00  0.00    -0.050 A 
ATOM     18  C   UNL     1      -3.038  -4.563   0.939  0.00  0.00    +0.005 A 
ATOM     19  C   UNL     1      -2.230  -5.599   0.509  0.00  0.00    +0.027 A 
ATOM     20  C   UNL     1      -1.619  -6.427   1.433  0.00  0.00    +0.090 A 
ATOM     21  C   UNL     1      -1.815  -6.218   2.785  0.00  0.00    +0.027 A 
ATOM     22  C   UNL     1      -2.620  -5.180   3.214  0.00  0.00    +0.005 A 
ENDBRANCH  13  20
ENDBRANCH  12  13
ENDBRANCH   8  12
ENDBRANCH   1   9
BRANCH   1  23
ATOM     23  N   UNL     1       4.318  -7.618   4.045  0.00  0.00    -0.278 N 
ATOM     24  C   UNL     1       4.132  -8.900   4.416  0.00  0.00    +0.283 C 
ATOM     25  O   UNL     1       3.013  -9.380   4.408  0.00  0.00    -0.267 OA
BRANCH  24  26
ATOM     26  C   UNL     1       5.277  -9.718   4.828  0.00  0.00    +0.189 A 
ATOM     27  C   UNL     1       5.253 -11.057   5.092  0.00  0.00    +0.054 A 
ATOM     28  C   UNL     1       6.561 -11.422   5.448  0.00  0.00    +0.042 A 
ATOM     29  C   UNL     1       7.317 -10.303   5.386  0.00  0.00    +0.196 A 
ATOM     30  O   UNL     1       6.541  -9.280   5.007  0.00  0.00    -0.458 OA
ENDBRANCH  24  26
BRANCH  23  31
ATOM     31  C   UNL     1       5.673  -7.069   3.960  0.00  0.00    +0.030 C 
ATOM     32  C   UNL     1       5.607  -5.617   3.484  0.00  0.00    +0.031 C 
ATOM     33  C   UNL     1       6.334  -7.125   5.338  0.00  0.00    +0.031 C 
ATOM     34  C   UNL     1       6.495  -7.894   2.967  0.00  0.00    +0.031 C 
ENDBRANCH  23  31
ENDBRANCH   1  23
TORSDOF 8
