REMARK  Name = ZINC09378907
REMARK  8 active torsions:
REMARK  status: ('A' for Active; 'I' for Inactive)
REMARK    1  A    between atoms: C_1  and  C_2
REMARK    2  A    between atoms: C_4  and  C_17
REMARK    3  A    between atoms: C_5  and  C_16
REMARK    4  A    between atoms: N_6  and  C_7
REMARK    5  A    between atoms: C_17  and  C_19
REMARK    6  A    between atoms: C_19  and  N_20
REMARK    7  A    between atoms: C_23  and  C_27
REMARK    8  A    between atoms: C_23  and  C_28
REMARK                            x       y       z     vdW  Elec       q    Type
REMARK                         _______ _______ _______ _____ _____    ______ ____
ROOT
ATOM      1  C   UNL     1      -1.625  -1.124  -1.408  0.00  0.00    +0.183 C 
ATOM      2  O   UNL     1      -0.988  -0.667  -2.335  0.00  0.00    -0.290 OA
ENDROOT
BRANCH   1   6
ATOM      3  C   UNL     1      -5.761  -4.026  -0.755  0.00  0.00    +0.064 C 
ATOM      4  C   UNL     1      -4.634  -3.230  -1.361  0.00  0.00    +0.022 A 
ATOM      5  C   UNL     1      -3.682  -2.579  -0.671  0.00  0.00    +0.034 A 
ATOM      6  C   UNL     1      -2.807  -1.947  -1.668  0.00  0.00    +0.040 A 
ATOM      7  C   UNL     1      -3.326  -2.294  -2.902  0.00  0.00    +0.031 A 
ATOM      8  N   UNL     1      -4.415  -3.059  -2.699  0.00  0.00    -0.317 N 
ATOM      9  C   UNL     1      -2.769  -1.886  -4.242  0.00  0.00    +0.064 C 
BRANCH   8  10
ATOM     10  C   UNL     1      -5.212  -3.604  -3.717  0.00  0.00    +0.050 A 
ATOM     11  C   UNL     1      -5.935  -2.767  -4.555  0.00  0.00    +0.030 A 
ATOM     12  C   UNL     1      -6.716  -3.302  -5.562  0.00  0.00    +0.051 A 
ATOM     13  C   UNL     1      -6.788  -4.676  -5.730  0.00  0.00    +0.166 A 
ATOM     14  C   UNL     1      -6.068  -5.518  -4.886  0.00  0.00    +0.168 A 
ATOM     15  C   UNL     1      -5.281  -4.981  -3.882  0.00  0.00    +0.075 A 
ATOM     16  O   UNL     1      -6.305  -6.811  -5.255  0.00  0.00    -0.453 OA
ATOM     17  C   UNL     1      -6.853  -6.738  -6.584  0.00  0.00    +0.466 C 
ATOM     18  O   UNL     1      -7.478  -5.442  -6.626  0.00  0.00    -0.453 OA
ENDBRANCH   8  10
ENDBRANCH   1   6
BRANCH   1  19
ATOM     19  C   UNL     1      -1.199  -0.844   0.010  0.00  0.00    +0.197 C 
BRANCH  19  20
ATOM     20  N   UNL     1       0.002  -0.004   0.002  0.00  0.00    -0.216 N 
ATOM     21  C   UNL     1      -0.016   1.343   0.009  0.00  0.00    +0.251 C 
ATOM     22  O   UNL     1      -0.992   2.062   0.018  0.00  0.00    -0.272 OA
ATOM     23  C   UNL     1       1.437   1.773  -0.002  0.00  0.00    +0.136 C 
ATOM     24  N   UNL     1       2.175   0.498  -0.016  0.00  0.00    -0.281 N 
ATOM     25  C   UNL     1       1.252  -0.481  -0.013  0.00  0.00    +0.310 C 
ATOM     26  O   UNL     1       1.524  -1.665  -0.021  0.00  0.00    -0.252 OA
ATOM     27  C   UNL     1       1.772   2.575   1.257  0.00  0.00    +0.047 C 
ATOM     28  H   UNL     1       3.139   0.386  -0.026  0.00  0.00    +0.152 HD
BRANCH  23  29
ATOM     29  C   UNL     1       1.743   2.576  -1.240  0.00  0.00    +0.003 A 
ATOM     30  C   UNL     1       2.708   2.138  -2.127  0.00  0.00    +0.007 A 
ATOM     31  C   UNL     1       2.986   2.872  -3.265  0.00  0.00    +0.000 A 
ATOM     32  C   UNL     1       2.305   4.050  -3.512  0.00  0.00    +0.001 A 
ATOM     33  C   UNL     1       1.344   4.492  -2.623  0.00  0.00    +0.020 A 
ATOM     34  C   UNL     1       1.062   3.755  -1.486  0.00  0.00    +0.047 A 
ATOM     35 CL   UNL     1      -0.146   4.309  -0.369  0.00  0.00    -0.083 Cl
ENDBRANCH  23  29
ENDBRANCH  19  20
ENDBRANCH   1  19
TORSDOF 5
