REMARK  Name = ZINC67240813
REMARK  5 active torsions:
REMARK  status: ('A' for Active; 'I' for Inactive)
REMARK    1  A    between atoms: C_3  and  N_12
REMARK    2  A    between atoms: C_6  and  C_7
REMARK    3  A    between atoms: C_7  and  N_8
REMARK    4  A    between atoms: C_13  and  C_15
REMARK    5  A    between atoms: C_15  and  C_20
REMARK                            x       y       z     vdW  Elec       q    Type
REMARK                         _______ _______ _______ _____ _____    ______ ____
ROOT
ATOM      1  N   UNL     1       3.712   2.518  -0.597  0.00  0.00    -0.285 N 
ATOM      2  C   UNL     1       4.660   1.709  -0.083  0.00  0.00    +0.228 C 
ATOM      3  O   UNL     1       4.397   0.554   0.175  0.00  0.00    -0.275 OA
ATOM      4  H   UNL     1       3.948   3.407  -0.905  0.00  0.00    +0.155 HD
ENDROOT
BRANCH   1   7
ATOM      5  C   UNL     1       0.036   2.539  -0.660  0.00  0.00    +0.007 A 
ATOM      6  C   UNL     1       1.342   2.980  -0.570  0.00  0.00    +0.023 A 
ATOM      7  C   UNL     1       2.388   2.074  -0.687  0.00  0.00    +0.033 A 
ATOM      8  C   UNL     1       2.118   0.728  -0.893  0.00  0.00    +0.023 A 
ATOM      9  C   UNL     1       0.809   0.294  -0.982  0.00  0.00    +0.007 A 
ATOM     10  C   UNL     1      -0.230   1.198  -0.865  0.00  0.00    -0.030 A 
BRANCH  10  11
ATOM     11  C   UNL     1      -1.656   0.721  -0.963  0.00  0.00    +0.141 C 
BRANCH  11  12
ATOM     12  N   UNL     1      -2.094   0.771  -2.360  0.00  0.00    -0.295 N 
ATOM     13  C   UNL     1      -3.344   0.388  -2.689  0.00  0.00    +0.297 C 
ATOM     14  O   UNL     1      -4.108   0.001  -1.826  0.00  0.00    -0.253 OA
ATOM     15  N   UNL     1      -3.746   0.433  -3.974  0.00  0.00    -0.313 N 
ATOM     16  H   UNL     1      -1.484   1.079  -3.048  0.00  0.00    +0.151 HD
ATOM     17  H   UNL     1      -3.136   0.742  -4.662  0.00  0.00    +0.146 HD
ATOM     18  H   UNL     1      -4.645   0.158  -4.211  0.00  0.00    +0.146 HD
ENDBRANCH  11  12
ENDBRANCH  10  11
ENDBRANCH   1   7
BRANCH   2  19
ATOM     19  C   UNL     1       6.047   2.241   0.171  0.00  0.00    +0.072 C 
ATOM     20  C   UNL     1       6.498   3.121  -1.008  0.00  0.00    +0.021 C 
ATOM     21  C   UNL     1       7.762   2.459  -1.595  0.00  0.00    +0.001 C 
ATOM     22  C   UNL     1       7.645   0.974  -1.169  0.00  0.00    +0.001 C 
ATOM     23  C   UNL     1       7.053   1.074   0.259  0.00  0.00    +0.021 C 
BRANCH  19  24
ATOM     24  C   UNL     1       6.068   3.038   1.450  0.00  0.00    -0.032 A 
ATOM     25  C   UNL     1       7.200   3.749   1.802  0.00  0.00    +0.007 A 
ATOM     26  C   UNL     1       7.221   4.480   2.974  0.00  0.00    +0.038 A 
ATOM     27  C   UNL     1       6.106   4.501   3.796  0.00  0.00    +0.123 A 
ATOM     28  C   UNL     1       4.973   3.788   3.442  0.00  0.00    +0.038 A 
ATOM     29  C   UNL     1       4.953   3.062   2.267  0.00  0.00    +0.007 A 
ATOM     30  F   UNL     1       6.125   5.215   4.942  0.00  0.00    -0.205 F 
ENDBRANCH  19  24
ENDBRANCH   2  19
TORSDOF 5
