REMARK  Name = ZINC09390857
REMARK  8 active torsions:
REMARK  status: ('A' for Active; 'I' for Inactive)
REMARK    1  A    between atoms: C_4  and  C_7
REMARK    2  A    between atoms: C_7  and  C_9
REMARK    3  A    between atoms: C_9  and  S_10
REMARK    4  A    between atoms: S_10  and  C_11
REMARK    5  A    between atoms: C_14  and  C_22
REMARK    6  A    between atoms: N_15  and  C_16
REMARK    7  A    between atoms: C_22  and  N_23
REMARK    8  A    between atoms: C_24  and  C_26
REMARK                            x       y       z     vdW  Elec       q    Type
REMARK                         _______ _______ _______ _____ _____    ______ ____
ROOT
ATOM      1  C   UNL     1      -1.118   2.210   0.019  0.00  0.00    +0.197 A 
ATOM      2  N   UNL     1      -0.682   3.448   0.027  0.00  0.00    -0.122 NA
ATOM      3  N   UNL     1       0.603   3.460   0.015  0.00  0.00    -0.132 NA
ATOM      4  C   UNL     1       1.063   2.241   0.004  0.00  0.00    +0.156 A 
ATOM      5  N   UNL     1      -0.017   1.398   0.010  0.00  0.00    -0.273 N 
ENDROOT
BRANCH   5   6
ATOM      6  C   UNL     1       0.002  -0.004   0.002  0.00  0.00    +0.050 A 
ATOM      7  C   UNL     1       0.503  -0.687  -1.098  0.00  0.00    +0.026 A 
ATOM      8  C   UNL     1       0.525  -2.068  -1.101  0.00  0.00    +0.002 A 
ATOM      9  C   UNL     1       0.039  -2.771  -0.014  0.00  0.00    +0.000 A 
ATOM     10  C   UNL     1      -0.466  -2.093   1.081  0.00  0.00    +0.002 A 
ATOM     11  C   UNL     1      -0.486  -0.712   1.092  0.00  0.00    +0.026 A 
ENDBRANCH   5   6
BRANCH   1  12
ATOM     12  S   UNL     1      -2.802   1.692   0.022  0.00  0.00    -0.078 S 
BRANCH  12  13
ATOM     13  C   UNL     1      -3.627   3.303   0.034  0.00  0.00    +0.157 C 
BRANCH  13  14
ATOM     14  C   UNL     1      -5.120   3.103   0.039  0.00  0.00    +0.173 C 
ATOM     15  O   UNL     1      -5.582   1.982   0.034  0.00  0.00    -0.291 OA
BRANCH  14  19
ATOM     16  C   UNL     1      -7.710   6.463   0.068  0.00  0.00    +0.000 A 
ATOM     17  C   UNL     1      -8.241   5.184   0.062  0.00  0.00    +0.001 A 
ATOM     18  C   UNL     1      -7.405   4.087   0.053  0.00  0.00    +0.011 A 
ATOM     19  C   UNL     1      -6.019   4.269   0.049  0.00  0.00    +0.018 A 
ATOM     20  C   UNL     1      -5.490   5.564   0.060  0.00  0.00    +0.011 A 
ATOM     21  C   UNL     1      -6.339   6.651   0.064  0.00  0.00    +0.001 A 
ENDBRANCH  14  19
ENDBRANCH  13  14
ENDBRANCH  12  13
ENDBRANCH   1  12
BRANCH   4  22
ATOM     22  C   UNL     1       2.514   1.833  -0.013  0.00  0.00    +0.181 C 
BRANCH  22  23
ATOM     23  N   UNL     1       2.970   1.709  -1.399  0.00  0.00    -0.308 N 
ATOM     24  C   UNL     1       4.244   1.352  -1.660  0.00  0.00    +0.220 C 
ATOM     25  O   UNL     1       5.011   1.134  -0.747  0.00  0.00    -0.275 OA
ATOM     26  H   UNL     1       2.356   1.884  -2.129  0.00  0.00    +0.149 HD
BRANCH  24  27
ATOM     27  C   UNL     1       4.713   1.224  -3.086  0.00  0.00    +0.048 C 
ATOM     28  C   UNL     1       3.877   0.164  -3.805  0.00  0.00    +0.019 C 
ATOM     29  C   UNL     1       4.354   0.034  -5.253  0.00  0.00    -0.009 C 
ATOM     30  C   UNL     1       5.827  -0.380  -5.270  0.00  0.00    +0.007 C 
ATOM     31  C   UNL     1       6.663   0.681  -4.551  0.00  0.00    -0.009 C 
ATOM     32  C   UNL     1       6.186   0.811  -3.103  0.00  0.00    +0.019 C 
ATOM     33  C   UNL     1       6.503   2.026  -5.263  0.00  0.00    +0.007 C 
ATOM     34  C   UNL     1       5.030   2.439  -5.246  0.00  0.00    -0.009 C 
ATOM     35  C   UNL     1       4.194   1.379  -5.965  0.00  0.00    +0.007 C 
ATOM     36  C   UNL     1       4.553   2.569  -3.798  0.00  0.00    +0.019 C 
ENDBRANCH  24  27
ENDBRANCH  22  23
ENDBRANCH   4  22
TORSDOF 8
