REMARK  Name = ZINC04277828
REMARK  12 active torsions:
REMARK  status: ('A' for Active; 'I' for Inactive)
REMARK    1  A    between atoms: C_1  and  O_2
REMARK    2  A    between atoms: O_2  and  C_3
REMARK    3  A    between atoms: C_6  and  C_9
REMARK    4  A    between atoms: C_9  and  C_10
REMARK    5  A    between atoms: C_10  and  C_12
REMARK    6  A    between atoms: C_10  and  N_16
REMARK    7  A    between atoms: C_12  and  O_14
REMARK    8  A    between atoms: O_14  and  C_15
REMARK    9  A    between atoms: C_17  and  C_19
REMARK   10  A    between atoms: N_22  and  S_33
REMARK   11  A    between atoms: C_26  and  C_28
REMARK   12  A    between atoms: S_33  and  C_36
REMARK                            x       y       z     vdW  Elec       q    Type
REMARK                         _______ _______ _______ _____ _____    ______ ____
ROOT
ATOM      1  C   UNL     1       4.763   3.656  -3.292  0.00  0.00    +0.178 C 
ATOM      2  C   UNL     1       3.766   2.514  -3.493  0.00  0.00    +0.141 C 
ATOM      3  N   UNL     1       2.420   2.993  -3.151  0.00  0.00    -0.173 NA
ATOM      4  C   UNL     1       1.903   4.193  -3.824  0.00  0.00    +0.128 C 
ATOM      5  C   UNL     1       2.902   5.338  -3.619  0.00  0.00    +0.126 C 
ATOM      6  N   UNL     1       4.247   4.856  -3.964  0.00  0.00    -0.283 N 
ATOM      7  C   UNL     1       4.993   5.503  -4.881  0.00  0.00    +0.254 C 
ATOM      8  O   UNL     1       6.130   5.135  -5.110  0.00  0.00    -0.269 OA
ENDROOT
BRANCH   7   9
ATOM      9  C   UNL     1       4.435   6.650  -5.603  0.00  0.00    +0.074 A 
ATOM     10  C   UNL     1       4.574   6.994  -6.939  0.00  0.00    +0.021 A 
ATOM     11  C   UNL     1       3.935   8.133  -7.361  0.00  0.00    +0.008 A 
ATOM     12  C   UNL     1       3.219   8.862  -6.466  0.00  0.00    +0.046 A 
ATOM     13  S   UNL     1       3.406   7.972  -4.990  0.00  0.00    -0.092 S 
ENDBRANCH   7   9
BRANCH   1  15
ATOM     14  N   UNL     1       5.735   3.156  -1.072  0.00  0.00    -0.301 N 
ATOM     15  C   UNL     1       4.922   3.930  -1.818  0.00  0.00    +0.236 C 
ATOM     16  O   UNL     1       4.319   4.848  -1.304  0.00  0.00    -0.274 OA
ATOM     17  H   UNL     1       6.218   2.422  -1.483  0.00  0.00    +0.150 HD
BRANCH  14  18
ATOM     18  C   UNL     1       5.889   3.423   0.360  0.00  0.00    +0.186 C 
BRANCH  18  19
ATOM     19  C   UNL     1       6.946   4.478   0.563  0.00  0.00    +0.328 C 
ATOM     20  O   UNL     1       7.512   4.958  -0.390  0.00  0.00    -0.249 OA
BRANCH  19  21
ATOM     21  O   UNL     1       7.258   4.885   1.804  0.00  0.00    -0.467 OA
ATOM     22  C   UNL     1       8.286   5.904   1.924  0.00  0.00    +0.280 C 
ENDBRANCH  19  21
ENDBRANCH  18  19
BRANCH  18  23
ATOM     23  C   UNL     1       6.308   2.138   1.076  0.00  0.00    +0.069 C 
BRANCH  23  27
ATOM     24  C   UNL     1       3.159  -0.738   0.795  0.00  0.00    +0.120 A 
ATOM     25  C   UNL     1       4.143  -0.687  -0.182  0.00  0.00    +0.046 A 
ATOM     26  C   UNL     1       5.160   0.244  -0.088  0.00  0.00    +0.007 A 
ATOM     27  C   UNL     1       5.197   1.123   0.977  0.00  0.00    -0.045 A 
ATOM     28  C   UNL     1       4.221   1.071   1.955  0.00  0.00    +0.007 A 
ATOM     29  C   UNL     1       3.200   0.146   1.864  0.00  0.00    +0.046 A 
BRANCH  24  31
ATOM     30  C   UNL     1       1.180  -1.648   1.748  0.00  0.00    +0.277 C 
ATOM     31  O   UNL     1       2.158  -1.653   0.706  0.00  0.00    -0.495 OA
ENDBRANCH  24  31
ENDBRANCH  23  27
ENDBRANCH  18  23
ENDBRANCH  14  18
ENDBRANCH   1  15
BRANCH   3  32
ATOM     32  S   UNL     1       1.503   2.198  -2.023  0.00  0.00    +0.061 S 
ATOM     33  O   UNL     1       0.578   3.147  -1.511  0.00  0.00    -0.153 OA
ATOM     34  O   UNL     1       2.410   1.490  -1.189  0.00  0.00    -0.153 OA
BRANCH  32  35
ATOM     35  C   UNL     1       0.557   0.985  -2.882  0.00  0.00    +0.105 A 
ATOM     36  C   UNL     1       1.066  -0.287  -3.064  0.00  0.00    +0.028 A 
ATOM     37  C   UNL     1       0.324  -1.239  -3.738  0.00  0.00    +0.002 A 
ATOM     38  C   UNL     1      -0.926  -0.917  -4.234  0.00  0.00    +0.000 A 
ATOM     39  C   UNL     1      -1.438   0.354  -4.046  0.00  0.00    +0.002 A 
ATOM     40  C   UNL     1      -0.695   1.305  -3.373  0.00  0.00    +0.028 A 
ENDBRANCH  32  35
ENDBRANCH   3  32
TORSDOF 10
