REMARK  Name = ZINC06198480
REMARK  14 active torsions:
REMARK  status: ('A' for Active; 'I' for Inactive)
REMARK    1  A    between atoms: C_1  and  N_62
REMARK    2  A    between atoms: C_2  and  N_62
REMARK    3  A    between atoms: C_3  and  C_4
REMARK    4  A    between atoms: C_3  and  N_62
REMARK    5  A    between atoms: C_4  and  C_5
REMARK    6  A    between atoms: C_5  and  N_6
REMARK    7  A    between atoms: N_6  and  C_7
REMARK    8  A    between atoms: N_6  and  C_22
REMARK    9  A    between atoms: C_7  and  C_8
REMARK   10  A    between atoms: C_13  and  O_20
REMARK   11  A    between atoms: O_20  and  C_21
REMARK   12  A    between atoms: C_22  and  N_24
REMARK   13  A    between atoms: N_24  and  C_25
REMARK   14  A    between atoms: C_25  and  C_26
REMARK                            x       y       z     vdW  Elec       q    Type
REMARK                         _______ _______ _______ _____ _____    ______ ____
ROOT
ATOM      1  N   UNL     1      -3.411   2.144   5.424  0.00  0.00    -0.308 N 
ENDROOT
BRANCH   1   2
ATOM      2  C   UNL     1      -3.476   2.438   4.110  0.00  0.00    +0.133 C 
ATOM      3  S   UNL     1      -4.466   3.725   3.568  0.00  0.00    -0.019 S 
BRANCH   2   4
ATOM      4  N   UNL     1      -2.762   1.718   3.222  0.00  0.00    -0.324 N 
ATOM      5  H   UNL     1      -2.201   0.988   3.529  0.00  0.00    +0.148 HD
BRANCH   4   6
ATOM      6  C   UNL     1      -2.833   2.036   1.794  0.00  0.00    +0.134 C 
BRANCH   6   7
ATOM      7  C   UNL     1      -1.934   1.076   1.012  0.00  0.00    +0.135 C 
ATOM      8  C   UNL     1      -1.993   1.394  -0.498  0.00  0.00    +0.035 C 
ATOM      9  C   UNL     1      -0.548   1.155  -0.989  0.00  0.00    +0.031 C 
ATOM     10  C   UNL     1       0.213   0.720   0.283  0.00  0.00    +0.160 C 
ATOM     11  O   UNL     1      -0.548   1.273   1.378  0.00  0.00    -0.375 OA
ENDBRANCH   6   7
ENDBRANCH   4   6
ENDBRANCH   2   4
ENDBRANCH   1   2
BRANCH   1  12
ATOM     12  C   UNL     1      -2.653   0.975   5.877  0.00  0.00    +0.105 C 
BRANCH  12  13
ATOM     13  C   UNL     1      -1.205   1.383   6.157  0.00  0.00    +0.000 C 
BRANCH  13  14
ATOM     14  C   UNL     1      -0.414   0.163   6.630  0.00  0.00    -0.078 C 
BRANCH  14  17
ATOM     15  C   UNL     1       1.050   1.481   8.037  0.00  0.00    -0.097 C 
ATOM     16  C   UNL     1       1.821  -0.625   7.126  0.00  0.00    -0.097 C 
ATOM     17  N   UNL     1       0.986   0.568   6.877  0.00  0.00    +0.376 N 
ATOM     18  H   UNL     1       1.343   1.057   6.047  0.00  0.00    -0.083 HD
ENDBRANCH  14  17
ENDBRANCH  13  14
ENDBRANCH  12  13
ENDBRANCH   1  12
BRANCH   1  19
ATOM     19  C   UNL     1      -4.098   2.995   6.399  0.00  0.00    +0.147 C 
BRANCH  19  20
ATOM     20  C   UNL     1      -5.454   2.413   6.705  0.00  0.00    +0.035 A 
ATOM     21  C   UNL     1      -6.545   2.848   6.025  0.00  0.00    +0.020 A 
ATOM     22  C   UNL     1      -7.846   2.260   6.342  0.00  0.00    -0.001 A 
ATOM     23  C   UNL     1      -9.006   2.666   5.669  0.00  0.00    +0.013 A 
ATOM     24  C   UNL     1     -10.207   2.103   5.990  0.00  0.00    +0.046 A 
ATOM     25  C   UNL     1     -10.289   1.128   6.983  0.00  0.00    +0.122 A 
ATOM     26  C   UNL     1      -9.155   0.713   7.659  0.00  0.00    +0.072 A 
ATOM     27  C   UNL     1      -7.924   1.274   7.346  0.00  0.00    +0.053 A 
ATOM     28  N   UNL     1      -6.777   0.880   8.003  0.00  0.00    -0.322 N 
ATOM     29  H   UNL     1      -6.833   0.181   8.715  0.00  0.00    +0.169 HD
ATOM     30  C   UNL     1      -5.585   1.424   7.701  0.00  0.00    +0.254 A 
ATOM     31  O   UNL     1      -4.593   1.051   8.302  0.00  0.00    -0.268 OA
BRANCH  25  32
ATOM     32  O   UNL     1     -11.493   0.580   7.289  0.00  0.00    -0.495 OA
ATOM     33  C   UNL     1     -12.626   1.050   6.555  0.00  0.00    +0.277 C 
ENDBRANCH  25  32
ENDBRANCH  19  20
ENDBRANCH   1  19
TORSDOF 11
