REMARK  Name = ZINC63294672
REMARK  6 active torsions:
REMARK  status: ('A' for Active; 'I' for Inactive)
REMARK    1  A    between atoms: N_17  and  C_18
REMARK    2  A    between atoms: C_18  and  C_19
REMARK    3  A    between atoms: C_19  and  C_20
REMARK    4  A    between atoms: N_22  and  C_23
REMARK    5  A    between atoms: C_26  and  O_29
REMARK    6  A    between atoms: O_29  and  C_30
REMARK                            x       y       z     vdW  Elec       q    Type
REMARK                         _______ _______ _______ _____ _____    ______ ____
ROOT
ATOM      1  C   UNL     1      -0.119   1.258  -0.530  0.00  0.00    +0.001 A 
ATOM      2  C   UNL     1       1.056   1.995  -0.734  0.00  0.00    +0.002 A 
ATOM      3  C   UNL     1       2.266   1.412  -0.867  0.00  0.00    +0.026 A 
ATOM      4  C   UNL     1       2.396  -0.002  -0.802  0.00  0.00    +0.043 A 
ATOM      5  N   UNL     1       3.447  -0.786  -0.881  0.00  0.00    -0.376 N 
ATOM      6  C   UNL     1       2.995  -2.175  -0.827  0.00  0.00    +0.124 C 
ATOM      7  C   UNL     1       3.652  -2.945   0.324  0.00  0.00    +0.138 C 
ATOM      8  N   UNL     1       2.865  -4.166   0.557  0.00  0.00    -0.283 N 
ATOM      9  C   UNL     1       1.446  -4.082   0.921  0.00  0.00    +0.114 C 
ATOM     10  C   UNL     1       0.683  -3.318  -0.176  0.00  0.00    +0.052 C 
ATOM     11  C   UNL     1       1.504  -2.102  -0.540  0.00  0.00    -0.036 C 
ATOM     12  C   UNL     1       1.169  -0.805  -0.580  0.00  0.00    -0.001 A 
ATOM     13  C   UNL     1      -0.108  -0.091  -0.450  0.00  0.00    +0.010 A 
ATOM     14  C   UNL     1       3.452  -5.373   0.434  0.00  0.00    +0.302 C 
ATOM     15  O   UNL     1       4.600  -5.453   0.040  0.00  0.00    -0.253 OA
ATOM     16  N   UNL     1       2.768  -6.491   0.749  0.00  0.00    -0.299 N 
ATOM     17  H   UNL     1       1.831  -6.433   0.994  0.00  0.00    +0.150 HD
ATOM     18  H   UNL     1       4.368  -0.493  -0.961  0.00  0.00    +0.160 HD
ENDROOT
BRANCH  16  19
ATOM     19  C   UNL     1       3.439  -7.793   0.720  0.00  0.00    +0.115 C 
BRANCH  19  20
ATOM     20  C   UNL     1       2.446  -8.887   1.115  0.00  0.00    +0.115 C 
BRANCH  20  21
ATOM     21  C   UNL     1       3.136 -10.227   1.086  0.00  0.00    +0.219 C 
ATOM     22  O   UNL     1       4.308 -10.299   0.779  0.00  0.00    -0.275 OA
ATOM     23  N   UNL     1       2.452 -11.344   1.401  0.00  0.00    -0.285 N 
ATOM     24  H   UNL     1       1.499 -11.297   1.573  0.00  0.00    +0.155 HD
BRANCH  23  25
ATOM     25  C   UNL     1       3.118 -12.575   1.478  0.00  0.00    +0.034 A 
ATOM     26  C   UNL     1       2.464 -13.743   1.108  0.00  0.00    +0.027 A 
ATOM     27  C   UNL     1       3.120 -14.955   1.184  0.00  0.00    +0.048 A 
ATOM     28  C   UNL     1       4.433 -15.006   1.629  0.00  0.00    +0.130 A 
ATOM     29  C   UNL     1       5.087 -13.840   1.999  0.00  0.00    +0.048 A 
ATOM     30  C   UNL     1       4.434 -12.626   1.918  0.00  0.00    +0.027 A 
BRANCH  28  31
ATOM     31  O   UNL     1       5.079 -16.200   1.704  0.00  0.00    -0.406 OA
BRANCH  31  32
ATOM     32  C   UNL     1       6.430 -16.179   2.172  0.00  0.00    +0.575 C 
ATOM     33  F   UNL     1       6.467 -15.650   3.466  0.00  0.00    -0.133 F 
ATOM     34  F   UNL     1       6.939 -17.482   2.186  0.00  0.00    -0.133 F 
ATOM     35  F   UNL     1       7.205 -15.385   1.320  0.00  0.00    -0.133 F 
ENDBRANCH  31  32
ENDBRANCH  28  31
ENDBRANCH  23  25
ENDBRANCH  20  21
ENDBRANCH  19  20
ENDBRANCH  16  19
TORSDOF 6
