REMARK  Name = ZINC43287478
REMARK  10 active torsions:
REMARK  status: ('A' for Active; 'I' for Inactive)
REMARK    1  A    between atoms: C_1  and  C_2
REMARK    2  A    between atoms: C_2  and  C_3
REMARK    3  A    between atoms: C_3  and  C_5
REMARK    4  A    between atoms: C_3  and  N_22
REMARK    5  A    between atoms: C_5  and  C_7
REMARK    6  A    between atoms: C_5  and  N_13
REMARK    7  A    between atoms: N_13  and  C_14
REMARK    8  A    between atoms: N_13  and  C_17
REMARK    9  A    between atoms: C_14  and  C_15
REMARK   10  A    between atoms: C_15  and  O_16
REMARK                            x       y       z     vdW  Elec       q    Type
REMARK                         _______ _______ _______ _____ _____    ______ ____
ROOT
ATOM      1  C   UNL     1       0.527  -1.331  -1.165  0.00  0.00    +0.079 C 
ENDROOT
BRANCH   1   2
ATOM      2  C   UNL     1       0.255   0.135  -1.386  0.00  0.00    +0.006 A 
ATOM      3  C   UNL     1       1.064   1.082  -1.921  0.00  0.00    +0.028 A 
ATOM      4  C   UNL     1       0.598   2.380  -2.026  0.00  0.00    +0.025 A 
ATOM      5  C   UNL     1      -0.654   2.666  -1.592  0.00  0.00    +0.060 A 
ATOM      6  S   UNL     1      -1.219   1.073  -1.018  0.00  0.00    -0.099 S 
ATOM      7 BR   UNL     1       1.690   3.735  -2.765  0.00  0.00    -0.050 Br
ENDBRANCH   1   2
BRANCH   1   8
ATOM      8  C   UNL     1       0.762  -1.587   0.325  0.00  0.00    -0.053 C 
BRANCH   8   9
ATOM      9  N   UNL     1       1.816  -0.690   0.816  0.00  0.00    +0.381 N 
ATOM     10  H   UNL     1       2.669  -0.863   0.306  0.00  0.00    -0.090 HD
ATOM     11  H   UNL     1       1.532   0.269   0.680  0.00  0.00    -0.090 HD
ATOM     12  H   UNL     1       1.970  -0.859   1.799  0.00  0.00    -0.090 HD
ENDBRANCH   8   9
BRANCH   8  14
ATOM     13  C   UNL     1       1.477  -3.283   2.014  0.00  0.00    +0.002 C 
ATOM     14  C   UNL     1       1.192  -3.041   0.530  0.00  0.00    -0.018 C 
ENDBRANCH   8  14
ENDBRANCH   1   8
BRANCH   1  15
ATOM     15  N   UNL     1      -0.627  -2.117  -1.622  0.00  0.00    -0.291 NA
BRANCH  15  16
ATOM     16  C   UNL     1      -0.216  -3.469  -2.025  0.00  0.00    +0.057 C 
ATOM     17  C   UNL     1       1.138  -3.412  -2.762  0.00  0.00    +0.019 C 
ATOM     18  C   UNL     1       1.011  -4.483  -3.873  0.00  0.00    +0.002 C 
ATOM     19  C   UNL     1      -0.463  -4.333  -4.327  0.00  0.00    +0.002 C 
ATOM     20  C   UNL     1      -1.234  -4.054  -3.020  0.00  0.00    +0.019 C 
ENDBRANCH  15  16
BRANCH  15  21
ATOM     21  C   UNL     1      -1.670  -2.170  -0.589  0.00  0.00    +0.113 C 
BRANCH  21  22
ATOM     22  C   UNL     1      -2.990  -2.616  -1.220  0.00  0.00    +0.171 C 
BRANCH  22  23
ATOM     23  O   UNL     1      -3.013  -4.042  -1.318  0.00  0.00    -0.394 OA
ATOM     24  H   UNL     1      -3.793  -4.393  -1.770  0.00  0.00    +0.209 HD
ENDBRANCH  22  23
ENDBRANCH  21  22
ENDBRANCH  15  21
ENDBRANCH   1  15
TORSDOF 9
