REMARK  Name = ZINC36556631
REMARK  15 active torsions:
REMARK  status: ('A' for Active; 'I' for Inactive)
REMARK    1  A    between atoms: C_1  and  C_2
REMARK    2  A    between atoms: C_7  and  C_8
REMARK    3  A    between atoms: C_8  and  C_9
REMARK    4  A    between atoms: N_11  and  C_12
REMARK    5  A    between atoms: N_11  and  C_19
REMARK    6  A    between atoms: C_12  and  C_13
REMARK    7  A    between atoms: C_16  and  C_18
REMARK    8  A    between atoms: C_19  and  C_21
REMARK    9  A    between atoms: C_19  and  C_33
REMARK   10  A    between atoms: C_30  and  O_31
REMARK   11  A    between atoms: O_31  and  C_32
REMARK   12  A    between atoms: N_35  and  C_36
REMARK   13  A    between atoms: C_36  and  C_37
REMARK   14  A    between atoms: C_36  and  C_38
REMARK   15  A    between atoms: C_36  and  C_39
REMARK                            x       y       z     vdW  Elec       q    Type
REMARK                         _______ _______ _______ _____ _____    ______ ____
ROOT
ATOM      1  C   UNL     1      -2.286   0.538   4.005  0.00  0.00    +0.197 C 
ENDROOT
BRANCH   1   2
ATOM      2  C   UNL     1      -2.055   1.963   4.437  0.00  0.00    +0.031 A 
ATOM      3  C   UNL     1      -2.921   2.982   4.005  0.00  0.00    -0.009 A 
ATOM      4  C   UNL     1      -4.013   2.702   3.166  0.00  0.00    +0.009 A 
ATOM      5  C   UNL     1      -4.832   3.714   2.767  0.00  0.00    +0.001 A 
ATOM      6  C   UNL     1      -4.603   5.026   3.176  0.00  0.00    +0.001 A 
ATOM      7  C   UNL     1      -3.555   5.334   3.988  0.00  0.00    +0.008 A 
ATOM      8  C   UNL     1      -2.688   4.316   4.422  0.00  0.00    -0.017 A 
ATOM      9  C   UNL     1      -1.596   4.597   5.261  0.00  0.00    +0.012 A 
ATOM     10  C   UNL     1      -0.777   3.589   5.663  0.00  0.00    +0.046 A 
ATOM     11  C   UNL     1      -1.007   2.271   5.257  0.00  0.00    +0.126 A 
BRANCH  11  12
ATOM     12  O   UNL     1      -0.174   1.284   5.679  0.00  0.00    -0.495 OA
ATOM     13  C   UNL     1       0.917   1.670   6.518  0.00  0.00    +0.277 C 
ENDBRANCH  11  12
ENDBRANCH   1   2
BRANCH   1  14
ATOM     14  C   UNL     1      -2.452  -0.336   5.221  0.00  0.00    +0.239 C 
ATOM     15  O   UNL     1      -1.492  -0.910   5.690  0.00  0.00    -0.273 OA
ATOM     16  N   UNL     1      -3.666  -0.478   5.788  0.00  0.00    -0.309 N 
ATOM     17  H   UNL     1      -4.434  -0.019   5.413  0.00  0.00    +0.149 HD
BRANCH  16  18
ATOM     18  C   UNL     1      -3.828  -1.328   6.971  0.00  0.00    +0.026 C 
ATOM     19  C   UNL     1      -2.950  -0.794   8.105  0.00  0.00    +0.031 C 
ATOM     20  C   UNL     1      -5.293  -1.317   7.411  0.00  0.00    +0.031 C 
ATOM     21  C   UNL     1      -3.407  -2.759   6.632  0.00  0.00    +0.031 C 
ENDBRANCH  16  18
ENDBRANCH   1  14
BRANCH   1  24
ATOM     22  C   UNL     1      -0.072   0.879   3.045  0.00  0.00    +0.221 C 
ATOM     23  O   UNL     1      -0.092   2.014   3.473  0.00  0.00    -0.275 OA
ATOM     24  N   UNL     1      -1.138   0.073   3.222  0.00  0.00    -0.278 N 
BRANCH  22  25
ATOM     25  C   UNL     1       1.144   0.370   2.316  0.00  0.00    +0.131 C 
BRANCH  25  32
ATOM     26  C   UNL     1       2.957   0.648   4.548  0.00  0.00    +0.044 C 
ATOM     27  C   UNL     1       3.071   1.575   3.365  0.00  0.00    -0.047 A 
ATOM     28  C   UNL     1       4.046   2.554   3.346  0.00  0.00    +0.003 A 
ATOM     29  C   UNL     1       4.151   3.404   2.261  0.00  0.00    +0.000 A 
ATOM     30  C   UNL     1       3.280   3.274   1.195  0.00  0.00    +0.000 A 
ATOM     31  C   UNL     1       2.305   2.295   1.214  0.00  0.00    +0.004 A 
ATOM     32  C   UNL     1       2.204   1.442   2.297  0.00  0.00    -0.036 A 
ENDBRANCH  25  32
ENDBRANCH  22  25
BRANCH  24  33
ATOM     33  C   UNL     1      -1.149  -1.268   2.632  0.00  0.00    +0.183 C 
BRANCH  33  34
ATOM     34  C   UNL     1      -0.385  -2.214   3.522  0.00  0.00    +0.122 A 
ATOM     35  C   UNL     1      -0.924  -3.060   4.418  0.00  0.00    +0.046 A 
ATOM     36  C   UNL     1       0.149  -3.752   5.026  0.00  0.00    +0.045 A 
ATOM     37  C   UNL     1       1.280  -3.287   4.464  0.00  0.00    +0.102 A 
ATOM     38  O   UNL     1       0.950  -2.360   3.550  0.00  0.00    -0.463 OA
ATOM     39  C   UNL     1       2.679  -3.735   4.801  0.00  0.00    +0.086 C 
ENDBRANCH  33  34
ENDBRANCH  24  33
ENDBRANCH   1  24
TORSDOF 9
