REMARK  Name = ZINC04017469
REMARK  9 active torsions:
REMARK  status: ('A' for Active; 'I' for Inactive)
REMARK    1  A    between atoms: C_3  and  C_10
REMARK    2  A    between atoms: C_5  and  N_7
REMARK    3  A    between atoms: N_12  and  C_13
REMARK    4  A    between atoms: C_13  and  C_15
REMARK    5  A    between atoms: C_13  and  N_19
REMARK    6  A    between atoms: N_19  and  C_20
REMARK    7  A    between atoms: C_20  and  N_22
REMARK    8  A    between atoms: N_22  and  C_23
REMARK    9  A    between atoms: C_26  and  N_29
REMARK                            x       y       z     vdW  Elec       q    Type
REMARK                         _______ _______ _______ _____ _____    ______ ____
ROOT
ATOM      1  C   UNL     1       0.950   6.747   0.436  0.00  0.00    +0.211 C 
ENDROOT
BRANCH   1   4
ATOM      2  C   UNL     1       0.273   4.501   1.096  0.00  0.00    +0.246 C 
ATOM      3  O   UNL     1      -0.876   4.895   1.147  0.00  0.00    -0.270 OA
ATOM      4  N   UNL     1       1.261   5.350   0.750  0.00  0.00    -0.290 N 
ATOM      5  H   UNL     1       2.178   5.036   0.708  0.00  0.00    +0.151 HD
BRANCH   2   8
ATOM      6  C   UNL     1       2.190   1.320   1.651  0.00  0.00    +0.003 A 
ATOM      7  C   UNL     1       1.904   2.637   1.354  0.00  0.00    +0.013 A 
ATOM      8  C   UNL     1       0.586   3.092   1.412  0.00  0.00    +0.039 A 
ATOM      9  C   UNL     1      -0.435   2.210   1.771  0.00  0.00    +0.045 A 
ATOM     10  C   UNL     1      -0.137   0.895   2.061  0.00  0.00    +0.127 A 
ATOM     11  C   UNL     1       1.173   0.451   2.006  0.00  0.00    +0.033 A 
BRANCH  10  12
ATOM     12  N   UNL     1      -1.219  -0.043   2.436  0.00  0.00    +0.056 N 
ATOM     13  O   UNL     1      -0.956  -1.203   2.696  0.00  0.00    -0.126 OA
ATOM     14  O   UNL     1      -2.372   0.346   2.484  0.00  0.00    -0.126 OA
ENDBRANCH  10  12
ENDBRANCH   2   8
ENDBRANCH   1   4
BRANCH   1  15
ATOM     15  C   UNL     1       1.701   7.165  -0.830  0.00  0.00    +0.225 C 
ATOM     16 CL   UNL     1       1.194   6.113  -2.204  0.00  0.00    -0.080 Cl
ATOM     17 CL   UNL     1       1.319   8.884  -1.216  0.00  0.00    -0.080 Cl
ATOM     18 CL   UNL     1       3.475   6.989  -0.562  0.00  0.00    -0.080 Cl
ENDBRANCH   1  15
BRANCH   1  19
ATOM     19  N   UNL     1       1.362   7.601   1.552  0.00  0.00    -0.305 N 
ATOM     20  H   UNL     1       2.302   7.796   1.692  0.00  0.00    +0.150 HD
BRANCH  19  21
ATOM     21  C   UNL     1       0.436   8.117   2.385  0.00  0.00    +0.136 C 
ATOM     22  S   UNL     1      -1.223   7.772   2.137  0.00  0.00    -0.019 S 
BRANCH  21  23
ATOM     23  N   UNL     1       0.815   8.903   3.412  0.00  0.00    -0.297 N 
ATOM     24  H   UNL     1       1.757   9.048   3.589  0.00  0.00    +0.154 HD
BRANCH  23  25
ATOM     25  C   UNL     1      -0.151   9.509   4.222  0.00  0.00    +0.033 A 
ATOM     26  C   UNL     1      -0.026  10.848   4.571  0.00  0.00    +0.025 A 
ATOM     27  C   UNL     1      -0.984  11.445   5.366  0.00  0.00    +0.034 A 
ATOM     28  C   UNL     1      -2.061  10.708   5.825  0.00  0.00    +0.126 A 
ATOM     29  C   UNL     1      -2.185   9.374   5.484  0.00  0.00    +0.034 A 
ATOM     30  C   UNL     1      -1.234   8.772   4.684  0.00  0.00    +0.025 A 
BRANCH  28  31
ATOM     31  N   UNL     1      -3.083  11.350   6.682  0.00  0.00    +0.056 N 
ATOM     32  O   UNL     1      -4.032  10.703   7.087  0.00  0.00    -0.126 OA
ATOM     33  O   UNL     1      -2.975  12.525   6.983  0.00  0.00    -0.126 OA
ENDBRANCH  28  31
ENDBRANCH  23  25
ENDBRANCH  21  23
ENDBRANCH  19  21
ENDBRANCH   1  19
TORSDOF 9
