REMARK  Name = ZINC19827690
REMARK  11 active torsions:
REMARK  status: ('A' for Active; 'I' for Inactive)
REMARK    1  A    between atoms: C_1  and  C_2
REMARK    2  A    between atoms: C_2  and  N_3
REMARK    3  A    between atoms: C_7  and  C_9
REMARK    4  A    between atoms: C_9  and  C_10
REMARK    5  A    between atoms: C_13  and  O_16
REMARK    6  A    between atoms: O_16  and  C_17
REMARK    7  A    between atoms: C_19  and  N_33
REMARK    8  A    between atoms: C_20  and  C_31
REMARK    9  A    between atoms: C_21  and  C_23
REMARK   10  A    between atoms: C_26  and  O_29
REMARK   11  A    between atoms: O_29  and  C_30
REMARK                            x       y       z     vdW  Elec       q    Type
REMARK                         _______ _______ _______ _____ _____    ______ ____
ROOT
ATOM      1  N   UNL     1      -1.372  -0.511   0.012  0.00  0.00    -0.331 N 
ATOM      2  C   UNL     1      -2.066  -0.772   1.279  0.00  0.00    +0.140 C 
ATOM      3  C   UNL     1      -2.769  -2.107   1.189  0.00  0.00    +0.003 C 
ATOM      4  C   UNL     1      -3.183  -2.558   0.003  0.00  0.00    +0.136 C 
ATOM      5  C   UNL     1      -2.946  -1.751  -1.209  0.00  0.00    +0.013 C 
ATOM      6  C   UNL     1      -2.048  -0.750  -1.174  0.00  0.00    +0.078 C 
ATOM      7  O   UNL     1      -3.823  -3.747  -0.116  0.00  0.00    -0.441 OA
ATOM      8  C   UNL     1      -3.706  -4.673   0.851  0.00  0.00    +0.199 C 
ATOM      9  C   UNL     1      -3.310  -4.335   2.103  0.00  0.00    +0.098 C 
ATOM     10  C   UNL     1      -2.990  -2.907   2.445  0.00  0.00    +0.095 C 
ENDROOT
BRANCH  10  11
ATOM     11  C   UNL     1      -4.136  -2.310   3.221  0.00  0.00    -0.035 A 
ATOM     12  C   UNL     1      -5.392  -2.236   2.650  0.00  0.00    +0.008 A 
ATOM     13  C   UNL     1      -6.444  -1.690   3.359  0.00  0.00    +0.046 A 
ATOM     14  C   UNL     1      -6.239  -1.215   4.646  0.00  0.00    +0.120 A 
ATOM     15  C   UNL     1      -4.977  -1.291   5.218  0.00  0.00    +0.046 A 
ATOM     16  C   UNL     1      -3.930  -1.843   4.507  0.00  0.00    +0.008 A 
BRANCH  14  17
ATOM     17  O   UNL     1      -7.272  -0.677   5.346  0.00  0.00    -0.495 OA
ATOM     18  C   UNL     1      -6.987  -0.209   6.666  0.00  0.00    +0.277 C 
ENDBRANCH  14  17
ENDBRANCH  10  11
BRANCH   8  19
ATOM     19  N   UNL     1      -3.993  -5.985   0.565  0.00  0.00    -0.328 N 
ATOM     20  H   UNL     1      -4.278  -6.236  -0.327  0.00  0.00    +0.145 HD
ATOM     21  H   UNL     1      -3.912  -6.661   1.257  0.00  0.00    +0.145 HD
ENDBRANCH   8  19
BRANCH   1  23
ATOM     22  C   UNL     1      -0.019   1.526   0.010  0.00  0.00    +0.024 C 
ATOM     23  C   UNL     1       0.002  -0.004   0.002  0.00  0.00    +0.101 C 
ENDBRANCH   1  23
BRANCH   9  24
ATOM     24  C   UNL     1      -3.197  -5.348   3.109  0.00  0.00    +0.101 C 
ATOM     25  N   UNL     1      -3.107  -6.152   3.907  0.00  0.00    -0.191 NA
ENDBRANCH   9  24
BRANCH   5  26
ATOM     26  C   UNL     1      -3.705  -2.044  -2.477  0.00  0.00    +0.075 C 
BRANCH  26  27
ATOM     27  C   UNL     1      -3.003  -3.135  -3.243  0.00  0.00    -0.043 A 
ATOM     28  C   UNL     1      -2.029  -2.811  -4.169  0.00  0.00    +0.007 A 
ATOM     29  C   UNL     1      -1.383  -3.809  -4.873  0.00  0.00    +0.046 A 
ATOM     30  C   UNL     1      -1.714  -5.138  -4.650  0.00  0.00    +0.120 A 
ATOM     31  C   UNL     1      -2.691  -5.461  -3.720  0.00  0.00    +0.046 A 
ATOM     32  C   UNL     1      -3.330  -4.459  -3.015  0.00  0.00    +0.007 A 
BRANCH  30  33
ATOM     33  O   UNL     1      -1.081  -6.122  -5.341  0.00  0.00    -0.495 OA
ATOM     34  C   UNL     1      -1.472  -7.467  -5.060  0.00  0.00    +0.277 C 
ENDBRANCH  30  33
ENDBRANCH  26  27
ENDBRANCH   5  26
TORSDOF 8
