REMARK  Name = ZINC63191103
REMARK  6 active torsions:
REMARK  status: ('A' for Active; 'I' for Inactive)
REMARK    1  A    between atoms: C_3  and  C_19
REMARK    2  A    between atoms: C_5  and  N_7
REMARK    3  A    between atoms: N_7  and  S_8
REMARK    4  A    between atoms: S_8  and  C_11
REMARK    5  A    between atoms: C_14  and  C_17
REMARK    6  A    between atoms: C_19  and  N_20
REMARK                            x       y       z     vdW  Elec       q    Type
REMARK                         _______ _______ _______ _____ _____    ______ ____
ROOT
ATOM      1  N   UNL     1       1.238  -2.077  -0.021  0.00  0.00    -0.098 NA
ENDROOT
BRANCH   1   6
ATOM      2  C   UNL     1      -0.017   1.377   0.010  0.00  0.00    +0.002 A 
ATOM      3  C   UNL     1       1.171   2.086   0.002  0.00  0.00    +0.002 A 
ATOM      4  C   UNL     1       2.380   1.416  -0.013  0.00  0.00    -0.063 A 
ATOM      5  C   UNL     1       2.406   0.035  -0.021  0.00  0.00    +0.028 A 
ATOM      6  C   UNL     1       1.215  -0.681  -0.013  0.00  0.00    +0.074 A 
ATOM      7  C   UNL     1       0.002  -0.004   0.002  0.00  0.00    +0.027 A 
BRANCH   4   8
ATOM      8  C   UNL     1       3.671   2.193  -0.023  0.00  0.00    -0.051 C 
BRANCH   8   9
ATOM      9  N   UNL     1       4.105   2.438   1.359  0.00  0.00    +0.381 N 
ATOM     10  H   UNL     1       4.969   2.959   1.353  0.00  0.00    -0.090 HD
ATOM     11  H   UNL     1       3.396   2.969   1.845  0.00  0.00    -0.090 HD
ATOM     12  H   UNL     1       4.246   1.557   1.829  0.00  0.00    -0.090 HD
ENDBRANCH   8   9
ENDBRANCH   4   8
ENDBRANCH   1   6
BRANCH   1  13
ATOM     13  S   UNL     1      -0.182  -2.928  -0.011  0.00  0.00    +0.092 S 
ATOM     14  O   UNL     1      -0.802  -2.671   1.242  0.00  0.00    -0.148 OA
ATOM     15  O   UNL     1      -0.826  -2.658  -1.249  0.00  0.00    -0.148 OA
BRANCH  13  16
ATOM     16  C   UNL     1       0.236  -4.640  -0.025  0.00  0.00    +0.110 A 
ATOM     17  C   UNL     1       0.393  -5.301  -1.230  0.00  0.00    +0.030 A 
ATOM     18  C   UNL     1       0.720  -6.641  -1.248  0.00  0.00    +0.021 A 
ATOM     19  C   UNL     1       0.893  -7.330  -0.045  0.00  0.00    +0.052 A 
ATOM     20  C   UNL     1       0.734  -6.657   1.167  0.00  0.00    +0.021 A 
ATOM     21  C   UNL     1       0.411  -5.315   1.170  0.00  0.00    +0.030 A 
BRANCH  19  22
ATOM     22  C   UNL     1       1.233  -8.721  -0.056  0.00  0.00    +0.099 C 
ATOM     23  N   UNL     1       1.502  -9.825  -0.065  0.00  0.00    -0.191 NA
ENDBRANCH  19  22
ENDBRANCH  13  16
ENDBRANCH   1  13
TORSDOF 6
