REMARK  Name = ZINC05486767
REMARK  10 active torsions:
REMARK  status: ('A' for Active; 'I' for Inactive)
REMARK    1  A    between atoms: C_1  and  C_2
REMARK    2  A    between atoms: C_2  and  C_19
REMARK    3  A    between atoms: N_3  and  N_4
REMARK    4  A    between atoms: N_4  and  C_5
REMARK    5  A    between atoms: C_5  and  N_7
REMARK    6  A    between atoms: N_7  and  N_8
REMARK    7  A    between atoms: N_8  and  C_9
REMARK    8  A    between atoms: C_9  and  N_11
REMARK    9  A    between atoms: N_11  and  C_12
REMARK   10  A    between atoms: N_11  and  C_13
REMARK                            x       y       z     vdW  Elec       q    Type
REMARK                         _______ _______ _______ _____ _____    ______ ____
ROOT
ATOM      1  C   UNL     1      -4.198   1.449  -0.436  0.00  0.00    +0.166 C 
ATOM      2  S   UNL     1      -3.503   2.996  -0.200  0.00  0.00    -0.016 S 
ENDROOT
BRANCH   1   3
ATOM      3  N   UNL     1      -3.544   0.520  -1.160  0.00  0.00    -0.217 N 
ATOM      4  H   UNL     1      -2.715   0.749  -1.608  0.00  0.00    +0.176 HD
BRANCH   3   7
ATOM      5  C   UNL     1      -3.987  -3.064  -2.094  0.00  0.00    +0.069 C 
ATOM      6  C   UNL     1      -3.382  -1.701  -1.879  0.00  0.00    +0.082 C 
ATOM      7  N   UNL     1      -4.061  -0.778  -1.265  0.00  0.00    -0.184 NA
BRANCH   6   8
ATOM      8  C   UNL     1      -2.024  -1.414  -2.364  0.00  0.00    +0.094 A 
ATOM      9  C   UNL     1      -1.804  -0.988  -3.744  0.00  0.00    +0.009 A 
ATOM     10  C   UNL     1      -2.852  -0.841  -4.657  0.00  0.00    +0.010 A 
ATOM     11  C   UNL     1      -2.581  -0.434  -5.931  0.00  0.00    +0.001 A 
ATOM     12  C   UNL     1      -1.275  -0.174  -6.338  0.00  0.00    +0.001 A 
ATOM     13  C   UNL     1      -0.229  -0.314  -5.476  0.00  0.00    +0.008 A 
ATOM     14  C   UNL     1      -0.473  -0.725  -4.158  0.00  0.00    -0.014 A 
ATOM     15  C   UNL     1       0.561  -0.888  -3.217  0.00  0.00    +0.028 A 
ATOM     16  C   UNL     1       0.258  -1.289  -1.951  0.00  0.00    +0.112 A 
ATOM     17  N   UNL     1      -0.980  -1.537  -1.556  0.00  0.00    -0.253 NA
ENDBRANCH   6   8
ENDBRANCH   3   7
ENDBRANCH   1   3
BRANCH   1  18
ATOM     18  N   UNL     1      -5.401   1.162   0.101  0.00  0.00    -0.245 N 
ATOM     19  H   UNL     1      -5.903   1.852   0.562  0.00  0.00    +0.172 HD
BRANCH  18  20
ATOM     20  N   UNL     1      -5.925  -0.133  -0.007  0.00  0.00    -0.246 N 
ATOM     21  H   UNL     1      -6.059  -0.530  -0.882  0.00  0.00    +0.172 HD
BRANCH  20  22
ATOM     22  C   UNL     1      -6.241  -0.827   1.104  0.00  0.00    +0.153 C 
ATOM     23  S   UNL     1      -6.812  -2.435   0.975  0.00  0.00    -0.017 S 
BRANCH  22  24
ATOM     24  N   UNL     1      -6.108  -0.254   2.317  0.00  0.00    -0.285 N 
ATOM     25  C   UNL     1      -5.585   1.110   2.429  0.00  0.00    +0.137 C 
BRANCH  24  26
ATOM     26  C   UNL     1      -6.470  -0.961   3.468  0.00  0.00    +0.035 A 
ATOM     27  C   UNL     1      -6.161  -2.311   3.581  0.00  0.00    +0.023 A 
ATOM     28  C   UNL     1      -6.515  -3.005   4.721  0.00  0.00    +0.002 A 
ATOM     29  C   UNL     1      -7.186  -2.361   5.745  0.00  0.00    +0.000 A 
ATOM     30  C   UNL     1      -7.499  -1.019   5.633  0.00  0.00    +0.002 A 
ATOM     31  C   UNL     1      -7.143  -0.318   4.498  0.00  0.00    +0.023 A 
ENDBRANCH  24  26
ENDBRANCH  22  24
ENDBRANCH  20  22
ENDBRANCH  18  20
ENDBRANCH   1  18
TORSDOF 8
