REMARK  Name = ZINC08645123
REMARK  6 active torsions:
REMARK  status: ('A' for Active; 'I' for Inactive)
REMARK    1  A    between atoms: C_3  and  N_9
REMARK    2  A    between atoms: C_10  and  C_12
REMARK    3  A    between atoms: C_12  and  S_13
REMARK    4  A    between atoms: S_13  and  C_14
REMARK    5  A    between atoms: C_17  and  C_20
REMARK    6  A    between atoms: N_18  and  N_19
REMARK                            x       y       z     vdW  Elec       q    Type
REMARK                         _______ _______ _______ _____ _____    ______ ____
ROOT
ATOM      1  C   UNL     1       0.035  -0.821  -1.092  0.00  0.00    +0.209 A 
ATOM      2  N   UNL     1       0.064  -2.058  -0.651  0.00  0.00    -0.121 NA
ATOM      3  N   UNL     1       0.087  -2.068   0.634  0.00  0.00    -0.127 NA
ATOM      4  C   UNL     1       0.079  -0.838   1.092  0.00  0.00    +0.183 A 
ATOM      5  N   UNL     1       0.049  -0.001   0.000  0.00  0.00    -0.224 N 
ENDROOT
BRANCH   4   6
ATOM      6  C   UNL     1       0.100  -0.428   2.512  0.00  0.00    +0.039 A 
ATOM      7  C   UNL     1       0.095   0.926   2.851  0.00  0.00    +0.014 A 
ATOM      8  C   UNL     1       0.108   1.302   4.178  0.00  0.00    +0.021 A 
ATOM      9  C   UNL     1       0.139   0.339   5.174  0.00  0.00    +0.042 A 
ATOM     10  C   UNL     1       0.149  -1.005   4.845  0.00  0.00    +0.040 A 
ATOM     11  C   UNL     1       0.130  -1.395   3.520  0.00  0.00    +0.053 A 
ATOM     12 CL   UNL     1       0.145  -3.081   3.108  0.00  0.00    -0.083 Cl
ATOM     13 CL   UNL     1       0.163   0.821   6.841  0.00  0.00    -0.083 Cl
ENDBRANCH   4   6
BRANCH   5  14
ATOM     14  N   UNL     1       0.030   1.365   0.007  0.00  0.00    -0.295 N 
ATOM     15  H   UNL     1       0.967   1.739  -0.008  0.00  0.00    +0.163 HD
ATOM     16  H   UNL     1      -0.514   1.723  -0.763  0.00  0.00    +0.163 HD
ENDBRANCH   5  14
BRANCH   1  17
ATOM     17  S   UNL     1      -0.011  -0.314  -2.779  0.00  0.00    -0.075 S 
BRANCH  17  18
ATOM     18  C   UNL     1      -0.007  -1.931  -3.593  0.00  0.00    +0.173 C 
BRANCH  18  20
ATOM     19  N   UNL     1      -0.048  -2.814  -5.904  0.00  0.00    -0.284 N 
ATOM     20  C   UNL     1      -0.044  -1.741  -5.088  0.00  0.00    +0.228 C 
ATOM     21  O   UNL     1      -0.070  -0.623  -5.556  0.00  0.00    -0.275 OA
ATOM     22  H   UNL     1       0.038  -3.706  -5.532  0.00  0.00    +0.155 HD
BRANCH  19  25
ATOM     23  C   UNL     1       0.262  -1.366  -9.271  0.00  0.00    +0.040 A 
ATOM     24  C   UNL     1       0.390  -1.535  -7.905  0.00  0.00    +0.027 A 
ATOM     25  C   UNL     1      -0.177  -2.641  -7.288  0.00  0.00    +0.052 A 
ATOM     26  C   UNL     1      -0.868  -3.579  -8.045  0.00  0.00    +0.065 A 
ATOM     27  C   UNL     1      -0.998  -3.403  -9.409  0.00  0.00    +0.060 A 
ATOM     28  C   UNL     1      -0.431  -2.299 -10.023  0.00  0.00    +0.125 A 
ATOM     29  F   UNL     1      -0.555  -2.131 -11.358  0.00  0.00    -0.205 F 
ATOM     30 CL   UNL     1      -1.572  -4.967  -7.277  0.00  0.00    -0.082 Cl
ENDBRANCH  19  25
ENDBRANCH  18  20
ENDBRANCH  17  18
ENDBRANCH   1  17
TORSDOF 6
