REMARK  Name = ZINC67040178
REMARK  6 active torsions:
REMARK  status: ('A' for Active; 'I' for Inactive)
REMARK    1  A    between atoms: C_1  and  C_2
REMARK    2  A    between atoms: C_2  and  C_3
REMARK    3  A    between atoms: C_3  and  C_5
REMARK    4  A    between atoms: C_3  and  N_15
REMARK    5  A    between atoms: N_18  and  N_19
REMARK    6  A    between atoms: C_20  and  C_22
REMARK                            x       y       z     vdW  Elec       q    Type
REMARK                         _______ _______ _______ _____ _____    ______ ____
ROOT
ATOM      1  N   UNL     1      -0.055  -0.114  -2.441  0.00  0.00    -0.288 N 
ATOM      2  C   UNL     1       0.107   1.109  -2.984  0.00  0.00    +0.317 C 
ATOM      3  O   UNL     1       0.895   1.893  -2.492  0.00  0.00    -0.251 OA
ATOM      4  N   UNL     1      -0.604   1.462  -4.073  0.00  0.00    -0.218 N 
ATOM      5  H   UNL     1      -0.683  -0.740  -2.833  0.00  0.00    +0.151 HD
ATOM      6  H   UNL     1      -0.488   2.342  -4.464  0.00  0.00    +0.174 HD
ENDROOT
BRANCH   4   7
ATOM      7  N   UNL     1      -1.512   0.558  -4.640  0.00  0.00    -0.229 N 
ATOM      8  C   UNL     1      -2.223   0.911  -5.729  0.00  0.00    +0.260 C 
ATOM      9  O   UNL     1      -2.077   2.013  -6.220  0.00  0.00    -0.269 OA
ATOM     10  H   UNL     1      -1.629  -0.322  -4.249  0.00  0.00    +0.173 HD
BRANCH   8  11
ATOM     11  C   UNL     1      -3.180  -0.043  -6.327  0.00  0.00    +0.038 A 
ATOM     12  C   UNL     1      -3.354  -1.308  -5.763  0.00  0.00    +0.016 A 
ATOM     13  C   UNL     1      -4.249  -2.193  -6.324  0.00  0.00    +0.039 A 
ATOM     14  C   UNL     1      -4.975  -1.830  -7.448  0.00  0.00    +0.123 A 
ATOM     15  C   UNL     1      -4.806  -0.575  -8.013  0.00  0.00    +0.039 A 
ATOM     16  C   UNL     1      -3.919   0.321  -7.455  0.00  0.00    +0.016 A 
ATOM     17  F   UNL     1      -5.851  -2.702  -7.995  0.00  0.00    -0.205 F 
ENDBRANCH   8  11
ENDBRANCH   4   7
BRANCH   1  18
ATOM     18  C   UNL     1       0.718  -0.497  -1.257  0.00  0.00    +0.140 C 
BRANCH  18  19
ATOM     19  C   UNL     1       0.847  -1.998  -1.206  0.00  0.00    +0.129 A 
ATOM     20  N   UNL     1       0.413  -2.851  -2.172  0.00  0.00    -0.340 N 
ATOM     21  H   UNL     1      -0.027  -2.605  -3.001  0.00  0.00    +0.167 HD
ATOM     22  C   UNL     1       0.714  -4.132  -1.755  0.00  0.00    +0.066 A 
ATOM     23  C   UNL     1       0.523  -5.396  -2.298  0.00  0.00    +0.028 A 
ATOM     24  C   UNL     1       0.953  -6.508  -1.606  0.00  0.00    +0.002 A 
ATOM     25  C   UNL     1       1.572  -6.372  -0.372  0.00  0.00    +0.002 A 
ATOM     26  C   UNL     1       1.768  -5.137   0.178  0.00  0.00    +0.030 A 
ATOM     27  C   UNL     1       1.342  -3.995  -0.506  0.00  0.00    +0.089 A 
ATOM     28  N   UNL     1       1.396  -2.666  -0.233  0.00  0.00    -0.231 NA
ENDBRANCH  18  19
BRANCH  18  30
ATOM     29  C   UNL     1      -0.019   1.526   0.010  0.00  0.00    +0.006 C 
ATOM     30  C   UNL     1       0.002  -0.004   0.002  0.00  0.00    +0.027 C 
ENDBRANCH  18  30
ENDBRANCH   1  18
TORSDOF 5
