REMARK  Name = ZINC06784954
REMARK  10 active torsions:
REMARK  status: ('A' for Active; 'I' for Inactive)
REMARK    1  A    between atoms: C_1  and  C_2
REMARK    2  A    between atoms: C_2  and  C_3
REMARK    3  A    between atoms: C_3  and  N_4
REMARK    4  A    between atoms: C_5  and  N_26
REMARK    5  A    between atoms: C_6  and  C_13
REMARK    6  A    between atoms: C_13  and  C_15
REMARK    7  A    between atoms: C_15  and  N_46
REMARK    8  A    between atoms: C_16  and  N_46
REMARK    9  A    between atoms: C_17  and  C_18
REMARK   10  A    between atoms: C_17  and  N_46
REMARK                            x       y       z     vdW  Elec       q    Type
REMARK                         _______ _______ _______ _____ _____    ______ ____
ROOT
ATOM      1  N   UNL     1       0.012  -0.015  -0.172  0.00  0.00    -0.281 N 
ATOM      2  C   UNL     1       0.049  -0.532   1.091  0.00  0.00    +0.116 A 
ATOM      3  C   UNL     1       0.057  -1.929   1.254  0.00  0.00    +0.118 A 
ATOM      4  C   UNL     1       0.025  -2.761   0.044  0.00  0.00    +0.266 A 
ATOM      5  O   UNL     1       0.030  -3.975   0.126  0.00  0.00    -0.267 OA
ATOM      6  N   UNL     1      -0.011  -2.152  -1.159  0.00  0.00    -0.274 N 
ATOM      7  H   UNL     1      -0.029  -2.704  -1.992  0.00  0.00    +0.173 HD
ATOM      8  C   UNL     1      -0.022  -0.812  -1.252  0.00  0.00    +0.331 A 
ATOM      9  O   UNL     1      -0.059  -0.302  -2.355  0.00  0.00    -0.246 OA
ENDROOT
BRANCH   2  10
ATOM     10  N   UNL     1       0.078   0.290   2.174  0.00  0.00    -0.344 N 
ATOM     11  H   UNL     1       0.156   1.249   2.053  0.00  0.00    +0.144 HD
ATOM     12  H   UNL     1       0.020  -0.083   3.068  0.00  0.00    +0.144 HD
ENDBRANCH   2  10
BRANCH   3  13
ATOM     13  C   UNL     1       0.095  -2.512   2.538  0.00  0.00    +0.155 C 
ATOM     14  O   UNL     1       0.012  -1.810   3.527  0.00  0.00    -0.294 OA
BRANCH  13  15
ATOM     15  C   UNL     1       0.238  -4.005   2.684  0.00  0.00    +0.002 C 
BRANCH  15  17
ATOM     16  C   UNL     1      -1.045  -4.069   4.737  0.00  0.00    -0.095 C 
ATOM     17  N   UNL     1       0.272  -4.342   4.123  0.00  0.00    +0.385 N 
ATOM     18  H   UNL     1       0.982  -3.763   4.585  0.00  0.00    -0.081 HD
BRANCH  17  19
ATOM     19  C   UNL     1       0.625  -5.767   4.300  0.00  0.00    -0.043 C 
BRANCH  19  20
ATOM     20  C   UNL     1       0.868  -6.029   5.763  0.00  0.00    -0.062 A 
ATOM     21  C   UNL     1       2.135  -5.868   6.294  0.00  0.00    +0.003 A 
ATOM     22  C   UNL     1       2.358  -6.103   7.637  0.00  0.00    +0.021 A 
ATOM     23  C   UNL     1       1.316  -6.511   8.450  0.00  0.00    +0.059 A 
ATOM     24  C   UNL     1       0.048  -6.678   7.918  0.00  0.00    +0.059 A 
ATOM     25  C   UNL     1      -0.174  -6.437   6.574  0.00  0.00    +0.023 A 
ATOM     26 CL   UNL     1      -1.261  -7.190   8.937  0.00  0.00    -0.082 Cl
ATOM     27 CL   UNL     1       1.596  -6.813  10.136  0.00  0.00    -0.082 Cl
ENDBRANCH  19  20
ENDBRANCH  17  19
ENDBRANCH  15  17
ENDBRANCH  13  15
ENDBRANCH   3  13
BRANCH   1  28
ATOM     28  C   UNL     1       0.003   1.439  -0.353  0.00  0.00    +0.128 C 
BRANCH  28  30
ATOM     29  C   UNL     1       1.432   3.467  -0.644  0.00  0.00    +0.005 C 
ATOM     30  C   UNL     1       1.441   1.949  -0.456  0.00  0.00    +0.018 C 
ENDBRANCH  28  30
ENDBRANCH   1  28
TORSDOF 8
