REMARK  Name = ZINC08020201
REMARK  8 active torsions:
REMARK  status: ('A' for Active; 'I' for Inactive)
REMARK    1  A    between atoms: C_1  and  C_2
REMARK    2  A    between atoms: C_2  and  O_3
REMARK    3  A    between atoms: O_3  and  C_4
REMARK    4  A    between atoms: C_13  and  C_14
REMARK    5  A    between atoms: C_14  and  N_15
REMARK    6  A    between atoms: N_15  and  S_16
REMARK    7  A    between atoms: S_16  and  C_19
REMARK    8  A    between atoms: C_22  and  N_25
REMARK                            x       y       z     vdW  Elec       q    Type
REMARK                         _______ _______ _______ _____ _____    ______ ____
ROOT
ATOM      1  C   UNL     1      -1.423   5.995   0.047  0.00  0.00    +0.145 C 
ENDROOT
BRANCH   1  11
ATOM      2  C   UNL     1       1.067   5.942   0.023  0.00  0.00    +0.126 A 
ATOM      3  C   UNL     1       2.292   5.268   0.007  0.00  0.00    +0.046 A 
ATOM      4  C   UNL     1       2.342   3.909   0.000  0.00  0.00    +0.012 A 
ATOM      5  C   UNL     1       1.148   3.167   0.008  0.00  0.00    -0.017 A 
ATOM      6  C   UNL     1       1.163   1.762   0.000  0.00  0.00    +0.008 A 
ATOM      7  C   UNL     1      -0.013   1.076   0.008  0.00  0.00    +0.001 A 
ATOM      8  C   UNL     1      -1.235   1.746   0.018  0.00  0.00    +0.001 A 
ATOM      9  C   UNL     1      -1.288   3.105   0.031  0.00  0.00    +0.009 A 
ATOM     10  C   UNL     1      -0.095   3.849   0.024  0.00  0.00    -0.010 A 
ATOM     11  C   UNL     1      -0.112   5.253   0.031  0.00  0.00    +0.017 A 
BRANCH   2  12
ATOM     12  O   UNL     1       1.050   7.301   0.029  0.00  0.00    -0.492 OA
BRANCH  12  14
ATOM     13  C   UNL     1       2.095   9.480   0.029  0.00  0.00    +0.048 C 
ATOM     14  C   UNL     1       2.315   7.966   0.020  0.00  0.00    +0.225 C 
ENDBRANCH  12  14
ENDBRANCH   2  12
ENDBRANCH   1  11
BRANCH   1  15
ATOM     15  N   UNL     1      -1.835   6.229   1.433  0.00  0.00    -0.185 NA
ATOM     16  H   UNL     1      -1.410   5.739   2.155  0.00  0.00    +0.148 HD
BRANCH  15  17
ATOM     17  S   UNL     1      -3.026   7.329   1.769  0.00  0.00    +0.059 S 
ATOM     18  O   UNL     1      -3.214   7.308   3.177  0.00  0.00    -0.153 OA
ATOM     19  O   UNL     1      -2.693   8.517   1.062  0.00  0.00    -0.153 OA
BRANCH  17  20
ATOM     20  C   UNL     1      -4.516   6.719   1.053  0.00  0.00    +0.105 A 
ATOM     21  C   UNL     1      -4.851   7.066  -0.243  0.00  0.00    +0.030 A 
ATOM     22  C   UNL     1      -6.016   6.585  -0.809  0.00  0.00    +0.024 A 
ATOM     23  C   UNL     1      -6.856   5.761  -0.071  0.00  0.00    +0.025 A 
ATOM     24  C   UNL     1      -6.519   5.419   1.232  0.00  0.00    +0.024 A 
ATOM     25  C   UNL     1      -5.350   5.899   1.790  0.00  0.00    +0.030 A 
BRANCH  23  26
ATOM     26  N   UNL     1      -8.037   5.277  -0.639  0.00  0.00    -0.358 N 
ATOM     27  H   UNL     1      -8.622   4.701  -0.123  0.00  0.00    +0.142 HD
ATOM     28  H   UNL     1      -8.271   5.517  -1.549  0.00  0.00    +0.142 HD
ENDBRANCH  23  26
ENDBRANCH  17  20
ENDBRANCH  15  17
ENDBRANCH   1  15
TORSDOF 7
