REMARK  Name = ZINC09058955
REMARK  7 active torsions:
REMARK  status: ('A' for Active; 'I' for Inactive)
REMARK    1  A    between atoms: C_1  and  C_2
REMARK    2  A    between atoms: C_12  and  C_20
REMARK    3  A    between atoms: N_22  and  C_23
REMARK    4  A    between atoms: C_25  and  O_31
REMARK    5  A    between atoms: C_28  and  O_29
REMARK    6  A    between atoms: O_29  and  C_30
REMARK    7  A    between atoms: O_31  and  C_32
REMARK                            x       y       z     vdW  Elec       q    Type
REMARK                         _______ _______ _______ _____ _____    ______ ____
ROOT
ATOM      1  C   UNL     1      -7.106   1.352   3.567  0.00  0.00    +0.046 C 
ATOM      2  C   UNL     1      -6.231   1.044   2.380  0.00  0.00    -0.028 A 
ATOM      3  C   UNL     1      -5.232   1.924   2.015  0.00  0.00    +0.025 A 
ATOM      4  C   UNL     1      -4.423   1.651   0.926  0.00  0.00    +0.042 A 
ATOM      5  C   UNL     1      -4.617   0.488   0.200  0.00  0.00    +0.024 A 
ATOM      6  C   UNL     1      -5.612  -0.391   0.561  0.00  0.00    -0.026 A 
ATOM      7  C   UNL     1      -6.432  -0.127   1.654  0.00  0.00    +0.039 A 
ATOM      8  N   UNL     1      -7.360  -1.157   1.821  0.00  0.00    -0.286 N 
ATOM      9  C   UNL     1      -7.220  -2.123   0.894  0.00  0.00    +0.212 C 
ATOM     10  O   UNL     1      -7.885  -3.132   0.795  0.00  0.00    -0.277 OA
ATOM     11  C   UNL     1      -6.078  -1.709   0.001  0.00  0.00    +0.052 C 
ATOM     12  C   UNL     1      -4.949  -2.750   0.045  0.00  0.00    +0.076 C 
ATOM     13  C   UNL     1      -5.175  -3.560  -1.260  0.00  0.00    -0.003 C 
ATOM     14  C   UNL     1      -5.673  -2.462  -2.231  0.00  0.00    -0.066 C 
ATOM     15  C   UNL     1      -7.906  -2.073  -1.535  0.00  0.00    -0.077 C 
ATOM     16  C   UNL     1      -7.990  -2.502  -3.020  0.00  0.00    -0.020 C 
ATOM     17  C   UNL     1      -6.590  -3.098  -3.287  0.00  0.00    -0.017 C 
ATOM     18 CL   UNL     1      -3.170   2.763   0.473  0.00  0.00    -0.084 Cl
ATOM     19  H   UNL     1      -8.028  -1.174   2.524  0.00  0.00    +0.155 HD
ATOM     20  N   UNL     1      -6.515  -1.603  -1.406  0.00  0.00    +0.394 N 
ATOM     21  H   UNL     1      -6.443  -0.628  -1.720  0.00  0.00    -0.079 HD
ENDROOT
BRANCH  12  22
ATOM     22  C   UNL     1      -3.601  -2.076   0.029  0.00  0.00    +0.220 C 
ATOM     23  O   UNL     1      -3.094  -1.761  -1.027  0.00  0.00    -0.275 OA
ATOM     24  N   UNL     1      -2.960  -1.823   1.187  0.00  0.00    -0.282 N 
ATOM     25  H   UNL     1      -3.336  -2.131   2.027  0.00  0.00    +0.155 HD
BRANCH  24  26
ATOM     26  C   UNL     1      -1.751  -1.116   1.179  0.00  0.00    +0.079 A 
ATOM     27  C   UNL     1      -0.859  -1.277   0.128  0.00  0.00    +0.072 A 
ATOM     28  C   UNL     1       0.337  -0.576   0.122  0.00  0.00    +0.122 A 
ATOM     29  C   UNL     1       0.645   0.281   1.169  0.00  0.00    +0.049 A 
ATOM     30  C   UNL     1      -0.244   0.446   2.215  0.00  0.00    +0.051 A 
ATOM     31  C   UNL     1      -1.441  -0.251   2.225  0.00  0.00    +0.141 A 
BRANCH  31  32
ATOM     32  O   UNL     1      -2.313  -0.091   3.257  0.00  0.00    -0.493 OA
ATOM     33  C   UNL     1      -1.930   0.812   4.296  0.00  0.00    +0.277 C 
ENDBRANCH  31  32
BRANCH  28  34
ATOM     34  O   UNL     1       1.211  -0.733  -0.907  0.00  0.00    -0.495 OA
ATOM     35  C   UNL     1       2.425   0.019  -0.848  0.00  0.00    +0.277 C 
ENDBRANCH  28  34
ENDBRANCH  24  26
ENDBRANCH  12  22
TORSDOF 4
