REMARK  Name = ZINC40092451
REMARK  18 active torsions:
REMARK  status: ('A' for Active; 'I' for Inactive)
REMARK    1  A    between atoms: C_1  and  C_2
REMARK    2  A    between atoms: C_2  and  C_3
REMARK    3  A    between atoms: C_3  and  C_4
REMARK    4  A    between atoms: C_4  and  C_5
REMARK    5  A    between atoms: C_5  and  C_6
REMARK    6  A    between atoms: C_6  and  O_7
REMARK    7  A    between atoms: O_7  and  C_8
REMARK    8  A    between atoms: C_11  and  C_14
REMARK    9  A    between atoms: C_16  and  C_26
REMARK   10  A    between atoms: N_20  and  C_21
REMARK   11  A    between atoms: C_21  and  C_22
REMARK   12  A    between atoms: C_22  and  C_23
REMARK   13  A    between atoms: C_23  and  C_24
REMARK   14  A    between atoms: C_26  and  C_28
REMARK   15  A    between atoms: C_31  and  O_35
REMARK   16  A    between atoms: C_32  and  C_34
REMARK   17  A    between atoms: O_35  and  C_36
REMARK   18  A    between atoms: C_36  and  C_37
REMARK                            x       y       z     vdW  Elec       q    Type
REMARK                         _______ _______ _______ _____ _____    ______ ____
ROOT
ATOM      1  C   UNL     1       2.585 -10.047  -4.376  0.00  0.00    +0.145 C 
ATOM      2  C   UNL     1       3.999 -10.519  -4.131  0.00  0.00    +0.076 C 
ATOM      3  C   UNL     1       4.422 -11.097  -5.280  0.00  0.00    +0.249 C 
ATOM      4  C   UNL     1       3.341 -11.027  -6.285  0.00  0.00    +0.288 C 
ATOM      5  O   UNL     1       3.414 -11.461  -7.418  0.00  0.00    -0.266 OA
ATOM      6  N   UNL     1       2.263 -10.414  -5.760  0.00  0.00    -0.284 N 
ATOM      7  O   UNL     1       5.642 -11.649  -5.476  0.00  0.00    -0.282 OA
ENDROOT
BRANCH   1  11
ATOM      8  C   UNL     1       2.347  -5.808  -3.888  0.00  0.00    +0.121 A 
ATOM      9  C   UNL     1       1.723  -6.649  -2.977  0.00  0.00    +0.046 A 
ATOM     10  C   UNL     1       1.801  -8.018  -3.138  0.00  0.00    +0.009 A 
ATOM     11  C   UNL     1       2.501  -8.552  -4.204  0.00  0.00    -0.022 A 
ATOM     12  C   UNL     1       3.124  -7.716  -5.113  0.00  0.00    +0.009 A 
ATOM     13  C   UNL     1       3.043  -6.346  -4.960  0.00  0.00    +0.046 A 
BRANCH   8  14
ATOM     14  O   UNL     1       2.271  -4.460  -3.733  0.00  0.00    -0.492 OA
BRANCH  14  15
ATOM     15  C   UNL     1       1.538  -3.977  -2.606  0.00  0.00    +0.229 C 
BRANCH  15  16
ATOM     16  C   UNL     1       1.563  -2.447  -2.598  0.00  0.00    +0.041 C 
BRANCH  16  17
ATOM     17  C   UNL     1       0.777  -1.930  -1.391  0.00  0.00    +0.003 C 
BRANCH  17  18
ATOM     18  C   UNL     1       0.802  -0.400  -1.384  0.00  0.00    -0.000 C 
BRANCH  18  20
ATOM     19  C   UNL     1       0.042   1.647  -0.170  0.00  0.00    +0.004 C 
ATOM     20  C   UNL     1       0.017   0.117  -0.177  0.00  0.00    -0.003 C 
ENDBRANCH  18  20
ENDBRANCH  17  18
ENDBRANCH  16  17
ENDBRANCH  15  16
ENDBRANCH  14  15
ENDBRANCH   8  14
ENDBRANCH   1  11
BRANCH   2  21
ATOM     21  C   UNL     1       4.765 -10.379  -2.889  0.00  0.00    +0.195 C 
ATOM     22  O   UNL     1       5.753  -9.670  -2.860  0.00  0.00    -0.287 OA
BRANCH  21  23
ATOM     23  C   UNL     1       4.337 -11.098  -1.673  0.00  0.00    +0.023 A 
ATOM     24  C   UNL     1       3.276 -12.008  -1.733  0.00  0.00    +0.015 A 
ATOM     25  C   UNL     1       2.880 -12.676  -0.597  0.00  0.00    +0.046 A 
ATOM     26  C   UNL     1       3.534 -12.449   0.610  0.00  0.00    +0.124 A 
ATOM     27  C   UNL     1       4.588 -11.545   0.674  0.00  0.00    -0.008 A 
ATOM     28  C   UNL     1       4.995 -10.877  -0.459  0.00  0.00    +0.018 A 
ATOM     29  C   UNL     1       5.292 -11.302   1.984  0.00  0.00    +0.047 C 
BRANCH  26  30
ATOM     30  O   UNL     1       3.140 -13.110   1.727  0.00  0.00    -0.488 OA
BRANCH  30  31
ATOM     31  C   UNL     1       2.050 -14.024   1.591  0.00  0.00    +0.256 C 
BRANCH  31  32
ATOM     32  C   UNL     1       1.757 -14.659   2.925  0.00  0.00    +0.006 C 
ATOM     33  C   UNL     1       0.519 -14.768   3.341  0.00  0.00    +0.007 C 
ENDBRANCH  31  32
ENDBRANCH  30  31
ENDBRANCH  26  30
ENDBRANCH  21  23
ENDBRANCH   2  21
BRANCH   6  34
ATOM     34  C   UNL     1       0.995 -10.159  -6.448  0.00  0.00    +0.109 C 
BRANCH  34  35
ATOM     35  C   UNL     1       1.057  -8.796  -7.142  0.00  0.00    +0.019 C 
BRANCH  35  36
ATOM     36  C   UNL     1      -0.267  -8.529  -7.860  0.00  0.00    -0.002 C 
ATOM     37  C   UNL     1      -0.205  -7.167  -8.555  0.00  0.00    +0.004 C 
ENDBRANCH  35  36
ENDBRANCH  34  35
ENDBRANCH   6  34
TORSDOF 15
