REMARK  Name = ZINC00632225
REMARK  2 active torsions:
REMARK  status: ('A' for Active; 'I' for Inactive)
REMARK    1  A    between atoms: C_9  and  C_12
REMARK    2  A    between atoms: C_19  and  C_27
REMARK                            x       y       z     vdW  Elec       q    Type
REMARK                         _______ _______ _______ _____ _____    ______ ____
ROOT
ATOM      1  C   UNL     1      -0.017   1.378   0.010  0.00  0.00    +0.001 A 
ATOM      2  C   UNL     1       1.169   2.091   0.002  0.00  0.00    +0.004 A 
ATOM      3  C   UNL     1       2.385   1.432  -0.014  0.00  0.00    +0.046 A 
ATOM      4  C   UNL     1       2.419   0.049  -0.022  0.00  0.00    +0.131 A 
ATOM      5  C   UNL     1       1.218  -0.672  -0.013  0.00  0.00    +0.042 A 
ATOM      6  C   UNL     1       0.002  -0.004   0.002  0.00  0.00    +0.013 A 
ATOM      7  C   UNL     1       1.289  -2.156  -0.017  0.00  0.00    +0.083 C 
ATOM      8  C   UNL     1       2.471  -2.722   0.300  0.00  0.00    +0.028 C 
ATOM      9  C   UNL     1       3.658  -1.873   0.651  0.00  0.00    +0.234 C 
ATOM     10  O   UNL     1       3.598  -0.624  -0.041  0.00  0.00    -0.479 OA
ATOM     11  C   UNL     1       2.562  -4.232   0.290  0.00  0.00    +0.166 C 
ATOM     12  N   UNL     1       1.332  -4.948  -0.068  0.00  0.00    -0.208 N 
ATOM     13  C   UNL     1       0.197  -4.219  -0.362  0.00  0.00    +0.237 C 
ATOM     14  N   UNL     1       0.204  -2.907  -0.330  0.00  0.00    -0.213 NA
ATOM     15  N   UNL     1      -0.778  -5.108  -0.652  0.00  0.00    -0.205 NA
ATOM     16  C   UNL     1      -0.323  -6.327  -0.558  0.00  0.00    +0.203 C 
ATOM     17  N   UNL     1       0.990  -6.296  -0.198  0.00  0.00    -0.251 N 
ATOM     18  H   UNL     1       1.573  -7.059  -0.059  0.00  0.00    +0.171 HD
ENDROOT
BRANCH   9  19
ATOM     19  C   UNL     1       3.665  -1.615   2.136  0.00  0.00    -0.003 A 
ATOM     20  C   UNL     1       2.843  -0.642   2.672  0.00  0.00    +0.010 A 
ATOM     21  C   UNL     1       2.849  -0.406   4.034  0.00  0.00    +0.039 A 
ATOM     22  C   UNL     1       3.678  -1.145   4.861  0.00  0.00    +0.123 A 
ATOM     23  C   UNL     1       4.501  -2.119   4.322  0.00  0.00    +0.039 A 
ATOM     24  C   UNL     1       4.490  -2.357   2.961  0.00  0.00    +0.010 A 
ATOM     25  F   UNL     1       3.685  -0.914   6.192  0.00  0.00    -0.205 F 
ENDBRANCH   9  19
BRANCH  11  26
ATOM     26  C   UNL     1       2.983  -4.687   1.664  0.00  0.00    +0.016 A 
ATOM     27  C   UNL     1       4.213  -5.052   2.103  0.00  0.00    +0.013 A 
ATOM     28  C   UNL     1       4.367  -5.437   3.421  0.00  0.00    +0.008 A 
ATOM     29  C   UNL     1       3.284  -5.440   4.236  0.00  0.00    +0.045 A 
ATOM     30  S   UNL     1       1.994  -4.878   3.137  0.00  0.00    -0.099 S 
ENDBRANCH  11  26
TORSDOF 2
