REMARK  Name = ZINC05876747
REMARK  5 active torsions:
REMARK  status: ('A' for Active; 'I' for Inactive)
REMARK    1  A    between atoms: C_1  and  C_2
REMARK    2  A    between atoms: C_8  and  C_12
REMARK    3  A    between atoms: C_12  and  O_14
REMARK    4  A    between atoms: O_14  and  C_15
REMARK    5  A    between atoms: C_15  and  C_16
REMARK                            x       y       z     vdW  Elec       q    Type
REMARK                         _______ _______ _______ _____ _____    ______ ____
ROOT
ATOM      1  O   UNL     1       1.117   2.574  -2.336  0.00  0.00    -0.458 OA
ENDROOT
BRANCH   1   2
ATOM      2  C   UNL     1      -0.092   2.786  -1.791  0.00  0.00    +0.329 C 
ATOM      3  O   UNL     1      -0.572   3.895  -1.800  0.00  0.00    -0.249 OA
BRANCH   2  11
ATOM      4  C   UNL     1      -3.354   0.408   0.640  0.00  0.00    +0.044 C 
ATOM      5  C   UNL     1      -2.610   1.743   0.571  0.00  0.00    +0.082 C 
ATOM      6  C   UNL     1      -3.461   2.932   1.046  0.00  0.00    +0.046 C 
ATOM      7  C   UNL     1      -4.138   3.341  -0.285  0.00  0.00    +0.099 C 
ATOM      8  C   UNL     1      -3.185   2.861  -1.355  0.00  0.00    +0.217 C 
ATOM      9  O   UNL     1      -3.294   3.105  -2.538  0.00  0.00    -0.276 OA
ATOM     10  N   UNL     1      -2.188   2.116  -0.806  0.00  0.00    -0.273 N 
ATOM     11  C   UNL     1      -0.849   1.642  -1.169  0.00  0.00    +0.196 C 
ATOM     12  C   UNL     1      -0.013   1.086   0.008  0.00  0.00    +0.105 C 
ATOM     13  S   UNL     1      -0.986   1.735   1.441  0.00  0.00    -0.133 S 
ENDBRANCH   2  11
ENDBRANCH   1   2
BRANCH   1  14
ATOM     14  C   UNL     1       1.788   3.723  -2.917  0.00  0.00    +0.271 C 
BRANCH  14  15
ATOM     15  C   UNL     1       3.122   3.296  -3.475  0.00  0.00    +0.033 A 
ATOM     16  C   UNL     1       3.522   1.977  -3.375  0.00  0.00    +0.030 A 
ATOM     17  C   UNL     1       4.743   1.584  -3.892  0.00  0.00    +0.042 A 
ATOM     18  C   UNL     1       5.570   2.512  -4.499  0.00  0.00    +0.029 A 
ATOM     19  C   UNL     1       5.176   3.833  -4.596  0.00  0.00    +0.022 A 
ATOM     20  C   UNL     1       3.949   4.228  -4.086  0.00  0.00    +0.135 A 
ATOM     21  O   UNL     1       3.545   5.523  -4.183  0.00  0.00    -0.465 OA
ATOM     22  C   UNL     1       4.553   6.494  -4.479  0.00  0.00    +0.394 C 
ATOM     23  O   UNL     1       5.342   6.015  -5.574  0.00  0.00    -0.339 OA
ATOM     24  C   UNL     1       6.088   4.837  -5.254  0.00  0.00    +0.202 C 
ATOM     25 CL   UNL     1       5.242  -0.075  -3.772  0.00  0.00    -0.084 Cl
ENDBRANCH  14  15
ENDBRANCH   1  14
TORSDOF 4
