REMARK  Name = ZINC15941913
REMARK  8 active torsions:
REMARK  status: ('A' for Active; 'I' for Inactive)
REMARK    1  A    between atoms: C_1  and  C_2
REMARK    2  A    between atoms: C_4  and  C_25
REMARK    3  A    between atoms: C_6  and  N_8
REMARK    4  A    between atoms: N_8  and  S_9
REMARK    5  A    between atoms: S_9  and  C_12
REMARK    6  A    between atoms: C_18  and  C_23
REMARK    7  A    between atoms: C_18  and  C_24
REMARK    8  A    between atoms: N_21  and  C_22
REMARK                            x       y       z     vdW  Elec       q    Type
REMARK                         _______ _______ _______ _____ _____    ______ ____
ROOT
ATOM      1  S   UNL     1       1.040  -2.209   3.582  0.00  0.00    +0.072 S 
ATOM      2  O   UNL     1       0.887  -3.078   4.697  0.00  0.00    -0.150 OA
ATOM      3  O   UNL     1       2.302  -1.957   2.980  0.00  0.00    -0.150 OA
ENDROOT
BRANCH   1   4
ATOM      4  C   UNL     1       0.394  -0.645   4.071  0.00  0.00    +0.109 A 
ATOM      5  C   UNL     1       0.732   0.496   3.367  0.00  0.00    +0.030 A 
ATOM      6  C   UNL     1       0.230   1.724   3.745  0.00  0.00    +0.026 A 
ATOM      7  C   UNL     1      -0.625   1.823   4.841  0.00  0.00    +0.040 A 
ATOM      8  C   UNL     1      -0.958   0.670   5.540  0.00  0.00    -0.010 A 
ATOM      9  C   UNL     1      -0.459  -0.555   5.158  0.00  0.00    +0.035 A 
ATOM     10  C   UNL     1      -1.884   1.100   6.654  0.00  0.00    +0.068 C 
ATOM     11  C   UNL     1      -2.007   2.598   6.472  0.00  0.00    +0.230 C 
ATOM     12  O   UNL     1      -2.662   3.356   7.157  0.00  0.00    -0.274 OA
ATOM     13  N   UNL     1      -1.253   2.931   5.411  0.00  0.00    -0.273 N 
ATOM     14  C   UNL     1      -1.108   4.300   4.909  0.00  0.00    +0.138 C 
ATOM     15  C   UNL     1      -1.271   0.774   8.017  0.00  0.00    +0.025 C 
ATOM     16  C   UNL     1      -3.251   0.429   6.504  0.00  0.00    +0.025 C 
ENDBRANCH   1   4
BRANCH   1  17
ATOM     17  N   UNL     1       0.054  -2.795   2.388  0.00  0.00    -0.216 N 
ATOM     18  H   UNL     1       0.411  -2.960   1.501  0.00  0.00    +0.174 HD
BRANCH  17  24
ATOM     19  C   UNL     1      -3.382  -4.733   5.319  0.00  0.00    +0.044 C 
ATOM     20  C   UNL     1      -2.988  -3.987   4.070  0.00  0.00    -0.048 A 
ATOM     21  C   UNL     1      -3.961  -3.555   3.188  0.00  0.00    +0.006 A 
ATOM     22  C   UNL     1      -3.604  -2.871   2.041  0.00  0.00    -0.048 A 
ATOM     23  C   UNL     1      -2.273  -2.617   1.772  0.00  0.00    +0.028 A 
ATOM     24  C   UNL     1      -1.293  -3.050   2.656  0.00  0.00    +0.049 A 
ATOM     25  C   UNL     1      -1.656  -3.732   3.811  0.00  0.00    +0.028 A 
ATOM     26  C   UNL     1      -4.668  -2.402   1.082  0.00  0.00    +0.044 C 
ENDBRANCH  17  24
ENDBRANCH   1  17
TORSDOF 3
