REMARK  Name = ZINC21135427
REMARK  12 active torsions:
REMARK  status: ('A' for Active; 'I' for Inactive)
REMARK    1  A    between atoms: C_1  and  C_2
REMARK    2  A    between atoms: C_4  and  C_20
REMARK    3  A    between atoms: C_5  and  C_19
REMARK    4  A    between atoms: N_6  and  C_7
REMARK    5  A    between atoms: C_7  and  C_8
REMARK    6  A    between atoms: C_20  and  C_22
REMARK    7  A    between atoms: C_22  and  O_23
REMARK    8  A    between atoms: O_23  and  C_24
REMARK    9  A    between atoms: C_24  and  C_26
REMARK   10  A    between atoms: C_29  and  N_34
REMARK   11  A    between atoms: C_31  and  O_32
REMARK   12  A    between atoms: O_32  and  C_33
REMARK                            x       y       z     vdW  Elec       q    Type
REMARK                         _______ _______ _______ _____ _____    ______ ____
ROOT
ATOM      1  C   UNL     1       3.625   0.864  -0.028  0.00  0.00    +0.063 C 
ATOM      2  C   UNL     1       2.121   0.759  -0.014  0.00  0.00    +0.017 A 
ATOM      3  C   UNL     1       1.420  -0.387  -0.014  0.00  0.00    +0.034 A 
ATOM      4  C   UNL     1       0.002  -0.004   0.002  0.00  0.00    +0.042 A 
ATOM      5  C   UNL     1      -0.017   1.378   0.010  0.00  0.00    +0.027 A 
ATOM      6  N   UNL     1       1.255   1.814  -0.000  0.00  0.00    -0.344 N 
ATOM      7  C   UNL     1      -1.249   2.245   0.020  0.00  0.00    +0.064 C 
ENDROOT
BRANCH   4   8
ATOM      8  C   UNL     1      -1.154  -0.902   0.009  0.00  0.00    +0.202 C 
ATOM      9  O   UNL     1      -2.278  -0.445   0.023  0.00  0.00    -0.288 OA
BRANCH   8  10
ATOM     10  C   UNL     1      -0.949  -2.395  -0.001  0.00  0.00    +0.311 C 
BRANCH  10  11
ATOM     11  O   UNL     1      -2.239  -3.062   0.008  0.00  0.00    -0.453 OA
BRANCH  11  12
ATOM     12  C   UNL     1      -2.232  -4.410   0.001  0.00  0.00    +0.343 C 
ATOM     13  O   UNL     1      -1.176  -5.012  -0.013  0.00  0.00    -0.245 OA
BRANCH  12  14
ATOM     14  C   UNL     1      -3.501  -5.152   0.010  0.00  0.00    +0.102 A 
ATOM     15  C   UNL     1      -4.719  -4.461   0.032  0.00  0.00    +0.040 A 
ATOM     16  C   UNL     1      -5.897  -5.151   0.035  0.00  0.00    +0.063 A 
ATOM     17  C   UNL     1      -5.897  -6.546   0.028  0.00  0.00    +0.047 A 
ATOM     18  C   UNL     1      -4.697  -7.245   0.011  0.00  0.00    +0.070 A 
ATOM     19  C   UNL     1      -3.497  -6.556   0.002  0.00  0.00    +0.136 A 
ATOM     20 CL   UNL     1      -7.403  -4.287   0.056  0.00  0.00    -0.082 Cl
BRANCH  17  21
ATOM     21  N   UNL     1      -7.103  -7.239   0.036  0.00  0.00    -0.357 N 
ATOM     22  H   UNL     1      -7.105  -8.339   0.031  0.00  0.00    +0.142 HD
ATOM     23  H   UNL     1      -8.054  -6.687   0.049  0.00  0.00    +0.142 HD
ENDBRANCH  17  21
BRANCH  19  24
ATOM     24  O   UNL     1      -2.321  -7.234  -0.013  0.00  0.00    -0.494 OA
ATOM     25  C   UNL     1      -2.396  -8.661  -0.020  0.00  0.00    +0.277 C 
ENDBRANCH  19  24
ENDBRANCH  12  14
ENDBRANCH  11  12
ENDBRANCH  10  11
ENDBRANCH   8  10
ENDBRANCH   4   8
BRANCH   6  26
ATOM     26  C   UNL     1       1.655   3.224   0.003  0.00  0.00    +0.169 C 
BRANCH  26  27
ATOM     27  C   UNL     1       1.808   3.707   1.447  0.00  0.00    +0.230 C 
ATOM     28  C   UNL     1       2.318   5.155   1.456  0.00  0.00    +0.275 C 
ATOM     29  O   UNL     1       2.437   5.579   2.819  0.00  0.00    -0.485 OA
ATOM     30  C   UNL     1       1.388   5.299   3.640  0.00  0.00    +0.162 A 
ATOM     31  C   UNL     1       1.268   5.974   4.845  0.00  0.00    +0.049 A 
ATOM     32  C   UNL     1       0.210   5.699   5.691  0.00  0.00    +0.004 A 
ATOM     33  C   UNL     1      -0.731   4.750   5.338  0.00  0.00    +0.004 A 
ATOM     34  C   UNL     1      -0.618   4.074   4.138  0.00  0.00    +0.049 A 
ATOM     35  C   UNL     1       0.440   4.346   3.284  0.00  0.00    +0.163 A 
ATOM     36  O   UNL     1       0.536   3.675   2.104  0.00  0.00    -0.480 OA
ENDBRANCH  26  27
ENDBRANCH   6  26
TORSDOF 9
