REMARK  Name = ZINC06442864
REMARK  10 active torsions:
REMARK  status: ('A' for Active; 'I' for Inactive)
REMARK    1  A    between atoms: C_1  and  C_2
REMARK    2  A    between atoms: C_6  and  N_9
REMARK    3  A    between atoms: C_7  and  C_8
REMARK    4  A    between atoms: C_14  and  C_16
REMARK    5  A    between atoms: C_14  and  C_30
REMARK    6  A    between atoms: C_14  and  N_76
REMARK    7  A    between atoms: C_19  and  C_29
REMARK    8  A    between atoms: C_21  and  C_28
REMARK    9  A    between atoms: N_34  and  C_35
REMARK   10  A    between atoms: C_35  and  C_36
REMARK                            x       y       z     vdW  Elec       q    Type
REMARK                         _______ _______ _______ _____ _____    ______ ____
ROOT
ATOM      1  C   UNL     1       1.187  -2.235  -0.021  0.00  0.00    +0.039 C 
ENDROOT
BRANCH   1   2
ATOM      2  C   UNL     1       1.327  -0.737  -0.108  0.00  0.00    +0.011 A 
ATOM      3  C   UNL     1       2.560  -0.177  -0.190  0.00  0.00    +0.018 A 
ATOM      4  C   UNL     1       2.662   1.281  -0.273  0.00  0.00    +0.002 A 
ATOM      5  C   UNL     1       3.905   1.916  -0.361  0.00  0.00    -0.041 A 
ATOM      6  C   UNL     1       3.966   3.278  -0.438  0.00  0.00    +0.007 A 
ATOM      7  C   UNL     1       2.804   4.039  -0.429  0.00  0.00    -0.048 A 
ATOM      8  C   UNL     1       1.569   3.435  -0.343  0.00  0.00    +0.029 A 
ATOM      9  C   UNL     1       1.482   2.049  -0.264  0.00  0.00    +0.050 A 
ATOM     10  N   UNL     1       0.259   1.418  -0.178  0.00  0.00    -0.322 N 
ATOM     11  H   UNL     1      -0.553   1.949  -0.175  0.00  0.00    +0.169 HD
ATOM     12  C   UNL     1       0.175   0.078  -0.102  0.00  0.00    +0.251 A 
ATOM     13  O   UNL     1      -0.923  -0.445  -0.026  0.00  0.00    -0.268 OA
ATOM     14  C   UNL     1       2.896   5.541  -0.514  0.00  0.00    +0.044 C 
ATOM     15  C   UNL     1       5.172   1.100  -0.371  0.00  0.00    +0.044 C 
ENDBRANCH   1   2
BRANCH   1  21
ATOM     16  N   UNL     1      -0.444  -4.220  -3.375  0.00  0.00    -0.333 N 
ATOM     17  C   UNL     1      -0.230  -2.769  -3.470  0.00  0.00    +0.086 C 
ATOM     18  C   UNL     1       0.781  -2.334  -2.407  0.00  0.00    -0.058 C 
ATOM     19  C   UNL     1       0.065  -4.154  -0.981  0.00  0.00    -0.058 C 
ATOM     20  C   UNL     1      -0.946  -4.589  -2.045  0.00  0.00    +0.086 C 
ATOM     21  N   UNL     1       0.254  -2.691  -1.073  0.00  0.00    +0.391 N 
ATOM     22  H   UNL     1      -0.653  -2.229  -0.938  0.00  0.00    -0.080 HD
BRANCH  16  28
ATOM     23  C   UNL     1      -1.265  -7.074  -7.291  0.00  0.00    +0.044 C 
ATOM     24  C   UNL     1      -1.732  -6.049  -6.290  0.00  0.00    -0.046 A 
ATOM     25  C   UNL     1      -3.019  -5.548  -6.365  0.00  0.00    +0.004 A 
ATOM     26  C   UNL     1      -3.453  -4.607  -5.449  0.00  0.00    +0.002 A 
ATOM     27  C   UNL     1      -2.603  -4.168  -4.452  0.00  0.00    +0.023 A 
ATOM     28  C   UNL     1      -1.308  -4.665  -4.378  0.00  0.00    +0.033 A 
ATOM     29  C   UNL     1      -0.876  -5.610  -5.300  0.00  0.00    -0.027 A 
ATOM     30  C   UNL     1       0.527  -6.157  -5.220  0.00  0.00    +0.046 C 
ENDBRANCH  16  28
ENDBRANCH   1  21
BRANCH   1  31
ATOM     31  C   UNL     1       0.628  -2.610   1.327  0.00  0.00    +0.143 A 
ATOM     32  N   UNL     1      -0.613  -2.470   1.726  0.00  0.00    -0.115 NA
ATOM     33  N   UNL     1      -0.693  -2.908   2.935  0.00  0.00    -0.023 NA
ATOM     34  N   UNL     1       0.465  -3.316   3.320  0.00  0.00    -0.044 NA
ATOM     35  N   UNL     1       1.307  -3.149   2.357  0.00  0.00    -0.228 N 
BRANCH  35  36
ATOM     36  C   UNL     1       2.733  -3.483   2.379  0.00  0.00    +0.178 C 
BRANCH  36  37
ATOM     37  C   UNL     1       3.531  -2.278   2.879  0.00  0.00    +0.140 C 
ATOM     38  C   UNL     1       5.043  -2.581   2.797  0.00  0.00    +0.035 C 
ATOM     39  C   UNL     1       5.581  -1.930   4.101  0.00  0.00    +0.031 C 
ATOM     40  C   UNL     1       4.391  -2.173   5.064  0.00  0.00    +0.160 C 
ATOM     41  O   UNL     1       3.215  -2.021   4.252  0.00  0.00    -0.375 OA
ENDBRANCH  36  37
ENDBRANCH  35  36
ENDBRANCH   1  31
TORSDOF 6
