REMARK  Name = ZINC03875735
REMARK  2 active torsions:
REMARK  status: ('A' for Active; 'I' for Inactive)
REMARK    1  A    between atoms: N_4  and  O_5
REMARK    2  A    between atoms: N_9  and  O_10
REMARK                            x       y       z     vdW  Elec       q    Type
REMARK                         _______ _______ _______ _____ _____    ______ ____
ROOT
ATOM      1  C   UNL     1      -0.018   1.465   0.010  0.00  0.00    +0.033 C 
ATOM      2  C   UNL     1       1.137   2.152   0.003  0.00  0.00    +0.033 C 
ATOM      3  C   UNL     1       2.419   1.435  -0.013  0.00  0.00    +0.103 C 
ATOM      4  N   UNL     1       3.546   2.107  -0.021  0.00  0.00    -0.088 NA
ATOM      5  C   UNL     1       2.439  -0.033  -0.020  0.00  0.00    +0.033 C 
ATOM      6  C   UNL     1       1.284  -0.721  -0.013  0.00  0.00    +0.033 C 
ATOM      7  C   UNL     1       0.002  -0.004   0.002  0.00  0.00    +0.103 C 
ATOM      8  N   UNL     1      -1.125  -0.676   0.010  0.00  0.00    -0.088 NA
ENDROOT
BRANCH   4   9
ATOM      9  O   UNL     1       4.782   1.416  -0.036  0.00  0.00    -0.409 OA
ATOM     10  H   UNL     1       5.556   1.995  -0.041  0.00  0.00    +0.328 HD
ENDBRANCH   4   9
BRANCH   8  11
ATOM     11  O   UNL     1      -1.106  -2.091   0.002  0.00  0.00    -0.409 OA
ATOM     12  H   UNL     1      -1.984  -2.497   0.008  0.00  0.00    +0.328 HD
ENDBRANCH   8  11
TORSDOF 2
