REMARK  Name = ZINC35682494
REMARK  3 active torsions:
REMARK  status: ('A' for Active; 'I' for Inactive)
REMARK    1  A    between atoms: C_1  and  C_2
REMARK    2  A    between atoms: C_5  and  C_8
REMARK    3  A    between atoms: N_14  and  C_19
REMARK                            x       y       z     vdW  Elec       q    Type
REMARK                         _______ _______ _______ _____ _____    ______ ____
ROOT
ATOM      1  C   UNL     1       0.059  -4.242  -0.021  0.00  0.00    +0.041 C 
ATOM      2  C   UNL     1       0.178  -4.929   1.152  0.00  0.00    +0.129 C 
ATOM      3  C   UNL     1       0.322  -6.389   1.317  0.00  0.00    +0.272 C 
ATOM      4  O   UNL     1       0.327  -7.232   0.439  0.00  0.00    -0.268 OA
ATOM      5  N   UNL     1       0.449  -6.593   2.647  0.00  0.00    -0.229 N 
ATOM      6  C   UNL     1       0.738  -7.872   3.289  0.00  0.00    +0.224 C 
ATOM      7  N   UNL     1       0.518  -7.855   4.719  0.00  0.00    -0.302 N 
ATOM      8  C   UNL     1       0.917  -6.793   5.625  0.00  0.00    +0.184 C 
ATOM      9  S   UNL     1       0.291  -5.194   5.042  0.00  0.00    -0.071 S 
ATOM     10  C   UNL     1       0.315  -5.377   3.283  0.00  0.00    +0.166 C 
ATOM     11  N   UNL     1       0.193  -4.407   2.413  0.00  0.00    -0.220 NA
ENDROOT
BRANCH   1  16
ATOM     12  C   UNL     1       0.002   1.503   0.009  0.00  0.00    +0.044 C 
ATOM     13  C   UNL     1       0.017  -0.004   0.001  0.00  0.00    -0.050 A 
ATOM     14  C   UNL     1       0.010  -0.698   1.198  0.00  0.00    +0.004 A 
ATOM     15  C   UNL     1       0.024  -2.077   1.200  0.00  0.00    +0.008 A 
ATOM     16  C   UNL     1       0.044  -2.774  -0.014  0.00  0.00    -0.023 A 
ATOM     17  C   UNL     1       0.051  -2.064  -1.220  0.00  0.00    +0.008 A 
ATOM     18  C   UNL     1       0.032  -0.686  -1.204  0.00  0.00    +0.004 A 
ENDBRANCH   1  16
BRANCH   7  19
ATOM     19  C   UNL     1      -0.135  -8.958   5.277  0.00  0.00    +0.067 A 
ATOM     20  C   UNL     1       0.599 -10.046   5.729  0.00  0.00    +0.026 A 
ATOM     21  C   UNL     1      -0.049 -11.135   6.280  0.00  0.00    +0.002 A 
ATOM     22  C   UNL     1      -1.428 -11.142   6.382  0.00  0.00    +0.003 A 
ATOM     23  C   UNL     1      -2.164 -10.061   5.933  0.00  0.00    +0.040 A 
ATOM     24  C   UNL     1      -1.522  -8.965   5.386  0.00  0.00    +0.144 A 
ATOM     25  F   UNL     1      -2.240  -7.906   4.953  0.00  0.00    -0.204 F 
ENDBRANCH   7  19
TORSDOF 2
