REMARK  Name = ZINC00420829
REMARK  3 active torsions:
REMARK  status: ('A' for Active; 'I' for Inactive)
REMARK    1  A    between atoms: C_4  and  O_7
REMARK    2  A    between atoms: O_7  and  C_8
REMARK    3  A    between atoms: C_8  and  C_9
REMARK                            x       y       z     vdW  Elec       q    Type
REMARK                         _______ _______ _______ _____ _____    ______ ____
ROOT
ATOM      1  C   UNL     1       6.105  -0.593  -0.055  0.00  0.00    +0.169 A 
ATOM      2  N   UNL     1       6.607  -0.977  -1.215  0.00  0.00    -0.214 NA
ATOM      3  C   UNL     1       7.546  -1.905  -1.304  0.00  0.00    +0.128 A 
ATOM      4  C   UNL     1       8.034  -2.513  -0.114  0.00  0.00    +0.051 A 
ATOM      5  C   UNL     1       9.056  -3.551   0.033  0.00  0.00    -0.025 A 
ATOM      6  C   UNL     1       9.337  -3.959   1.287  0.00  0.00    -0.004 A 
ATOM      7  S   UNL     1       8.274  -3.001   2.335  0.00  0.00    -0.073 S 
ATOM      8  C   UNL     1       7.451  -2.052   1.083  0.00  0.00    +0.114 A 
ATOM      9  N   UNL     1       6.521  -1.116   1.082  0.00  0.00    -0.221 NA
ATOM     10  C   UNL     1      10.334  -4.998   1.702  0.00  0.00    +0.043 C 
ATOM     11  C   UNL     1      10.735  -5.807   0.460  0.00  0.00    +0.005 C 
ATOM     12  C   UNL     1      11.063  -4.833  -0.675  0.00  0.00    +0.005 C 
ATOM     13  C   UNL     1       9.783  -4.155  -1.165  0.00  0.00    +0.037 C 
ATOM     14  N   UNL     1       8.047  -2.279  -2.538  0.00  0.00    -0.343 N 
ATOM     15  H   UNL     1       7.890  -1.720  -3.315  0.00  0.00    +0.144 HD
ATOM     16  H   UNL     1       8.555  -3.101  -2.627  0.00  0.00    +0.144 HD
ENDROOT
BRANCH   1  17
ATOM     17  C   UNL     1       5.038   0.471  -0.029  0.00  0.00    +0.305 C 
BRANCH  17  18
ATOM     18  O   UNL     1       3.751  -0.144  -0.118  0.00  0.00    -0.484 OA
BRANCH  18  22
ATOM     19  C   UNL     1       0.473   2.360  -0.089  0.00  0.00    +0.000 A 
ATOM     20  C   UNL     1       1.747   2.890  -0.007  0.00  0.00    +0.004 A 
ATOM     21  C   UNL     1       2.846   2.054  -0.016  0.00  0.00    +0.045 A 
ATOM     22  C   UNL     1       2.671   0.681  -0.108  0.00  0.00    +0.121 A 
ATOM     23  C   UNL     1       1.391   0.151  -0.191  0.00  0.00    +0.045 A 
ATOM     24  C   UNL     1       0.295   0.992  -0.181  0.00  0.00    +0.004 A 
ENDBRANCH  18  22
ENDBRANCH  17  18
ENDBRANCH   1  17
TORSDOF 3
