REMARK  Name = ZINC64082898
REMARK  6 active torsions:
REMARK  status: ('A' for Active; 'I' for Inactive)
REMARK    1  A    between atoms: C_3  and  C_11
REMARK    2  A    between atoms: N_13  and  N_14
REMARK    3  A    between atoms: N_14  and  C_15
REMARK    4  A    between atoms: C_15  and  N_17
REMARK    5  A    between atoms: N_17  and  C_18
REMARK    6  A    between atoms: C_18  and  C_19
REMARK                            x       y       z     vdW  Elec       q    Type
REMARK                         _______ _______ _______ _____ _____    ______ ____
ROOT
ATOM      1  C   UNL     1       3.651   2.174  -0.024  0.00  0.00    +0.264 C 
ATOM      2  O   UNL     1       4.714   1.583  -0.038  0.00  0.00    -0.269 OA
ATOM      3  N   UNL     1       3.630   3.522  -0.016  0.00  0.00    -0.231 N 
ATOM      4  H   UNL     1       2.782   3.993  -0.005  0.00  0.00    +0.173 HD
ENDROOT
BRANCH   1   7
ATOM      5  C   UNL     1      -0.017   1.380   0.010  0.00  0.00    +0.005 A 
ATOM      6  C   UNL     1       1.163   2.092   0.002  0.00  0.00    +0.017 A 
ATOM      7  C   UNL     1       2.386   1.416  -0.015  0.00  0.00    +0.083 A 
ATOM      8  C   UNL     1       2.405   0.015  -0.023  0.00  0.00    +0.174 A 
ATOM      9  C   UNL     1       1.207  -0.690  -0.013  0.00  0.00    +0.163 A 
ATOM     10  C   UNL     1       0.002  -0.004   0.002  0.00  0.00    +0.049 A 
ATOM     11  O   UNL     1       1.201  -2.051  -0.013  0.00  0.00    -0.485 OA
ATOM     12  C   UNL     1       2.416  -2.700  -0.403  0.00  0.00    +0.270 C 
ATOM     13  C   UNL     1       3.581  -2.019   0.329  0.00  0.00    +0.270 C 
ATOM     14  O   UNL     1       3.596  -0.636  -0.043  0.00  0.00    -0.484 OA
ENDBRANCH   1   7
BRANCH   3  15
ATOM     15  N   UNL     1       4.832   4.242  -0.025  0.00  0.00    -0.246 N 
ATOM     16  H   UNL     1       5.679   3.770  -0.037  0.00  0.00    +0.172 HD
BRANCH  15  17
ATOM     17  C   UNL     1       4.810   5.589  -0.018  0.00  0.00    +0.147 C 
ATOM     18  S   UNL     1       6.279   6.469  -0.028  0.00  0.00    -0.017 S 
BRANCH  17  19
ATOM     19  N   UNL     1       3.632   6.244  -0.001  0.00  0.00    -0.317 N 
ATOM     20  H   UNL     1       2.800   5.746   0.005  0.00  0.00    +0.148 HD
BRANCH  19  21
ATOM     21  C   UNL     1       3.609   7.709   0.007  0.00  0.00    +0.216 C 
BRANCH  21  22
ATOM     22  C   UNL     1       2.159   8.196   0.025  0.00  0.00    +0.405 C 
ATOM     23  F   UNL     1       1.519   7.713   1.171  0.00  0.00    -0.169 F 
ATOM     24  F   UNL     1       2.136   9.595   0.033  0.00  0.00    -0.169 F 
ATOM     25  F   UNL     1       1.495   7.725  -1.113  0.00  0.00    -0.169 F 
ENDBRANCH  21  22
ENDBRANCH  19  21
ENDBRANCH  17  19
ENDBRANCH  15  17
ENDBRANCH   3  15
TORSDOF 6
