REMARK  Name = ZINC06187038
REMARK  5 active torsions:
REMARK  status: ('A' for Active; 'I' for Inactive)
REMARK    1  A    between atoms: C_1  and  C_2
REMARK    2  A    between atoms: C_10  and  C_19
REMARK    3  A    between atoms: C_22  and  C_25
REMARK    4  A    between atoms: C_25  and  C_26
REMARK    5  A    between atoms: C_25  and  C_27
REMARK                            x       y       z     vdW  Elec       q    Type
REMARK                         _______ _______ _______ _____ _____    ______ ____
ROOT
ATOM      1  C   UNL     1      -4.799  10.648  -0.265  0.00  0.00    +0.007 C 
ATOM      2  C   UNL     1      -4.327   9.217  -0.530  0.00  0.00    -0.011 C 
ATOM      3  C   UNL     1      -4.893   8.284   0.545  0.00  0.00    +0.022 C 
ATOM      4  C   UNL     1      -4.367   6.866   0.311  0.00  0.00    +0.108 C 
ATOM      5  N   UNL     1      -2.900   6.871   0.365  0.00  0.00    -0.300 N 
ATOM      6  C   UNL     1      -2.332   7.723  -0.688  0.00  0.00    +0.108 C 
ATOM      7  C   UNL     1      -2.797   9.167  -0.484  0.00  0.00    +0.022 C 
ATOM      8  C   UNL     1      -2.396   5.584   0.287  0.00  0.00    +0.220 A 
ATOM      9  N   UNL     1      -1.081   5.411   0.322  0.00  0.00    -0.214 NA
ATOM     10  C   UNL     1      -0.547   4.195   0.250  0.00  0.00    +0.089 A 
ATOM     11  C   UNL     1      -1.411   3.091   0.142  0.00  0.00    +0.086 A 
ATOM     12  C   UNL     1      -1.231   1.646   0.035  0.00  0.00    +0.149 A 
ATOM     13  N   UNL     1      -2.420   1.107  -0.049  0.00  0.00    -0.157 NA
ATOM     14  N   UNL     1      -3.401   2.104  -0.011  0.00  0.00    -0.258 N 
ATOM     15  H   UNL     1      -4.464   1.831  -0.070  0.00  0.00    +0.191 HD
ATOM     16  C   UNL     1      -2.802   3.322   0.103  0.00  0.00    +0.163 A 
ATOM     17  N   UNL     1      -3.244   4.575   0.180  0.00  0.00    -0.195 NA
ATOM     18  N   UNL     1      -0.012   0.964   0.029  0.00  0.00    -0.341 N 
ATOM     19  H   UNL     1       0.004  -0.132  -0.058  0.00  0.00    +0.144 HD
ATOM     20  H   UNL     1       0.932   1.524   0.111  0.00  0.00    +0.144 HD
ENDROOT
BRANCH  10  21
ATOM     21  C   UNL     1       0.922   4.008   0.290  0.00  0.00    +0.001 A 
ATOM     22  C   UNL     1       1.691   4.702   1.223  0.00  0.00    +0.010 A 
ATOM     23  C   UNL     1       3.058   4.519   1.259  0.00  0.00    +0.004 A 
ATOM     24  C   UNL     1       3.667   3.658   0.364  0.00  0.00    -0.045 A 
ATOM     25  C   UNL     1       2.910   2.971  -0.568  0.00  0.00    +0.004 A 
ATOM     26  C   UNL     1       1.542   3.141  -0.610  0.00  0.00    +0.010 A 
BRANCH  24  27
ATOM     27  C   UNL     1       5.162   3.468   0.404  0.00  0.00    +0.013 C 
ATOM     28  C   UNL     1       5.853   4.811   0.158  0.00  0.00    +0.012 C 
ATOM     29  C   UNL     1       5.571   2.928   1.776  0.00  0.00    +0.012 C 
ENDBRANCH  24  27
ENDBRANCH  10  21
TORSDOF 2
