REMARK  Name = ZINC01105497
REMARK  8 active torsions:
REMARK  status: ('A' for Active; 'I' for Inactive)
REMARK    1  A    between atoms: C_1  and  O_2
REMARK    2  A    between atoms: O_2  and  C_3
REMARK    3  A    between atoms: C_6  and  N_9
REMARK    4  A    between atoms: C_19  and  S_20
REMARK    5  A    between atoms: S_20  and  C_21
REMARK    6  A    between atoms: C_21  and  C_22
REMARK    7  A    between atoms: N_24  and  N_25
REMARK    8  A    between atoms: C_26  and  C_27
REMARK                            x       y       z     vdW  Elec       q    Type
REMARK                         _______ _______ _______ _____ _____    ______ ____
ROOT
ATOM      1  N   UNL     1       0.038  -2.766  -0.012  0.00  0.00    -0.255 N 
ATOM      2  C   UNL     1       1.136  -2.143   0.474  0.00  0.00    +0.267 A 
ATOM      3  O   UNL     1       2.081  -2.776   0.910  0.00  0.00    -0.267 OA
ATOM      4  C   UNL     1       1.147  -0.674   0.457  0.00  0.00    +0.065 A 
ATOM      5  C   UNL     1       2.231   0.060   0.936  0.00  0.00    +0.015 A 
ATOM      6  C   UNL     1       2.189   1.426   0.897  0.00  0.00    +0.001 A 
ATOM      7  C   UNL     1       1.080   2.088   0.386  0.00  0.00    +0.002 A 
ATOM      8  C   UNL     1       0.004   1.393  -0.089  0.00  0.00    +0.028 A 
ATOM      9  C   UNL     1       0.016  -0.004  -0.063  0.00  0.00    +0.079 A 
ATOM     10  N   UNL     1      -1.025  -0.729  -0.522  0.00  0.00    -0.223 NA
ATOM     11  C   UNL     1      -1.014  -2.038  -0.497  0.00  0.00    +0.177 A 
ENDROOT
BRANCH   1  15
ATOM     12  C   UNL     1      -0.142  -6.933  -0.031  0.00  0.00    +0.120 A 
ATOM     13  C   UNL     1       0.384  -6.257  -1.122  0.00  0.00    +0.047 A 
ATOM     14  C   UNL     1       0.444  -4.877  -1.117  0.00  0.00    +0.030 A 
ATOM     15  C   UNL     1      -0.023  -4.167  -0.019  0.00  0.00    +0.052 A 
ATOM     16  C   UNL     1      -0.545  -4.845   1.075  0.00  0.00    +0.030 A 
ATOM     17  C   UNL     1      -0.609  -6.224   1.066  0.00  0.00    +0.047 A 
BRANCH  12  19
ATOM     18  C   UNL     1      -0.755  -8.922   1.119  0.00  0.00    +0.277 C 
ATOM     19  O   UNL     1      -0.201  -8.291  -0.037  0.00  0.00    -0.495 OA
ENDBRANCH  12  19
ENDBRANCH   1  15
BRANCH  11  20
ATOM     20  S   UNL     1      -2.418  -2.902  -1.118  0.00  0.00    -0.078 S 
BRANCH  20  21
ATOM     21  C   UNL     1      -3.457  -1.503  -1.608  0.00  0.00    +0.174 C 
BRANCH  21  22
ATOM     22  C   UNL     1      -4.751  -2.016  -2.185  0.00  0.00    +0.242 C 
ATOM     23  O   UNL     1      -4.952  -3.211  -2.257  0.00  0.00    -0.273 OA
ATOM     24  N   UNL     1      -5.686  -1.148  -2.619  0.00  0.00    -0.206 N 
ATOM     25  H   UNL     1      -5.525  -0.193  -2.561  0.00  0.00    +0.177 HD
BRANCH  24  26
ATOM     26  N   UNL     1      -6.889  -1.625  -3.155  0.00  0.00    -0.188 NA
ATOM     27  C   UNL     1      -7.790  -0.788  -3.575  0.00  0.00    +0.140 C 
BRANCH  27  28
ATOM     28  C   UNL     1      -9.054  -1.289  -4.138  0.00  0.00    +0.020 A 
ATOM     29  C   UNL     1     -10.088  -0.540  -4.609  0.00  0.00    +0.093 A 
ATOM     30  N   UNL     1     -11.084  -1.358  -5.052  0.00  0.00    -0.360 N 
ATOM     31  H   UNL     1     -11.922  -1.055  -5.434  0.00  0.00    +0.165 HD
ATOM     32  C   UNL     1     -10.731  -2.679  -4.873  0.00  0.00    +0.047 A 
ATOM     33  C   UNL     1      -9.451  -2.699  -4.296  0.00  0.00    +0.008 A 
ATOM     34  C   UNL     1      -8.837  -3.915  -4.001  0.00  0.00    +0.010 A 
ATOM     35  C   UNL     1      -9.492  -5.094  -4.279  0.00  0.00    +0.001 A 
ATOM     36  C   UNL     1     -10.756  -5.076  -4.849  0.00  0.00    +0.002 A 
ATOM     37  C   UNL     1     -11.376  -3.881  -5.146  0.00  0.00    +0.026 A 
ENDBRANCH  27  28
ENDBRANCH  24  26
ENDBRANCH  21  22
ENDBRANCH  20  21
ENDBRANCH  11  20
TORSDOF 7
