REMARK  Name = ZINC46808675
REMARK  5 active torsions:
REMARK  status: ('A' for Active; 'I' for Inactive)
REMARK    1  A    between atoms: C_4  and  C_7
REMARK    2  A    between atoms: C_7  and  C_9
REMARK    3  A    between atoms: C_7  and  N_18
REMARK    4  A    between atoms: C_9  and  N_10
REMARK    5  A    between atoms: C_25  and  C_27
REMARK                            x       y       z     vdW  Elec       q    Type
REMARK                         _______ _______ _______ _____ _____    ______ ____
ROOT
ATOM      1  C   UNL     1       3.711  -0.707  -0.038  0.00  0.00    +0.122 C 
ENDROOT
BRANCH   1   2
ATOM      2  N   UNL     1       3.611  -1.865  -0.930  0.00  0.00    -0.291 N 
ATOM      3  C   UNL     1       3.825  -1.716  -2.253  0.00  0.00    +0.303 C 
ATOM      4  O   UNL     1       4.099  -0.621  -2.705  0.00  0.00    -0.253 OA
ATOM      5  N   UNL     1       3.733  -2.781  -3.074  0.00  0.00    -0.278 N 
ATOM      6  C   UNL     1       3.402  -4.157  -2.662  0.00  0.00    +0.110 C 
ATOM      7  C   UNL     1       2.823  -4.823  -3.935  0.00  0.00    +0.021 C 
ATOM      8  C   UNL     1       3.708  -4.196  -5.045  0.00  0.00    +0.029 C 
ATOM      9  C   UNL     1       3.940  -2.760  -4.529  0.00  0.00    +0.114 C 
ATOM     10  H   UNL     1       3.392  -2.738  -0.569  0.00  0.00    +0.151 HD
BRANCH   9  11
ATOM     11  C   UNL     1       5.349  -2.328  -4.841  0.00  0.00    +0.010 A 
ATOM     12  C   UNL     1       5.795  -1.526  -5.839  0.00  0.00    +0.013 A 
ATOM     13  C   UNL     1       7.149  -1.263  -5.932  0.00  0.00    +0.008 A 
ATOM     14  C   UNL     1       7.990  -1.813  -5.023  0.00  0.00    +0.045 A 
ATOM     15  S   UNL     1       6.864  -2.733  -3.987  0.00  0.00    -0.100 S 
ENDBRANCH   9  11
ENDBRANCH   1   2
BRANCH   1  19
ATOM     16  C   UNL     1      -0.017   1.378   0.010  0.00  0.00    +0.000 A 
ATOM     17  C   UNL     1       1.171   2.086   0.002  0.00  0.00    +0.000 A 
ATOM     18  C   UNL     1       2.377   1.411  -0.013  0.00  0.00    +0.005 A 
ATOM     19  C   UNL     1       2.396   0.029  -0.020  0.00  0.00    -0.026 A 
ATOM     20  C   UNL     1       1.208  -0.679  -0.012  0.00  0.00    +0.005 A 
ATOM     21  C   UNL     1       0.002  -0.004   0.002  0.00  0.00    +0.000 A 
ENDBRANCH   1  19
BRANCH   1  22
ATOM     22  C   UNL     1       4.049  -1.182   1.377  0.00  0.00    +0.134 C 
BRANCH  22  23
ATOM     23  N   UNL     1       5.265  -1.998   1.341  0.00  0.00    -0.299 N 
ATOM     24  C   UNL     1       5.163  -3.452   1.135  0.00  0.00    +0.108 C 
ATOM     25  C   UNL     1       5.662  -3.783  -0.273  0.00  0.00    +0.019 C 
ATOM     26  C   UNL     1       7.167  -3.978  -0.282  0.00  0.00    +0.002 C 
ATOM     27  C   UNL     1       7.951  -2.711   0.011  0.00  0.00    +0.009 C 
ATOM     28  C   UNL     1       7.720  -2.253   1.453  0.00  0.00    +0.096 C 
ATOM     29  C   UNL     1       6.457  -1.418   1.490  0.00  0.00    +0.216 C 
ATOM     30  O   UNL     1       6.529  -0.220   1.660  0.00  0.00    -0.276 OA
ENDBRANCH  22  23
ENDBRANCH   1  22
TORSDOF 5
