REMARK  Name = ZINC04559654
REMARK  8 active torsions:
REMARK  status: ('A' for Active; 'I' for Inactive)
REMARK    1  A    between atoms: C_1  and  C_2
REMARK    2  A    between atoms: C_2  and  C_3
REMARK    3  A    between atoms: C_3  and  N_4
REMARK    4  A    between atoms: N_4  and  C_5
REMARK    5  A    between atoms: C_5  and  C_6
REMARK    6  A    between atoms: C_16  and  C_18
REMARK    7  A    between atoms: N_27  and  C_28
REMARK    8  A    between atoms: C_28  and  C_29
REMARK                            x       y       z     vdW  Elec       q    Type
REMARK                         _______ _______ _______ _____ _____    ______ ____
ROOT
ATOM      1  C   UNL     1      -3.919   1.269  -1.962  0.00  0.00    +0.234 C 
ATOM      2  O   UNL     1      -3.429   0.262  -2.426  0.00  0.00    -0.274 OA
ATOM      3  N   UNL     1      -3.530   1.710  -0.749  0.00  0.00    -0.289 N 
ATOM      4  C   UNL     1      -4.118   2.930  -0.176  0.00  0.00    +0.114 C 
ATOM      5  C   UNL     1      -4.906   2.540   1.084  0.00  0.00    +0.062 C 
ATOM      6  C   UNL     1      -4.098   1.559   1.870  0.00  0.00    -0.003 A 
ATOM      7  C   UNL     1      -3.026   0.831   1.451  0.00  0.00    -0.012 A 
ATOM      8  C   UNL     1      -2.446  -0.027   2.384  0.00  0.00    +0.013 A 
ATOM      9  C   UNL     1      -2.949  -0.102   3.638  0.00  0.00    +0.046 A 
ATOM     10  S   UNL     1      -4.304   1.065   3.561  0.00  0.00    -0.101 S 
ATOM     11  C   UNL     1      -2.514   0.979   0.019  0.00  0.00    +0.137 C 
ENDROOT
BRANCH  11  12
ATOM     12  C   UNL     1      -1.219   1.750   0.017  0.00  0.00    -0.023 A 
ATOM     13  C   UNL     1      -0.096   1.214  -0.583  0.00  0.00    +0.007 A 
ATOM     14  C   UNL     1       1.091   1.923  -0.590  0.00  0.00    +0.020 A 
ATOM     15  C   UNL     1       1.154   3.169   0.008  0.00  0.00    +0.041 A 
ATOM     16  C   UNL     1       0.031   3.704   0.614  0.00  0.00    +0.020 A 
ATOM     17  C   UNL     1      -1.154   2.993   0.620  0.00  0.00    +0.007 A 
ATOM     18 CL   UNL     1       2.644   4.061   0.000  0.00  0.00    -0.084 Cl
ENDBRANCH  11  12
BRANCH   1  19
ATOM     19  C   UNL     1      -4.962   2.028  -2.741  0.00  0.00    +0.205 C 
BRANCH  19  20
ATOM     20  N   UNL     1      -5.208   1.351  -4.016  0.00  0.00    -0.277 N 
ATOM     21  C   UNL     1      -4.482   1.678  -5.104  0.00  0.00    +0.303 C 
ATOM     22  O   UNL     1      -3.624   2.535  -5.027  0.00  0.00    -0.253 OA
ATOM     23  N   UNL     1      -4.709   1.055  -6.277  0.00  0.00    -0.299 N 
ATOM     24  H   UNL     1      -5.394   0.371  -6.339  0.00  0.00    +0.150 HD
BRANCH  23  25
ATOM     25  C   UNL     1      -3.920   1.411  -7.460  0.00  0.00    +0.102 C 
ATOM     26  C   UNL     1      -4.373   0.562  -8.649  0.00  0.00    +0.024 C 
ENDBRANCH  23  25
BRANCH  20  27
ATOM     27  C   UNL     1      -6.242   0.317  -4.109  0.00  0.00    +0.109 C 
BRANCH  27  29
ATOM     28  C   UNL     1      -8.656  -0.115  -4.586  0.00  0.00    +0.005 C 
ATOM     29  C   UNL     1      -7.576   0.964  -4.489  0.00  0.00    +0.016 C 
ENDBRANCH  27  29
ENDBRANCH  20  27
ENDBRANCH  19  20
ENDBRANCH   1  19
TORSDOF 6
