REMARK  Name = ZINC11427929
REMARK  3 active torsions:
REMARK  status: ('A' for Active; 'I' for Inactive)
REMARK    1  A    between atoms: C_1  and  C_2
REMARK    2  A    between atoms: C_12  and  C_14
REMARK    3  A    between atoms: C_23  and  C_26
REMARK                            x       y       z     vdW  Elec       q    Type
REMARK                         _______ _______ _______ _____ _____    ______ ____
ROOT
ATOM      1  C   UNL     1      -0.019   1.526   0.010  0.00  0.00    +0.008 C 
ATOM      2  C   UNL     1       0.002  -0.004   0.002  0.00  0.00    -0.009 C 
ATOM      3  C   UNL     1      -1.433  -0.537   0.032  0.00  0.00    +0.010 C 
ATOM      4  C   UNL     1      -1.439  -2.045  -0.223  0.00  0.00    +0.056 C 
ATOM      5  C   UNL     1      -0.476  -2.712   0.752  0.00  0.00    +0.054 A 
ATOM      6  C   UNL     1       0.479  -1.977   1.380  0.00  0.00    +0.015 A 
ATOM      7  S   UNL     1       1.307  -3.186   2.378  0.00  0.00    -0.057 S 
ATOM      8  C   UNL     1       0.345  -4.552   1.898  0.00  0.00    +0.165 A 
ATOM      9  N   UNL     1      -0.502  -4.009   1.048  0.00  0.00    -0.229 NA
ATOM     10  N   UNL     1       0.443  -5.876   2.306  0.00  0.00    -0.261 N 
ATOM     11  C   UNL     1      -0.407  -6.799   1.812  0.00  0.00    +0.250 C 
ATOM     12  O   UNL     1      -1.260  -6.472   1.009  0.00  0.00    -0.270 OA
ATOM     13  C   UNL     1       0.745  -0.516   1.246  0.00  0.00    +0.047 C 
ATOM     14  H   UNL     1       1.123  -6.137   2.947  0.00  0.00    +0.157 HD
ENDROOT
BRANCH  11  15
ATOM     15  C   UNL     1      -0.302  -8.204   2.246  0.00  0.00    +0.039 A 
ATOM     16  C   UNL     1       0.679  -8.578   3.170  0.00  0.00    +0.014 A 
ATOM     17  C   UNL     1       0.772  -9.892   3.574  0.00  0.00    +0.017 A 
ATOM     18  C   UNL     1      -0.104 -10.841   3.064  0.00  0.00    +0.030 A 
ATOM     19  C   UNL     1      -1.089 -10.481   2.137  0.00  0.00    +0.048 A 
ATOM     20  C   UNL     1      -1.187  -9.158   1.738  0.00  0.00    +0.037 A 
ATOM     21  N   UNL     1      -1.971 -11.421   1.611  0.00  0.00    -0.284 N 
ATOM     22  C   UNL     1      -2.287 -12.594   2.152  0.00  0.00    +0.230 C 
ATOM     23  O   UNL     1      -3.085 -13.298   1.570  0.00  0.00    -0.274 OA
ATOM     24  C   UNL     1      -1.710 -13.096   3.448  0.00  0.00    +0.134 C 
ATOM     25  S   UNL     1       0.010 -12.524   3.584  0.00  0.00    -0.111 S 
ATOM     26  C   UNL     1      -2.527 -12.548   4.620  0.00  0.00    +0.029 C 
ATOM     27  H   UNL     1      -2.396 -11.199   0.767  0.00  0.00    +0.155 HD
ENDBRANCH  11  15
TORSDOF 1
